MODEL 1
REMARK VINA RESULT:      -7.3      0.000      0.000
REMARK  Name = 
REMARK  1 active torsions:
REMARK  status: ('A' for Active; 'I' for Inactive)
REMARK    1  A    between atoms: N_1  and  C_2
REMARK                            x       y       z     vdW  Elec       q    Type
REMARK                         _______ _______ _______ _____ _____    ______ ____
ROOT
ATOM      1  C   UNL     1       4.001   3.199  17.958  0.00  0.00    +0.000 A 
ATOM      2  C   UNL     1       4.650   3.976  16.956  0.00  0.00    +0.000 A 
ATOM      3  C   UNL     1       5.461   3.451  15.914  0.00  0.00    +0.000 A 
ATOM      4  C   UNL     1       6.093   4.283  14.989  0.00  0.00    +0.000 A 
ATOM      5  C   UNL     1       5.919   5.654  15.076  0.00  0.00    +0.000 A 
ATOM      6  C   UNL     1       5.115   6.179  16.087  0.00  0.00    +0.000 A 
ATOM      7  C   UNL     1       4.483   5.370  17.022  0.00  0.00    +0.000 A 
ATOM      8  N   UNL     1       3.733   5.970  17.951  0.00  0.00    +0.000 NA
ATOM      9  C   UNL     1       3.069   5.246  18.875  0.00  0.00    +0.000 A 
ATOM     10  C   UNL     1       2.260   5.887  19.828  0.00  0.00    +0.000 A 
ATOM     11 CL   UNL     1       2.092   7.616  19.833  0.00  0.00    +0.000 Cl
ATOM     12  C   UNL     1       1.555   5.184  20.809  0.00  0.00    +0.000 A 
ATOM     13  C   UNL     1       1.637   3.804  20.850  0.00  0.00    +0.000 A 
ATOM     14  C   UNL     1       2.422   3.140  19.910  0.00  0.00    +0.000 A 
ATOM     15  C   UNL     1       3.159   3.838  18.915  0.00  0.00    +0.000 A 
ENDROOT
BRANCH   1  16
ATOM     16  N   UNL     1       4.024   1.778  17.869  0.00  0.00    +0.000 N 
ATOM     17  H   UNL     1       3.203   1.330  18.256  0.00  0.00    +0.000 HD
ATOM     18  H   UNL     1       4.212   1.425  16.939  0.00  0.00    +0.000 HD
ENDBRANCH   1  16
TORSDOF 1
ENDMDL
MODEL 2
REMARK VINA RESULT:      -6.8      2.491      3.239
REMARK  Name = 
REMARK  1 active torsions:
REMARK  status: ('A' for Active; 'I' for Inactive)
REMARK    1  A    between atoms: N_1  and  C_2
REMARK                            x       y       z     vdW  Elec       q    Type
REMARK                         _______ _______ _______ _____ _____    ______ ____
ROOT
ATOM      1  C   UNL     1       3.317   5.790  18.439  0.00  0.00    +0.000 A 
ATOM      2  C   UNL     1       4.689   5.931  18.082  0.00  0.00    +0.000 A 
ATOM      3  C   UNL     1       5.223   6.989  17.298  0.00  0.00    +0.000 A 
ATOM      4  C   UNL     1       6.576   7.037  16.961  0.00  0.00    +0.000 A 
ATOM      5  C   UNL     1       7.426   6.040  17.409  0.00  0.00    +0.000 A 
ATOM      6  C   UNL     1       6.915   5.004  18.189  0.00  0.00    +0.000 A 
ATOM      7  C   UNL     1       5.570   4.932  18.530  0.00  0.00    +0.000 A 
ATOM      8  N   UNL     1       5.179   3.900  19.283  0.00  0.00    +0.000 NA
ATOM      9  C   UNL     1       3.894   3.779  19.675  0.00  0.00    +0.000 A 
ATOM     10  C   UNL     1       3.501   2.706  20.490  0.00  0.00    +0.000 A 
ATOM     11 CL   UNL     1       4.656   1.520  21.016  0.00  0.00    +0.000 Cl
ATOM     12  C   UNL     1       2.182   2.533  20.920  0.00  0.00    +0.000 A 
ATOM     13  C   UNL     1       1.217   3.451  20.546  0.00  0.00    +0.000 A 
ATOM     14  C   UNL     1       1.580   4.532  19.747  0.00  0.00    +0.000 A 
ATOM     15  C   UNL     1       2.912   4.716  19.287  0.00  0.00    +0.000 A 
ENDROOT
BRANCH   1  16
ATOM     16  N   UNL     1       2.400   6.833  18.128  0.00  0.00    +0.000 N 
ATOM     17  H   UNL     1       1.716   7.009  18.855  0.00  0.00    +0.000 HD
ATOM     18  H   UNL     1       2.840   7.700  17.843  0.00  0.00    +0.000 HD
ENDBRANCH   1  16
TORSDOF 1
ENDMDL
MODEL 3
REMARK VINA RESULT:      -6.8      2.357      5.215
REMARK  Name = 
REMARK  1 active torsions:
REMARK  status: ('A' for Active; 'I' for Inactive)
REMARK    1  A    between atoms: N_1  and  C_2
REMARK                            x       y       z     vdW  Elec       q    Type
REMARK                         _______ _______ _______ _____ _____    ______ ____
ROOT
ATOM      1  C   UNL     1       3.297   5.608  18.962  0.00  0.00    +0.000 A 
ATOM      2  C   UNL     1       2.495   4.431  18.953  0.00  0.00    +0.000 A 
ATOM      3  C   UNL     1       1.385   4.193  19.809  0.00  0.00    +0.000 A 
ATOM      4  C   UNL     1       0.670   2.996  19.764  0.00  0.00    +0.000 A 
ATOM      5  C   UNL     1       1.036   2.018  18.855  0.00  0.00    +0.000 A 
ATOM      6  C   UNL     1       2.115   2.245  18.002  0.00  0.00    +0.000 A 
ATOM      7  C   UNL     1       2.846   3.426  18.035  0.00  0.00    +0.000 A 
ATOM      8  N   UNL     1       3.861   3.548  17.176  0.00  0.00    +0.000 NA
ATOM      9  C   UNL     1       4.598   4.677  17.134  0.00  0.00    +0.000 A 
ATOM     10  C   UNL     1       5.644   4.805  16.205  0.00  0.00    +0.000 A 
ATOM     11 CL   UNL     1       6.006   3.522  15.092  0.00  0.00    +0.000 Cl
ATOM     12  C   UNL     1       6.440   5.951  16.123  0.00  0.00    +0.000 A 
ATOM     13  C   UNL     1       6.194   7.014  16.974  0.00  0.00    +0.000 A 
ATOM     14  C   UNL     1       5.155   6.920  17.898  0.00  0.00    +0.000 A 
ATOM     15  C   UNL     1       4.346   5.756  18.007  0.00  0.00    +0.000 A 
ENDROOT
BRANCH   1  16
ATOM     16  N   UNL     1       2.914   6.712  19.774  0.00  0.00    +0.000 N 
ATOM     17  H   UNL     1       3.123   7.615  19.364  0.00  0.00    +0.000 HD
ATOM     18  H   UNL     1       1.951   6.683  20.086  0.00  0.00    +0.000 HD
ENDBRANCH   1  16
TORSDOF 1
ENDMDL
MODEL 4
REMARK VINA RESULT:      -6.8      2.122      5.370
REMARK  Name = 
REMARK  1 active torsions:
REMARK  status: ('A' for Active; 'I' for Inactive)
REMARK    1  A    between atoms: N_1  and  C_2
REMARK                            x       y       z     vdW  Elec       q    Type
REMARK                         _______ _______ _______ _____ _____    ______ ____
ROOT
ATOM      1  C   UNL     1       2.900   5.952  18.994  0.00  0.00    +0.000 A 
ATOM      2  C   UNL     1       2.475   4.711  19.549  0.00  0.00    +0.000 A 
ATOM      3  C   UNL     1       1.576   4.571  20.640  0.00  0.00    +0.000 A 
ATOM      4  C   UNL     1       1.235   3.318  21.150  0.00  0.00    +0.000 A 
ATOM      5  C   UNL     1       1.773   2.179  20.575  0.00  0.00    +0.000 A 
ATOM      6  C   UNL     1       2.647   2.304  19.496  0.00  0.00    +0.000 A 
ATOM      7  C   UNL     1       3.005   3.541  18.977  0.00  0.00    +0.000 A 
ATOM      8  N   UNL     1       3.848   3.555  17.941  0.00  0.00    +0.000 NA
ATOM      9  C   UNL     1       4.219   4.719  17.368  0.00  0.00    +0.000 A 
ATOM     10  C   UNL     1       5.083   4.719  16.261  0.00  0.00    +0.000 A 
ATOM     11 CL   UNL     1       5.682   3.228  15.602  0.00  0.00    +0.000 Cl
ATOM     12  C   UNL     1       5.501   5.896  15.634  0.00  0.00    +0.000 A 
ATOM     13  C   UNL     1       5.048   7.116  16.104  0.00  0.00    +0.000 A 
ATOM     14  C   UNL     1       4.182   7.147  17.194  0.00  0.00    +0.000 A 
ATOM     15  C   UNL     1       3.758   5.961  17.854  0.00  0.00    +0.000 A 
ENDROOT
BRANCH   1  16
ATOM     16  N   UNL     1       2.301   7.163  19.441  0.00  0.00    +0.000 N 
ATOM     17  H   UNL     1       1.833   7.084  20.336  0.00  0.00    +0.000 HD
ATOM     18  H   UNL     1       2.927   7.959  19.442  0.00  0.00    +0.000 HD
ENDBRANCH   1  16
TORSDOF 1
ENDMDL
MODEL 5
REMARK VINA RESULT:      -6.7      1.507      4.754
REMARK  Name = 
REMARK  1 active torsions:
REMARK  status: ('A' for Active; 'I' for Inactive)
REMARK    1  A    between atoms: N_1  and  C_2
REMARK                            x       y       z     vdW  Elec       q    Type
REMARK                         _______ _______ _______ _____ _____    ______ ____
ROOT
ATOM      1  C   UNL     1       3.423   3.511  17.565  0.00  0.00    +0.000 A 
ATOM      2  C   UNL     1       2.780   4.172  18.651  0.00  0.00    +0.000 A 
ATOM      3  C   UNL     1       1.670   3.660  19.375  0.00  0.00    +0.000 A 
ATOM      4  C   UNL     1       1.073   4.386  20.407  0.00  0.00    +0.000 A 
ATOM      5  C   UNL     1       1.578   5.629  20.746  0.00  0.00    +0.000 A 
ATOM      6  C   UNL     1       2.675   6.136  20.050  0.00  0.00    +0.000 A 
ATOM      7  C   UNL     1       3.281   5.434  19.016  0.00  0.00    +0.000 A 
ATOM      8  N   UNL     1       4.327   6.005  18.412  0.00  0.00    +0.000 NA
ATOM      9  C   UNL     1       4.981   5.370  17.417  0.00  0.00    +0.000 A 
ATOM     10  C   UNL     1       6.097   5.967  16.811  0.00  0.00    +0.000 A 
ATOM     11 CL   UNL     1       6.664   7.525  17.331  0.00  0.00    +0.000 Cl
ATOM     12  C   UNL     1       6.806   5.355  15.774  0.00  0.00    +0.000 A 
ATOM     13  C   UNL     1       6.413   4.108  15.323  0.00  0.00    +0.000 A 
ATOM     14  C   UNL     1       5.315   3.485  15.914  0.00  0.00    +0.000 A 
ATOM     15  C   UNL     1       4.572   4.100  16.958  0.00  0.00    +0.000 A 
ENDROOT
BRANCH   1  16
ATOM     16  N   UNL     1       3.049   2.179  17.233  0.00  0.00    +0.000 N 
ATOM     17  H   UNL     1       3.835   1.558  17.080  0.00  0.00    +0.000 HD
ATOM     18  H   UNL     1       2.392   1.760  17.881  0.00  0.00    +0.000 HD
ENDBRANCH   1  16
TORSDOF 1
ENDMDL
MODEL 6
REMARK VINA RESULT:      -6.7      1.123      4.642
REMARK  Name = 
REMARK  1 active torsions:
REMARK  status: ('A' for Active; 'I' for Inactive)
REMARK    1  A    between atoms: N_1  and  C_2
REMARK                            x       y       z     vdW  Elec       q    Type
REMARK                         _______ _______ _______ _____ _____    ______ ____
ROOT
ATOM      1  C   UNL     1       3.720   2.820  17.933  0.00  0.00    +0.000 A 
ATOM      2  C   UNL     1       2.868   3.102  19.040  0.00  0.00    +0.000 A 
ATOM      3  C   UNL     1       2.286   2.124  19.891  0.00  0.00    +0.000 A 
ATOM      4  C   UNL     1       1.433   2.479  20.936  0.00  0.00    +0.000 A 
ATOM      5  C   UNL     1       1.152   3.816  21.162  0.00  0.00    +0.000 A 
ATOM      6  C   UNL     1       1.727   4.785  20.340  0.00  0.00    +0.000 A 
ATOM      7  C   UNL     1       2.574   4.453  19.290  0.00  0.00    +0.000 A 
ATOM      8  N   UNL     1       3.075   5.454  18.562  0.00  0.00    +0.000 NA
ATOM      9  C   UNL     1       3.925   5.209  17.544  0.00  0.00    +0.000 A 
ATOM     10  C   UNL     1       4.469   6.272  16.804  0.00  0.00    +0.000 A 
ATOM     11 CL   UNL     1       4.067   7.918  17.187  0.00  0.00    +0.000 Cl
ATOM     12  C   UNL     1       5.350   6.072  15.738  0.00  0.00    +0.000 A 
ATOM     13  C   UNL     1       5.719   4.785  15.391  0.00  0.00    +0.000 A 
ATOM     14  C   UNL     1       5.204   3.710  16.114  0.00  0.00    +0.000 A 
ATOM     15  C   UNL     1       4.295   3.894  17.191  0.00  0.00    +0.000 A 
ENDROOT
BRANCH   1  16
ATOM     16  N   UNL     1       4.159   1.485  17.708  0.00  0.00    +0.000 N 
ATOM     17  H   UNL     1       4.399   1.289  16.743  0.00  0.00    +0.000 HD
ATOM     18  H   UNL     1       4.907   1.186  18.323  0.00  0.00    +0.000 HD
ENDBRANCH   1  16
TORSDOF 1
ENDMDL
MODEL 7
REMARK VINA RESULT:      -6.7      2.669      3.591
REMARK  Name = 
REMARK  1 active torsions:
REMARK  status: ('A' for Active; 'I' for Inactive)
REMARK    1  A    between atoms: N_1  and  C_2
REMARK                            x       y       z     vdW  Elec       q    Type
REMARK                         _______ _______ _______ _____ _____    ______ ____
ROOT
ATOM      1  C   UNL     1       4.135   6.150  17.603  0.00  0.00    +0.000 A 
ATOM      2  C   UNL     1       5.506   6.382  17.913  0.00  0.00    +0.000 A 
ATOM      3  C   UNL     1       6.271   7.487  17.450  0.00  0.00    +0.000 A 
ATOM      4  C   UNL     1       7.622   7.625  17.769  0.00  0.00    +0.000 A 
ATOM      5  C   UNL     1       8.235   6.673  18.566  0.00  0.00    +0.000 A 
ATOM      6  C   UNL     1       7.490   5.591  19.036  0.00  0.00    +0.000 A 
ATOM      7  C   UNL     1       6.147   5.430  18.725  0.00  0.00    +0.000 A 
ATOM      8  N   UNL     1       5.521   4.361  19.225  0.00  0.00    +0.000 NA
ATOM      9  C   UNL     1       4.210   4.154  18.986  0.00  0.00    +0.000 A 
ATOM     10  C   UNL     1       3.557   3.042  19.542  0.00  0.00    +0.000 A 
ATOM     11 CL   UNL     1       4.417   1.918  20.550  0.00  0.00    +0.000 Cl
ATOM     12  C   UNL     1       2.202   2.779  19.323  0.00  0.00    +0.000 A 
ATOM     13  C   UNL     1       1.458   3.644  18.539  0.00  0.00    +0.000 A 
ATOM     14  C   UNL     1       2.076   4.762  17.983  0.00  0.00    +0.000 A 
ATOM     15  C   UNL     1       3.457   5.036  18.183  0.00  0.00    +0.000 A 
ENDROOT
BRANCH   1  16
ATOM     16  N   UNL     1       3.397   7.141  16.897  0.00  0.00    +0.000 N 
ATOM     17  H   UNL     1       2.412   6.925  16.795  0.00  0.00    +0.000 HD
ATOM     18  H   UNL     1       3.514   8.080  17.257  0.00  0.00    +0.000 HD
ENDBRANCH   1  16
TORSDOF 1
ENDMDL
MODEL 8
REMARK VINA RESULT:      -6.7      2.013      3.105
REMARK  Name = 
REMARK  1 active torsions:
REMARK  status: ('A' for Active; 'I' for Inactive)
REMARK    1  A    between atoms: N_1  and  C_2
REMARK                            x       y       z     vdW  Elec       q    Type
REMARK                         _______ _______ _______ _____ _____    ______ ____
ROOT
ATOM      1  C   UNL     1       2.937   5.978  18.462  0.00  0.00    +0.000 A 
ATOM      2  C   UNL     1       3.877   5.874  17.397  0.00  0.00    +0.000 A 
ATOM      3  C   UNL     1       4.380   6.970  16.644  0.00  0.00    +0.000 A 
ATOM      4  C   UNL     1       5.275   6.783  15.589  0.00  0.00    +0.000 A 
ATOM      5  C   UNL     1       5.696   5.502  15.273  0.00  0.00    +0.000 A 
ATOM      6  C   UNL     1       5.219   4.421  16.013  0.00  0.00    +0.000 A 
ATOM      7  C   UNL     1       4.322   4.584  17.062  0.00  0.00    +0.000 A 
ATOM      8  N   UNL     1       3.926   3.486  17.710  0.00  0.00    +0.000 NA
ATOM      9  C   UNL     1       3.077   3.570  18.756  0.00  0.00    +0.000 A 
ATOM     10  C   UNL     1       2.691   2.411  19.448  0.00  0.00    +0.000 A 
ATOM     11 CL   UNL     1       3.299   0.852  18.981  0.00  0.00    +0.000 Cl
ATOM     12  C   UNL     1       1.812   2.443  20.534  0.00  0.00    +0.000 A 
ATOM     13  C   UNL     1       1.303   3.656  20.963  0.00  0.00    +0.000 A 
ATOM     14  C   UNL     1       1.677   4.824  20.303  0.00  0.00    +0.000 A 
ATOM     15  C   UNL     1       2.557   4.809  19.187  0.00  0.00    +0.000 A 
ENDROOT
BRANCH   1  16
ATOM     16  N   UNL     1       2.550   7.263  18.934  0.00  0.00    +0.000 N 
ATOM     17  H   UNL     1       3.328   7.883  19.125  0.00  0.00    +0.000 HD
ATOM     18  H   UNL     1       1.865   7.729  18.351  0.00  0.00    +0.000 HD
ENDBRANCH   1  16
TORSDOF 1
ENDMDL
MODEL 9
REMARK VINA RESULT:      -6.6      2.075      4.932
REMARK  Name = 
REMARK  1 active torsions:
REMARK  status: ('A' for Active; 'I' for Inactive)
REMARK    1  A    between atoms: N_1  and  C_2
REMARK                            x       y       z     vdW  Elec       q    Type
REMARK                         _______ _______ _______ _____ _____    ______ ____
ROOT
ATOM      1  C   UNL     1       3.371   3.638  17.315  0.00  0.00    +0.000 A 
ATOM      2  C   UNL     1       2.705   3.718  18.572  0.00  0.00    +0.000 A 
ATOM      3  C   UNL     1       1.375   3.284  18.819  0.00  0.00    +0.000 A 
ATOM      4  C   UNL     1       0.779   3.428  20.072  0.00  0.00    +0.000 A 
ATOM      5  C   UNL     1       1.501   3.997  21.108  0.00  0.00    +0.000 A 
ATOM      6  C   UNL     1       2.812   4.415  20.880  0.00  0.00    +0.000 A 
ATOM      7  C   UNL     1       3.422   4.288  19.639  0.00  0.00    +0.000 A 
ATOM      8  N   UNL     1       4.681   4.717  19.523  0.00  0.00    +0.000 NA
ATOM      9  C   UNL     1       5.345   4.601  18.355  0.00  0.00    +0.000 A 
ATOM     10  C   UNL     1       6.679   5.029  18.253  0.00  0.00    +0.000 A 
ATOM     11 CL   UNL     1       7.500   5.709  19.625  0.00  0.00    +0.000 Cl
ATOM     12  C   UNL     1       7.410   4.935  17.066  0.00  0.00    +0.000 A 
ATOM     13  C   UNL     1       6.816   4.391  15.941  0.00  0.00    +0.000 A 
ATOM     14  C   UNL     1       5.498   3.947  16.015  0.00  0.00    +0.000 A 
ATOM     15  C   UNL     1       4.733   4.049  17.209  0.00  0.00    +0.000 A 
ENDROOT
BRANCH   1  16
ATOM     16  N   UNL     1       2.749   2.955  16.233  0.00  0.00    +0.000 N 
ATOM     17  H   UNL     1       3.165   2.056  16.021  0.00  0.00    +0.000 HD
ATOM     18  H   UNL     1       1.744   2.864  16.323  0.00  0.00    +0.000 HD
ENDBRANCH   1  16
TORSDOF 1
ENDMDL
