MODEL 1
REMARK VINA RESULT:      -7.6      0.000      0.000
REMARK  Name = 
REMARK  18 active torsions:
REMARK  status: ('A' for Active; 'I' for Inactive)
REMARK    1  A    between atoms: C_1  and  O_2
REMARK    2  A    between atoms: O_2  and  C_3
REMARK    3  A    between atoms: C_3  and  C_5
REMARK    4  A    between atoms: C_5  and  C_6
REMARK    5  A    between atoms: C_6  and  C_7
REMARK    6  A    between atoms: C_7  and  C_8
REMARK    7  A    between atoms: C_8  and  C_9
REMARK    8  A    between atoms: C_9  and  N_10
REMARK    9  A    between atoms: C_11  and  O_13
REMARK   10  A    between atoms: O_13  and  C_14
REMARK   11  A    between atoms: C_14  and  C_15
REMARK   12  A    between atoms: C_14  and  C_16
REMARK   13  A    between atoms: C_14  and  C_17
REMARK   14  A    between atoms: C_18  and  C_19
REMARK   15  A    between atoms: N_22  and  C_23
REMARK   16  A    between atoms: C_23  and  C_24
REMARK   17  A    between atoms: C_27  and  O_28
REMARK   18  A    between atoms: O_28  and  C_29
REMARK                            x       y       z     vdW  Elec       q    Type
REMARK                         _______ _______ _______ _____ _____    ______ ____
ROOT
ATOM      1  C   UNL     1       2.208   4.429  18.850  0.00  0.00    +0.000 C 
ATOM      2  C   UNL     1       1.676   3.100  18.177  0.00  0.00    +0.000 C 
ATOM      3  C   UNL     1       0.778   2.174  18.983  0.00  0.00    +0.000 C 
ATOM      4  C   UNL     1       3.159   2.679  18.147  0.00  0.00    +0.000 C 
ATOM      5  O   UNL     1       3.800   1.779  17.660  0.00  0.00    +0.000 OA
ATOM      6  N   UNL     1       3.527   3.756  18.877  0.00  0.00    +0.000 N 
ENDROOT
BRANCH   1   7
ATOM      7  C   UNL     1       1.526   4.733  20.266  0.00  0.00    +0.000 C 
ATOM      8  O   UNL     1       0.387   5.182  20.410  0.00  0.00    +0.000 OA
BRANCH   7  10
ATOM      9  C   UNL     1       2.095   3.219  21.977  0.00  0.00    +0.000 C 
ATOM     10  O   UNL     1       2.348   4.465  21.324  0.00  0.00    +0.000 OA
ENDBRANCH   7  10
ENDBRANCH   1   7
BRANCH   1  11
ATOM     11  C   UNL     1       2.149   5.722  18.002  0.00  0.00    +0.000 C 
BRANCH  11  12
ATOM     12  C   UNL     1       2.422   7.056  18.703  0.00  0.00    +0.000 C 
BRANCH  12  13
ATOM     13  C   UNL     1       2.008   8.230  17.791  0.00  0.00    +0.000 C 
BRANCH  13  14
ATOM     14  C   UNL     1       1.402   9.394  18.577  0.00  0.00    +0.000 C 
BRANCH  14  15
ATOM     15  N   UNL     1       0.398  10.110  17.812  0.00  0.00    +0.000 N 
ATOM     16  C   UNL     1      -0.790  10.473  18.382  0.00  0.00    +0.000 C 
ATOM     17  O   UNL     1      -1.089  10.207  19.535  0.00  0.00    +0.000 OA
ATOM     18  H   UNL     1       0.538  10.347  16.845  0.00  0.00    +0.000 HD
BRANCH  16  19
ATOM     19  O   UNL     1      -1.567  11.148  17.494  0.00  0.00    +0.000 OA
BRANCH  19  20
ATOM     20  C   UNL     1      -2.777  10.508  16.997  0.00  0.00    +0.000 C 
ATOM     21  C   UNL     1      -3.221   9.364  17.919  0.00  0.00    +0.000 C 
ATOM     22  C   UNL     1      -3.884  11.578  17.010  0.00  0.00    +0.000 C 
ATOM     23  C   UNL     1      -2.592  10.050  15.543  0.00  0.00    +0.000 C 
ENDBRANCH  19  20
ENDBRANCH  16  19
ENDBRANCH  14  15
ENDBRANCH  13  14
ENDBRANCH  12  13
ENDBRANCH  11  12
ENDBRANCH   1  11
BRANCH   6  24
ATOM     24  C   UNL     1       4.854   4.239  19.120  0.00  0.00    +0.000 C 
BRANCH  24  25
ATOM     25  C   UNL     1       5.604   4.550  17.841  0.00  0.00    +0.000 A 
ATOM     26  C   UNL     1       7.006   4.584  17.800  0.00  0.00    +0.000 A 
ATOM     27  C   UNL     1       7.679   4.838  16.599  0.00  0.00    +0.000 A 
ATOM     28  C   UNL     1       6.966   5.055  15.420  0.00  0.00    +0.000 A 
ATOM     29  C   UNL     1       5.574   5.084  15.462  0.00  0.00    +0.000 A 
ATOM     30  C   UNL     1       4.901   4.824  16.660  0.00  0.00    +0.000 A 
BRANCH  28  31
ATOM     31  O   UNL     1       7.712   5.273  14.292  0.00  0.00    +0.000 OA
ATOM     32  C   UNL     1       7.116   4.806  13.084  0.00  0.00    +0.000 C 
ENDBRANCH  28  31
ENDBRANCH  24  25
ENDBRANCH   6  24
TORSDOF 12
ENDMDL
MODEL 2
REMARK VINA RESULT:      -7.4      2.589      3.496
REMARK  Name = 
REMARK  18 active torsions:
REMARK  status: ('A' for Active; 'I' for Inactive)
REMARK    1  A    between atoms: C_1  and  O_2
REMARK    2  A    between atoms: O_2  and  C_3
REMARK    3  A    between atoms: C_3  and  C_5
REMARK    4  A    between atoms: C_5  and  C_6
REMARK    5  A    between atoms: C_6  and  C_7
REMARK    6  A    between atoms: C_7  and  C_8
REMARK    7  A    between atoms: C_8  and  C_9
REMARK    8  A    between atoms: C_9  and  N_10
REMARK    9  A    between atoms: C_11  and  O_13
REMARK   10  A    between atoms: O_13  and  C_14
REMARK   11  A    between atoms: C_14  and  C_15
REMARK   12  A    between atoms: C_14  and  C_16
REMARK   13  A    between atoms: C_14  and  C_17
REMARK   14  A    between atoms: C_18  and  C_19
REMARK   15  A    between atoms: N_22  and  C_23
REMARK   16  A    between atoms: C_23  and  C_24
REMARK   17  A    between atoms: C_27  and  O_28
REMARK   18  A    between atoms: O_28  and  C_29
REMARK                            x       y       z     vdW  Elec       q    Type
REMARK                         _______ _______ _______ _____ _____    ______ ____
ROOT
ATOM      1  C   UNL     1       4.040   4.365  18.786  0.00  0.00    +0.000 C 
ATOM      2  C   UNL     1       3.168   4.147  17.484  0.00  0.00    +0.000 C 
ATOM      3  C   UNL     1       2.313   2.895  17.370  0.00  0.00    +0.000 C 
ATOM      4  C   UNL     1       4.523   4.059  16.753  0.00  0.00    +0.000 C 
ATOM      5  O   UNL     1       4.892   4.018  15.604  0.00  0.00    +0.000 OA
ATOM      6  N   UNL     1       5.206   4.077  17.919  0.00  0.00    +0.000 N 
ENDROOT
BRANCH   1   7
ATOM      7  C   UNL     1       3.722   3.302  19.940  0.00  0.00    +0.000 C 
ATOM      8  O   UNL     1       4.302   2.222  20.074  0.00  0.00    +0.000 OA
BRANCH   7  10
ATOM      9  C   UNL     1       1.861   2.640  21.223  0.00  0.00    +0.000 C 
ATOM     10  O   UNL     1       2.709   3.697  20.767  0.00  0.00    +0.000 OA
ENDBRANCH   7  10
ENDBRANCH   1   7
BRANCH   1  11
ATOM     11  C   UNL     1       4.025   5.776  19.418  0.00  0.00    +0.000 C 
BRANCH  11  12
ATOM     12  C   UNL     1       2.794   6.657  19.186  0.00  0.00    +0.000 C 
BRANCH  12  13
ATOM     13  C   UNL     1       3.073   7.678  18.064  0.00  0.00    +0.000 C 
BRANCH  13  14
ATOM     14  C   UNL     1       1.846   8.527  17.728  0.00  0.00    +0.000 C 
BRANCH  14  15
ATOM     15  N   UNL     1       1.669   9.629  18.654  0.00  0.00    +0.000 N 
ATOM     16  C   UNL     1       0.518  10.366  18.656  0.00  0.00    +0.000 C 
ATOM     17  O   UNL     1      -0.406  10.166  17.884  0.00  0.00    +0.000 OA
ATOM     18  H   UNL     1       2.386   9.892  19.308  0.00  0.00    +0.000 HD
BRANCH  16  19
ATOM     19  O   UNL     1       0.560  11.330  19.614  0.00  0.00    +0.000 OA
BRANCH  19  20
ATOM     20  C   UNL     1       0.885  12.693  19.219  0.00  0.00    +0.000 C 
ATOM     21  C   UNL     1      -0.326  13.394  18.589  0.00  0.00    +0.000 C 
ATOM     22  C   UNL     1       1.251  13.454  20.507  0.00  0.00    +0.000 C 
ATOM     23  C   UNL     1       2.116  12.714  18.302  0.00  0.00    +0.000 C 
ENDBRANCH  19  20
ENDBRANCH  16  19
ENDBRANCH  14  15
ENDBRANCH  13  14
ENDBRANCH  12  13
ENDBRANCH  11  12
ENDBRANCH   1  11
BRANCH   6  24
ATOM     24  C   UNL     1       6.616   4.249  18.107  0.00  0.00    +0.000 C 
BRANCH  24  25
ATOM     25  C   UNL     1       7.038   5.703  18.051  0.00  0.00    +0.000 A 
ATOM     26  C   UNL     1       7.976   6.231  18.951  0.00  0.00    +0.000 A 
ATOM     27  C   UNL     1       8.380   7.568  18.859  0.00  0.00    +0.000 A 
ATOM     28  C   UNL     1       7.858   8.398  17.865  0.00  0.00    +0.000 A 
ATOM     29  C   UNL     1       6.882   7.900  17.006  0.00  0.00    +0.000 A 
ATOM     30  C   UNL     1       6.484   6.562  17.094  0.00  0.00    +0.000 A 
BRANCH  28  31
ATOM     31  O   UNL     1       8.329   9.683  17.841  0.00  0.00    +0.000 OA
ATOM     32  C   UNL     1       9.099  10.057  18.981  0.00  0.00    +0.000 C 
ENDBRANCH  28  31
ENDBRANCH  24  25
ENDBRANCH   6  24
TORSDOF 12
ENDMDL
MODEL 3
REMARK VINA RESULT:      -7.3      2.362      3.144
REMARK  Name = 
REMARK  18 active torsions:
REMARK  status: ('A' for Active; 'I' for Inactive)
REMARK    1  A    between atoms: C_1  and  O_2
REMARK    2  A    between atoms: O_2  and  C_3
REMARK    3  A    between atoms: C_3  and  C_5
REMARK    4  A    between atoms: C_5  and  C_6
REMARK    5  A    between atoms: C_6  and  C_7
REMARK    6  A    between atoms: C_7  and  C_8
REMARK    7  A    between atoms: C_8  and  C_9
REMARK    8  A    between atoms: C_9  and  N_10
REMARK    9  A    between atoms: C_11  and  O_13
REMARK   10  A    between atoms: O_13  and  C_14
REMARK   11  A    between atoms: C_14  and  C_15
REMARK   12  A    between atoms: C_14  and  C_16
REMARK   13  A    between atoms: C_14  and  C_17
REMARK   14  A    between atoms: C_18  and  C_19
REMARK   15  A    between atoms: N_22  and  C_23
REMARK   16  A    between atoms: C_23  and  C_24
REMARK   17  A    between atoms: C_27  and  O_28
REMARK   18  A    between atoms: O_28  and  C_29
REMARK                            x       y       z     vdW  Elec       q    Type
REMARK                         _______ _______ _______ _____ _____    ______ ____
ROOT
ATOM      1  C   UNL     1       3.877   4.519  18.797  0.00  0.00    +0.000 C 
ATOM      2  C   UNL     1       3.033   4.275  17.481  0.00  0.00    +0.000 C 
ATOM      3  C   UNL     1       2.125   3.057  17.403  0.00  0.00    +0.000 C 
ATOM      4  C   UNL     1       4.401   4.091  16.795  0.00  0.00    +0.000 C 
ATOM      5  O   UNL     1       4.799   3.977  15.661  0.00  0.00    +0.000 OA
ATOM      6  N   UNL     1       5.052   4.138  17.979  0.00  0.00    +0.000 N 
ENDROOT
BRANCH   1   7
ATOM      7  C   UNL     1       3.480   3.530  19.991  0.00  0.00    +0.000 C 
ATOM      8  O   UNL     1       4.092   2.498  20.275  0.00  0.00    +0.000 OA
BRANCH   7  10
ATOM      9  C   UNL     1       1.814   2.948  21.550  0.00  0.00    +0.000 C 
ATOM     10  O   UNL     1       2.363   3.930  20.668  0.00  0.00    +0.000 OA
ENDBRANCH   7  10
ENDBRANCH   1   7
BRANCH   1  11
ATOM     11  C   UNL     1       3.909   5.960  19.358  0.00  0.00    +0.000 C 
BRANCH  11  12
ATOM     12  C   UNL     1       2.659   6.828  19.187  0.00  0.00    +0.000 C 
BRANCH  12  13
ATOM     13  C   UNL     1       2.758   7.653  17.887  0.00  0.00    +0.000 C 
BRANCH  13  14
ATOM     14  C   UNL     1       2.448   9.134  18.109  0.00  0.00    +0.000 C 
BRANCH  14  15
ATOM     15  N   UNL     1       1.024   9.408  18.079  0.00  0.00    +0.000 N 
ATOM     16  C   UNL     1       0.399   9.996  19.143  0.00  0.00    +0.000 C 
ATOM     17  O   UNL     1       0.978  10.302  20.173  0.00  0.00    +0.000 OA
ATOM     18  H   UNL     1       0.454   9.164  17.286  0.00  0.00    +0.000 HD
BRANCH  16  19
ATOM     19  O   UNL     1      -0.924  10.177  18.890  0.00  0.00    +0.000 OA
BRANCH  19  20
ATOM     20  C   UNL     1      -1.447  11.535  18.839  0.00  0.00    +0.000 C 
ATOM     21  C   UNL     1      -0.411  12.508  18.259  0.00  0.00    +0.000 C 
ATOM     22  C   UNL     1      -2.655  11.511  17.885  0.00  0.00    +0.000 C 
ATOM     23  C   UNL     1      -1.954  11.974  20.220  0.00  0.00    +0.000 C 
ENDBRANCH  19  20
ENDBRANCH  16  19
ENDBRANCH  14  15
ENDBRANCH  13  14
ENDBRANCH  12  13
ENDBRANCH  11  12
ENDBRANCH   1  11
BRANCH   6  24
ATOM     24  C   UNL     1       6.464   4.257  18.200  0.00  0.00    +0.000 C 
BRANCH  24  25
ATOM     25  C   UNL     1       6.954   5.685  18.074  0.00  0.00    +0.000 A 
ATOM     26  C   UNL     1       6.454   6.549  17.088  0.00  0.00    +0.000 A 
ATOM     27  C   UNL     1       6.894   7.877  17.013  0.00  0.00    +0.000 A 
ATOM     28  C   UNL     1       7.834   8.363  17.922  0.00  0.00    +0.000 A 
ATOM     29  C   UNL     1       8.380   7.497  18.865  0.00  0.00    +0.000 A 
ATOM     30  C   UNL     1       7.936   6.173  18.945  0.00  0.00    +0.000 A 
BRANCH  28  31
ATOM     31  O   UNL     1       8.186   9.679  17.783  0.00  0.00    +0.000 OA
ATOM     32  C   UNL     1       9.061  10.172  18.794  0.00  0.00    +0.000 C 
ENDBRANCH  28  31
ENDBRANCH  24  25
ENDBRANCH   6  24
TORSDOF 12
ENDMDL
MODEL 4
REMARK VINA RESULT:      -7.3      1.957      2.755
REMARK  Name = 
REMARK  18 active torsions:
REMARK  status: ('A' for Active; 'I' for Inactive)
REMARK    1  A    between atoms: C_1  and  O_2
REMARK    2  A    between atoms: O_2  and  C_3
REMARK    3  A    between atoms: C_3  and  C_5
REMARK    4  A    between atoms: C_5  and  C_6
REMARK    5  A    between atoms: C_6  and  C_7
REMARK    6  A    between atoms: C_7  and  C_8
REMARK    7  A    between atoms: C_8  and  C_9
REMARK    8  A    between atoms: C_9  and  N_10
REMARK    9  A    between atoms: C_11  and  O_13
REMARK   10  A    between atoms: O_13  and  C_14
REMARK   11  A    between atoms: C_14  and  C_15
REMARK   12  A    between atoms: C_14  and  C_16
REMARK   13  A    between atoms: C_14  and  C_17
REMARK   14  A    between atoms: C_18  and  C_19
REMARK   15  A    between atoms: N_22  and  C_23
REMARK   16  A    between atoms: C_23  and  C_24
REMARK   17  A    between atoms: C_27  and  O_28
REMARK   18  A    between atoms: O_28  and  C_29
REMARK                            x       y       z     vdW  Elec       q    Type
REMARK                         _______ _______ _______ _____ _____    ______ ____
ROOT
ATOM      1  C   UNL     1       2.986   4.001  19.270  0.00  0.00    +0.000 C 
ATOM      2  C   UNL     1       1.630   3.844  18.471  0.00  0.00    +0.000 C 
ATOM      3  C   UNL     1       0.623   2.798  18.925  0.00  0.00    +0.000 C 
ATOM      4  C   UNL     1       2.526   3.396  17.299  0.00  0.00    +0.000 C 
ATOM      5  O   UNL     1       2.372   3.161  16.125  0.00  0.00    +0.000 OA
ATOM      6  N   UNL     1       3.626   3.385  18.084  0.00  0.00    +0.000 N 
ENDROOT
BRANCH   1   7
ATOM      7  C   UNL     1       3.018   3.153  20.627  0.00  0.00    +0.000 C 
ATOM      8  O   UNL     1       3.719   2.156  20.810  0.00  0.00    +0.000 OA
BRANCH   7  10
ATOM      9  C   UNL     1       1.372   2.633  22.228  0.00  0.00    +0.000 C 
ATOM     10  O   UNL     1       2.161   3.632  21.577  0.00  0.00    +0.000 OA
ENDBRANCH   7  10
ENDBRANCH   1   7
BRANCH   1  11
ATOM     11  C   UNL     1       3.452   5.440  19.593  0.00  0.00    +0.000 C 
BRANCH  11  12
ATOM     12  C   UNL     1       2.460   6.586  19.373  0.00  0.00    +0.000 C 
BRANCH  12  13
ATOM     13  C   UNL     1       3.067   7.641  18.424  0.00  0.00    +0.000 C 
BRANCH  13  14
ATOM     14  C   UNL     1       1.998   8.474  17.717  0.00  0.00    +0.000 C 
BRANCH  14  15
ATOM     15  N   UNL     1       1.198   9.248  18.648  0.00  0.00    +0.000 N 
ATOM     16  C   UNL     1       1.346  10.604  18.741  0.00  0.00    +0.000 C 
ATOM     17  O   UNL     1       2.156  11.236  18.082  0.00  0.00    +0.000 OA
ATOM     18  H   UNL     1       0.526   8.814  19.257  0.00  0.00    +0.000 HD
BRANCH  16  19
ATOM     19  O   UNL     1       0.486  11.124  19.657  0.00  0.00    +0.000 OA
BRANCH  19  20
ATOM     20  C   UNL     1      -0.730  11.770  19.185  0.00  0.00    +0.000 C 
ATOM     21  C   UNL     1      -1.505  10.861  18.220  0.00  0.00    +0.000 C 
ATOM     22  C   UNL     1      -1.617  12.006  20.421  0.00  0.00    +0.000 C 
ATOM     23  C   UNL     1      -0.415  13.140  18.571  0.00  0.00    +0.000 C 
ENDBRANCH  19  20
ENDBRANCH  16  19
ENDBRANCH  14  15
ENDBRANCH  13  14
ENDBRANCH  12  13
ENDBRANCH  11  12
ENDBRANCH   1  11
BRANCH   6  24
ATOM     24  C   UNL     1       4.995   3.271  17.675  0.00  0.00    +0.000 C 
BRANCH  24  25
ATOM     25  C   UNL     1       5.668   4.618  17.511  0.00  0.00    +0.000 A 
ATOM     26  C   UNL     1       5.290   5.510  16.496  0.00  0.00    +0.000 A 
ATOM     27  C   UNL     1       5.900   6.765  16.385  0.00  0.00    +0.000 A 
ATOM     28  C   UNL     1       6.893   7.152  17.288  0.00  0.00    +0.000 A 
ATOM     29  C   UNL     1       7.317   6.251  18.260  0.00  0.00    +0.000 A 
ATOM     30  C   UNL     1       6.703   4.999  18.375  0.00  0.00    +0.000 A 
BRANCH  28  31
ATOM     31  O   UNL     1       7.415   8.406  17.112  0.00  0.00    +0.000 OA
ATOM     32  C   UNL     1       8.297   8.834  18.147  0.00  0.00    +0.000 C 
ENDBRANCH  28  31
ENDBRANCH  24  25
ENDBRANCH   6  24
TORSDOF 12
ENDMDL
MODEL 5
REMARK VINA RESULT:      -7.3      1.967      8.005
REMARK  Name = 
REMARK  18 active torsions:
REMARK  status: ('A' for Active; 'I' for Inactive)
REMARK    1  A    between atoms: C_1  and  O_2
REMARK    2  A    between atoms: O_2  and  C_3
REMARK    3  A    between atoms: C_3  and  C_5
REMARK    4  A    between atoms: C_5  and  C_6
REMARK    5  A    between atoms: C_6  and  C_7
REMARK    6  A    between atoms: C_7  and  C_8
REMARK    7  A    between atoms: C_8  and  C_9
REMARK    8  A    between atoms: C_9  and  N_10
REMARK    9  A    between atoms: C_11  and  O_13
REMARK   10  A    between atoms: O_13  and  C_14
REMARK   11  A    between atoms: C_14  and  C_15
REMARK   12  A    between atoms: C_14  and  C_16
REMARK   13  A    between atoms: C_14  and  C_17
REMARK   14  A    between atoms: C_18  and  C_19
REMARK   15  A    between atoms: N_22  and  C_23
REMARK   16  A    between atoms: C_23  and  C_24
REMARK   17  A    between atoms: C_27  and  O_28
REMARK   18  A    between atoms: O_28  and  C_29
REMARK                            x       y       z     vdW  Elec       q    Type
REMARK                         _______ _______ _______ _____ _____    ______ ____
ROOT
ATOM      1  C   UNL     1       2.903   5.747  18.573  0.00  0.00    +0.000 C 
ATOM      2  C   UNL     1       2.530   5.718  20.110  0.00  0.00    +0.000 C 
ATOM      3  C   UNL     1       1.380   4.838  20.575  0.00  0.00    +0.000 C 
ATOM      4  C   UNL     1       2.154   7.200  19.911  0.00  0.00    +0.000 C 
ATOM      5  O   UNL     1       1.849   8.126  20.624  0.00  0.00    +0.000 OA
ATOM      6  N   UNL     1       2.326   7.111  18.573  0.00  0.00    +0.000 N 
ENDROOT
BRANCH   1   7
ATOM      7  C   UNL     1       2.127   4.638  17.718  0.00  0.00    +0.000 C 
ATOM      8  O   UNL     1       0.991   4.777  17.262  0.00  0.00    +0.000 OA
BRANCH   7  10
ATOM      9  C   UNL     1       2.162   2.294  17.947  0.00  0.00    +0.000 C 
ATOM     10  O   UNL     1       2.847   3.488  17.557  0.00  0.00    +0.000 OA
ENDBRANCH   7  10
ENDBRANCH   1   7
BRANCH   1  11
ATOM     11  C   UNL     1       4.404   5.670  18.209  0.00  0.00    +0.000 C 
BRANCH  11  12
ATOM     12  C   UNL     1       5.344   4.941  19.174  0.00  0.00    +0.000 C 
BRANCH  12  13
ATOM     13  C   UNL     1       6.662   5.727  19.328  0.00  0.00    +0.000 C 
BRANCH  13  14
ATOM     14  C   UNL     1       7.873   4.940  18.825  0.00  0.00    +0.000 C 
BRANCH  14  15
ATOM     15  N   UNL     1       7.710   4.495  17.455  0.00  0.00    +0.000 N 
ATOM     16  C   UNL     1       7.635   5.395  16.428  0.00  0.00    +0.000 C 
ATOM     17  O   UNL     1       7.677   6.604  16.594  0.00  0.00    +0.000 OA
ATOM     18  H   UNL     1       7.633   3.520  17.220  0.00  0.00    +0.000 HD
BRANCH  16  19
ATOM     19  O   UNL     1       7.504   4.759  15.234  0.00  0.00    +0.000 OA
BRANCH  19  20
ATOM     20  C   UNL     1       6.167   4.413  14.770  0.00  0.00    +0.000 C 
ATOM     21  C   UNL     1       5.254   5.646  14.733  0.00  0.00    +0.000 C 
ATOM     22  C   UNL     1       6.317   3.896  13.328  0.00  0.00    +0.000 C 
ATOM     23  C   UNL     1       5.578   3.273  15.613  0.00  0.00    +0.000 C 
ENDBRANCH  19  20
ENDBRANCH  16  19
ENDBRANCH  14  15
ENDBRANCH  13  14
ENDBRANCH  12  13
ENDBRANCH  11  12
ENDBRANCH   1  11
BRANCH   6  24
ATOM     24  C   UNL     1       2.377   8.183  17.622  0.00  0.00    +0.000 C 
BRANCH  24  25
ATOM     25  C   UNL     1       1.428   9.312  17.966  0.00  0.00    +0.000 A 
ATOM     26  C   UNL     1       0.038   9.167  17.842  0.00  0.00    +0.000 A 
ATOM     27  C   UNL     1      -0.823  10.211  18.200  0.00  0.00    +0.000 A 
ATOM     28  C   UNL     1      -0.312  11.413  18.691  0.00  0.00    +0.000 A 
ATOM     29  C   UNL     1       1.067  11.589  18.760  0.00  0.00    +0.000 A 
ATOM     30  C   UNL     1       1.928  10.543  18.408  0.00  0.00    +0.000 A 
BRANCH  28  31
ATOM     31  O   UNL     1      -1.233  12.367  19.035  0.00  0.00    +0.000 OA
ATOM     32  C   UNL     1      -2.581  11.905  19.079  0.00  0.00    +0.000 C 
ENDBRANCH  28  31
ENDBRANCH  24  25
ENDBRANCH   6  24
TORSDOF 12
ENDMDL
MODEL 6
REMARK VINA RESULT:      -7.1      1.921      2.577
REMARK  Name = 
REMARK  18 active torsions:
REMARK  status: ('A' for Active; 'I' for Inactive)
REMARK    1  A    between atoms: C_1  and  O_2
REMARK    2  A    between atoms: O_2  and  C_3
REMARK    3  A    between atoms: C_3  and  C_5
REMARK    4  A    between atoms: C_5  and  C_6
REMARK    5  A    between atoms: C_6  and  C_7
REMARK    6  A    between atoms: C_7  and  C_8
REMARK    7  A    between atoms: C_8  and  C_9
REMARK    8  A    between atoms: C_9  and  N_10
REMARK    9  A    between atoms: C_11  and  O_13
REMARK   10  A    between atoms: O_13  and  C_14
REMARK   11  A    between atoms: C_14  and  C_15
REMARK   12  A    between atoms: C_14  and  C_16
REMARK   13  A    between atoms: C_14  and  C_17
REMARK   14  A    between atoms: C_18  and  C_19
REMARK   15  A    between atoms: N_22  and  C_23
REMARK   16  A    between atoms: C_23  and  C_24
REMARK   17  A    between atoms: C_27  and  O_28
REMARK   18  A    between atoms: O_28  and  C_29
REMARK                            x       y       z     vdW  Elec       q    Type
REMARK                         _______ _______ _______ _____ _____    ______ ____
ROOT
ATOM      1  C   UNL     1       2.808   4.889  19.208  0.00  0.00    +0.000 C 
ATOM      2  C   UNL     1       2.027   4.273  17.978  0.00  0.00    +0.000 C 
ATOM      3  C   UNL     1       0.883   3.305  18.241  0.00  0.00    +0.000 C 
ATOM      4  C   UNL     1       3.368   3.592  17.637  0.00  0.00    +0.000 C 
ATOM      5  O   UNL     1       3.811   2.955  16.712  0.00  0.00    +0.000 OA
ATOM      6  N   UNL     1       3.927   4.010  18.795  0.00  0.00    +0.000 N 
ENDROOT
BRANCH   1   7
ATOM      7  C   UNL     1       2.120   4.563  20.616  0.00  0.00    +0.000 C 
ATOM      8  O   UNL     1       1.223   5.237  21.127  0.00  0.00    +0.000 OA
BRANCH   7  10
ATOM      9  C   UNL     1       1.677   2.525  21.710  0.00  0.00    +0.000 C 
ATOM     10  O   UNL     1       2.646   3.458  21.225  0.00  0.00    +0.000 OA
ENDBRANCH   7  10
ENDBRANCH   1   7
BRANCH   1  11
ATOM     11  C   UNL     1       3.115   6.404  19.163  0.00  0.00    +0.000 C 
BRANCH  11  12
ATOM     12  C   UNL     1       2.297   7.277  18.207  0.00  0.00    +0.000 C 
BRANCH  12  13
ATOM     13  C   UNL     1       2.592   8.769  18.463  0.00  0.00    +0.000 C 
BRANCH  13  14
ATOM     14  C   UNL     1       1.746   9.691  17.585  0.00  0.00    +0.000 C 
BRANCH  14  15
ATOM     15  N   UNL     1       0.415   9.896  18.125  0.00  0.00    +0.000 N 
ATOM     16  C   UNL     1       0.213  10.715  19.201  0.00  0.00    +0.000 C 
ATOM     17  O   UNL     1       1.117  11.296  19.779  0.00  0.00    +0.000 OA
ATOM     18  H   UNL     1      -0.391   9.436  17.737  0.00  0.00    +0.000 HD
BRANCH  16  19
ATOM     19  O   UNL     1      -1.107  10.775  19.523  0.00  0.00    +0.000 OA
BRANCH  19  20
ATOM     20  C   UNL     1      -1.898  11.890  19.021  0.00  0.00    +0.000 C 
ATOM     21  C   UNL     1      -1.014  12.922  18.307  0.00  0.00    +0.000 C 
ATOM     22  C   UNL     1      -2.875  11.310  17.983  0.00  0.00    +0.000 C 
ATOM     23  C   UNL     1      -2.733  12.515  20.148  0.00  0.00    +0.000 C 
ENDBRANCH  19  20
ENDBRANCH  16  19
ENDBRANCH  14  15
ENDBRANCH  13  14
ENDBRANCH  12  13
ENDBRANCH  11  12
ENDBRANCH   1  11
BRANCH   6  24
ATOM     24  C   UNL     1       5.311   3.966  19.166  0.00  0.00    +0.000 C 
BRANCH  24  25
ATOM     25  C   UNL     1       6.095   5.145  18.627  0.00  0.00    +0.000 A 
ATOM     26  C   UNL     1       5.691   5.830  17.471  0.00  0.00    +0.000 A 
ATOM     27  C   UNL     1       6.411   6.939  17.011  0.00  0.00    +0.000 A 
ATOM     28  C   UNL     1       7.539   7.386  17.700  0.00  0.00    +0.000 A 
ATOM     29  C   UNL     1       7.983   6.677  18.813  0.00  0.00    +0.000 A 
ATOM     30  C   UNL     1       7.261   5.572  19.276  0.00  0.00    +0.000 A 
BRANCH  28  31
ATOM     31  O   UNL     1       8.164   8.491  17.186  0.00  0.00    +0.000 OA
ATOM     32  C   UNL     1       8.445   9.514  18.139  0.00  0.00    +0.000 C 
ENDBRANCH  28  31
ENDBRANCH  24  25
ENDBRANCH   6  24
TORSDOF 12
ENDMDL
MODEL 7
REMARK VINA RESULT:      -7.1      2.708      9.180
REMARK  Name = 
REMARK  18 active torsions:
REMARK  status: ('A' for Active; 'I' for Inactive)
REMARK    1  A    between atoms: C_1  and  O_2
REMARK    2  A    between atoms: O_2  and  C_3
REMARK    3  A    between atoms: C_3  and  C_5
REMARK    4  A    between atoms: C_5  and  C_6
REMARK    5  A    between atoms: C_6  and  C_7
REMARK    6  A    between atoms: C_7  and  C_8
REMARK    7  A    between atoms: C_8  and  C_9
REMARK    8  A    between atoms: C_9  and  N_10
REMARK    9  A    between atoms: C_11  and  O_13
REMARK   10  A    between atoms: O_13  and  C_14
REMARK   11  A    between atoms: C_14  and  C_15
REMARK   12  A    between atoms: C_14  and  C_16
REMARK   13  A    between atoms: C_14  and  C_17
REMARK   14  A    between atoms: C_18  and  C_19
REMARK   15  A    between atoms: N_22  and  C_23
REMARK   16  A    between atoms: C_23  and  C_24
REMARK   17  A    between atoms: C_27  and  O_28
REMARK   18  A    between atoms: O_28  and  C_29
REMARK                            x       y       z     vdW  Elec       q    Type
REMARK                         _______ _______ _______ _____ _____    ______ ____
ROOT
ATOM      1  C   UNL     1       0.299  11.095  20.043  0.00  0.00    +0.000 C 
ATOM      2  C   UNL     1       1.178  12.201  19.331  0.00  0.00    +0.000 C 
ATOM      3  C   UNL     1       2.000  13.153  20.186  0.00  0.00    +0.000 C 
ATOM      4  C   UNL     1      -0.170  12.778  18.855  0.00  0.00    +0.000 C 
ATOM      5  O   UNL     1      -0.527  13.637  18.085  0.00  0.00    +0.000 OA
ATOM      6  N   UNL     1      -0.865  11.911  19.624  0.00  0.00    +0.000 N 
ENDROOT
BRANCH   1   7
ATOM      7  C   UNL     1       0.574  10.990  21.616  0.00  0.00    +0.000 C 
ATOM      8  O   UNL     1       1.400  10.233  22.131  0.00  0.00    +0.000 OA
BRANCH   7  10
ATOM      9  C   UNL     1      -1.200  11.147  23.157  0.00  0.00    +0.000 C 
ATOM     10  O   UNL     1      -0.224  11.817  22.355  0.00  0.00    +0.000 OA
ENDBRANCH   7  10
ENDBRANCH   1   7
BRANCH   1  11
ATOM     11  C   UNL     1       0.345   9.667  19.451  0.00  0.00    +0.000 C 
BRANCH  11  12
ATOM     12  C   UNL     1       1.479   9.325  18.480  0.00  0.00    +0.000 C 
BRANCH  12  13
ATOM     13  C   UNL     1       2.205   8.044  18.939  0.00  0.00    +0.000 C 
BRANCH  13  14
ATOM     14  C   UNL     1       3.245   7.566  17.925  0.00  0.00    +0.000 C 
BRANCH  14  15
ATOM     15  N   UNL     1       3.143   6.143  17.661  0.00  0.00    +0.000 N 
ATOM     16  C   UNL     1       3.973   5.252  18.281  0.00  0.00    +0.000 C 
ATOM     17  O   UNL     1       4.850   5.586  19.062  0.00  0.00    +0.000 OA
ATOM     18  H   UNL     1       2.472   5.773  17.009  0.00  0.00    +0.000 HD
BRANCH  16  19
ATOM     19  O   UNL     1       3.688   3.978  17.902  0.00  0.00    +0.000 OA
BRANCH  19  20
ATOM     20  C   UNL     1       2.812   3.178  18.746  0.00  0.00    +0.000 C 
ATOM     21  C   UNL     1       2.868   3.646  20.207  0.00  0.00    +0.000 C 
ATOM     22  C   UNL     1       1.377   3.402  18.236  0.00  0.00    +0.000 C 
ATOM     23  C   UNL     1       3.130   1.684  18.598  0.00  0.00    +0.000 C 
ENDBRANCH  19  20
ENDBRANCH  16  19
ENDBRANCH  14  15
ENDBRANCH  13  14
ENDBRANCH  12  13
ENDBRANCH  11  12
ENDBRANCH   1  11
BRANCH   6  24
ATOM     24  C   UNL     1      -2.272  11.640  19.588  0.00  0.00    +0.000 C 
BRANCH  24  25
ATOM     25  C   UNL     1      -2.748  11.208  18.217  0.00  0.00    +0.000 A 
ATOM     26  C   UNL     1      -3.948  11.690  17.670  0.00  0.00    +0.000 A 
ATOM     27  C   UNL     1      -4.351  11.306  16.385  0.00  0.00    +0.000 A 
ATOM     28  C   UNL     1      -3.562  10.442  15.624  0.00  0.00    +0.000 A 
ATOM     29  C   UNL     1      -2.401   9.912  16.181  0.00  0.00    +0.000 A 
ATOM     30  C   UNL     1      -1.995  10.300  17.463  0.00  0.00    +0.000 A 
BRANCH  28  31
ATOM     31  O   UNL     1      -4.028  10.142  14.372  0.00  0.00    +0.000 OA
ATOM     32  C   UNL     1      -3.029   9.700  13.455  0.00  0.00    +0.000 C 
ENDBRANCH  28  31
ENDBRANCH  24  25
ENDBRANCH   6  24
TORSDOF 12
ENDMDL
MODEL 8
REMARK VINA RESULT:      -7.1      2.412      3.045
REMARK  Name = 
REMARK  18 active torsions:
REMARK  status: ('A' for Active; 'I' for Inactive)
REMARK    1  A    between atoms: C_1  and  O_2
REMARK    2  A    between atoms: O_2  and  C_3
REMARK    3  A    between atoms: C_3  and  C_5
REMARK    4  A    between atoms: C_5  and  C_6
REMARK    5  A    between atoms: C_6  and  C_7
REMARK    6  A    between atoms: C_7  and  C_8
REMARK    7  A    between atoms: C_8  and  C_9
REMARK    8  A    between atoms: C_9  and  N_10
REMARK    9  A    between atoms: C_11  and  O_13
REMARK   10  A    between atoms: O_13  and  C_14
REMARK   11  A    between atoms: C_14  and  C_15
REMARK   12  A    between atoms: C_14  and  C_16
REMARK   13  A    between atoms: C_14  and  C_17
REMARK   14  A    between atoms: C_18  and  C_19
REMARK   15  A    between atoms: N_22  and  C_23
REMARK   16  A    between atoms: C_23  and  C_24
REMARK   17  A    between atoms: C_27  and  O_28
REMARK   18  A    between atoms: O_28  and  C_29
REMARK                            x       y       z     vdW  Elec       q    Type
REMARK                         _______ _______ _______ _____ _____    ______ ____
ROOT
ATOM      1  C   UNL     1       2.549   4.542  19.125  0.00  0.00    +0.000 C 
ATOM      2  C   UNL     1       1.578   3.764  18.148  0.00  0.00    +0.000 C 
ATOM      3  C   UNL     1       0.370   3.044  18.728  0.00  0.00    +0.000 C 
ATOM      4  C   UNL     1       2.791   2.852  17.880  0.00  0.00    +0.000 C 
ATOM      5  O   UNL     1       3.060   1.964  17.108  0.00  0.00    +0.000 OA
ATOM      6  N   UNL     1       3.514   3.451  18.853  0.00  0.00    +0.000 N 
ENDROOT
BRANCH   1   7
ATOM      7  C   UNL     1       1.986   4.648  20.619  0.00  0.00    +0.000 C 
ATOM      8  O   UNL     1       1.155   5.477  20.994  0.00  0.00    +0.000 OA
BRANCH   7  10
ATOM      9  C   UNL     1       1.677   2.646  21.820  0.00  0.00    +0.000 C 
ATOM     10  O   UNL     1       2.540   3.729  21.465  0.00  0.00    +0.000 OA
ENDBRANCH   7  10
ENDBRANCH   1   7
BRANCH   1  11
ATOM     11  C   UNL     1       3.012   5.951  18.686  0.00  0.00    +0.000 C 
BRANCH  11  12
ATOM     12  C   UNL     1       1.999   6.854  17.976  0.00  0.00    +0.000 C 
BRANCH  12  13
ATOM     13  C   UNL     1       2.246   8.330  18.353  0.00  0.00    +0.000 C 
BRANCH  13  14
ATOM     14  C   UNL     1       1.360   8.793  19.510  0.00  0.00    +0.000 C 
BRANCH  14  15
ATOM     15  N   UNL     1       0.798  10.111  19.279  0.00  0.00    +0.000 N 
ATOM     16  C   UNL     1       0.752  11.040  20.280  0.00  0.00    +0.000 C 
ATOM     17  O   UNL     1       1.148  10.822  21.414  0.00  0.00    +0.000 OA
ATOM     18  H   UNL     1       0.417  10.374  18.386  0.00  0.00    +0.000 HD
BRANCH  16  19
ATOM     19  O   UNL     1       0.207  12.204  19.837  0.00  0.00    +0.000 OA
BRANCH  19  20
ATOM     20  C   UNL     1       1.083  13.346  19.617  0.00  0.00    +0.000 C 
ATOM     21  C   UNL     1       1.790  13.763  20.914  0.00  0.00    +0.000 C 
ATOM     22  C   UNL     1       2.163  12.891  18.618  0.00  0.00    +0.000 C 
ATOM     23  C   UNL     1       0.312  14.506  18.971  0.00  0.00    +0.000 C 
ENDBRANCH  19  20
ENDBRANCH  16  19
ENDBRANCH  14  15
ENDBRANCH  13  14
ENDBRANCH  12  13
ENDBRANCH  11  12
ENDBRANCH   1  11
BRANCH   6  24
ATOM     24  C   UNL     1       4.917   3.314  19.113  0.00  0.00    +0.000 C 
BRANCH  24  25
ATOM     25  C   UNL     1       5.734   4.437  18.510  0.00  0.00    +0.000 A 
ATOM     26  C   UNL     1       5.722   4.696  17.130  0.00  0.00    +0.000 A 
ATOM     27  C   UNL     1       6.456   5.762  16.598  0.00  0.00    +0.000 A 
ATOM     28  C   UNL     1       7.209   6.590  17.432  0.00  0.00    +0.000 A 
ATOM     29  C   UNL     1       7.276   6.305  18.793  0.00  0.00    +0.000 A 
ATOM     30  C   UNL     1       6.538   5.243  19.326  0.00  0.00    +0.000 A 
BRANCH  28  31
ATOM     31  O   UNL     1       7.875   7.619  16.821  0.00  0.00    +0.000 OA
ATOM     32  C   UNL     1       8.068   8.771  17.639  0.00  0.00    +0.000 C 
ENDBRANCH  28  31
ENDBRANCH  24  25
ENDBRANCH   6  24
TORSDOF 12
ENDMDL
MODEL 9
REMARK VINA RESULT:      -7.0      1.457      1.877
REMARK  Name = 
REMARK  18 active torsions:
REMARK  status: ('A' for Active; 'I' for Inactive)
REMARK    1  A    between atoms: C_1  and  O_2
REMARK    2  A    between atoms: O_2  and  C_3
REMARK    3  A    between atoms: C_3  and  C_5
REMARK    4  A    between atoms: C_5  and  C_6
REMARK    5  A    between atoms: C_6  and  C_7
REMARK    6  A    between atoms: C_7  and  C_8
REMARK    7  A    between atoms: C_8  and  C_9
REMARK    8  A    between atoms: C_9  and  N_10
REMARK    9  A    between atoms: C_11  and  O_13
REMARK   10  A    between atoms: O_13  and  C_14
REMARK   11  A    between atoms: C_14  and  C_15
REMARK   12  A    between atoms: C_14  and  C_16
REMARK   13  A    between atoms: C_14  and  C_17
REMARK   14  A    between atoms: C_18  and  C_19
REMARK   15  A    between atoms: N_22  and  C_23
REMARK   16  A    between atoms: C_23  and  C_24
REMARK   17  A    between atoms: C_27  and  O_28
REMARK   18  A    between atoms: O_28  and  C_29
REMARK                            x       y       z     vdW  Elec       q    Type
REMARK                         _______ _______ _______ _____ _____    ______ ____
ROOT
ATOM      1  C   UNL     1       2.196   4.511  18.796  0.00  0.00    +0.000 C 
ATOM      2  C   UNL     1       1.690   3.169  18.128  0.00  0.00    +0.000 C 
ATOM      3  C   UNL     1       0.903   2.177  18.971  0.00  0.00    +0.000 C 
ATOM      4  C   UNL     1       3.187   2.832  17.983  0.00  0.00    +0.000 C 
ATOM      5  O   UNL     1       3.839   1.979  17.430  0.00  0.00    +0.000 OA
ATOM      6  N   UNL     1       3.547   3.911  18.713  0.00  0.00    +0.000 N 
ENDROOT
BRANCH   1   7
ATOM      7  C   UNL     1       1.602   4.746  20.263  0.00  0.00    +0.000 C 
ATOM      8  O   UNL     1       0.475   5.188  20.498  0.00  0.00    +0.000 OA
BRANCH   7  10
ATOM      9  C   UNL     1       2.185   3.214  21.955  0.00  0.00    +0.000 C 
ATOM     10  O   UNL     1       2.485   4.425  21.255  0.00  0.00    +0.000 OA
ENDBRANCH   7  10
ENDBRANCH   1   7
BRANCH   1  11
ATOM     11  C   UNL     1       2.007   5.817  17.988  0.00  0.00    +0.000 C 
BRANCH  11  12
ATOM     12  C   UNL     1       2.514   7.125  18.603  0.00  0.00    +0.000 C 
BRANCH  12  13
ATOM     13  C   UNL     1       1.928   8.332  17.842  0.00  0.00    +0.000 C 
BRANCH  13  14
ATOM     14  C   UNL     1       1.882   9.597  18.701  0.00  0.00    +0.000 C 
BRANCH  14  15
ATOM     15  N   UNL     1       0.597  10.265  18.627  0.00  0.00    +0.000 N 
ATOM     16  C   UNL     1       0.485  11.603  18.884  0.00  0.00    +0.000 C 
ATOM     17  O   UNL     1       1.431  12.304  19.208  0.00  0.00    +0.000 OA
ATOM     18  H   UNL     1      -0.247   9.767  18.399  0.00  0.00    +0.000 HD
BRANCH  16  19
ATOM     19  O   UNL     1      -0.800  12.020  18.737  0.00  0.00    +0.000 OA
BRANCH  19  20
ATOM     20  C   UNL     1      -1.512  12.516  19.906  0.00  0.00    +0.000 C 
ATOM     21  C   UNL     1      -1.263  14.016  20.116  0.00  0.00    +0.000 C 
ATOM     22  C   UNL     1      -3.014  12.324  19.627  0.00  0.00    +0.000 C 
ATOM     23  C   UNL     1      -1.161  11.685  21.148  0.00  0.00    +0.000 C 
ENDBRANCH  19  20
ENDBRANCH  16  19
ENDBRANCH  14  15
ENDBRANCH  13  14
ENDBRANCH  12  13
ENDBRANCH  11  12
ENDBRANCH   1  11
BRANCH   6  24
ATOM     24  C   UNL     1       4.861   4.462  18.874  0.00  0.00    +0.000 C 
BRANCH  24  25
ATOM     25  C   UNL     1       5.546   4.730  17.550  0.00  0.00    +0.000 A 
ATOM     26  C   UNL     1       6.883   4.366  17.327  0.00  0.00    +0.000 A 
ATOM     27  C   UNL     1       7.486   4.591  16.084  0.00  0.00    +0.000 A 
ATOM     28  C   UNL     1       6.765   5.176  15.043  0.00  0.00    +0.000 A 
ATOM     29  C   UNL     1       5.457   5.596  15.272  0.00  0.00    +0.000 A 
ATOM     30  C   UNL     1       4.853   5.366  16.513  0.00  0.00    +0.000 A 
BRANCH  28  31
ATOM     31  O   UNL     1       7.433   5.335  13.858  0.00  0.00    +0.000 OA
ATOM     32  C   UNL     1       7.069   4.406  12.839  0.00  0.00    +0.000 C 
ENDBRANCH  28  31
ENDBRANCH  24  25
ENDBRANCH   6  24
TORSDOF 12
ENDMDL
