MODEL 1
REMARK VINA RESULT:      -7.0      0.000      0.000
REMARK  Name = 
REMARK  3 active torsions:
REMARK  status: ('A' for Active; 'I' for Inactive)
REMARK    1  A    between atoms: C_1  and  C_2
REMARK    2  A    between atoms: C_7  and  C_8
REMARK    3  A    between atoms: C_16  and  C_18
REMARK                            x       y       z     vdW  Elec       q    Type
REMARK                         _______ _______ _______ _____ _____    ______ ____
ROOT
ATOM      1  C   UNL     1       3.706   5.121  17.174  0.00  0.00    +0.000 C 
ATOM      2  C   UNL     1       3.023   5.801  18.325  0.00  0.00    +0.000 A 
ATOM      3  C   UNL     1       2.847   5.135  19.537  0.00  0.00    +0.000 A 
ATOM      4  C   UNL     1       2.220   5.781  20.600  0.00  0.00    +0.000 A 
ATOM      5  C   UNL     1       1.771   7.102  20.458  0.00  0.00    +0.000 A 
ATOM      6  C   UNL     1       1.111   7.754  21.500  0.00  0.00    +0.000 A 
ATOM      7  C   UNL     1       0.668   9.064  21.325  0.00  0.00    +0.000 A 
ATOM      8  C   UNL     1       0.928   9.725  20.116  0.00  0.00    +0.000 A 
ATOM      9  N   UNL     1       0.514  11.056  19.943  0.00  0.00    +0.000 N 
ATOM     10  C   UNL     1       0.206  11.457  18.563  0.00  0.00    +0.000 C 
ATOM     11  C   UNL     1      -1.155  12.147  18.533  0.00  0.00    +0.000 C 
ATOM     12  C   UNL     1      -1.336  13.350  19.462  0.00  0.00    +0.000 C 
ATOM     13  N   UNL     1      -0.102  13.965  19.949  0.00  0.00    +0.000 N 
ATOM     14  C   UNL     1       0.352  15.140  19.337  0.00  0.00    +0.000 C 
ATOM     15  O   UNL     1      -0.293  15.704  18.450  0.00  0.00    +0.000 OA
ATOM     16  C   UNL     1       0.549  13.270  21.075  0.00  0.00    +0.000 C 
ATOM     17  C   UNL     1       1.371  12.034  20.658  0.00  0.00    +0.000 C 
ATOM     18  N   UNL     1       1.557   9.083  19.098  0.00  0.00    +0.000 NA
ATOM     19  C   UNL     1       1.958   7.804  19.253  0.00  0.00    +0.000 A 
ATOM     20  C   UNL     1       2.582   7.131  18.206  0.00  0.00    +0.000 A 
ENDROOT
BRANCH  14  21
ATOM     21  C   UNL     1       1.633  15.781  19.752  0.00  0.00    +0.000 A 
ATOM     22  C   UNL     1       1.590  16.857  20.631  0.00  0.00    +0.000 A 
ATOM     23  N   UNL     1       2.707  17.514  21.042  0.00  0.00    +0.000 NA
ATOM     24  C   UNL     1       3.868  17.055  20.527  0.00  0.00    +0.000 A 
ATOM     25  C   UNL     1       3.916  15.987  19.646  0.00  0.00    +0.000 A 
ATOM     26  N   UNL     1       2.807  15.329  19.231  0.00  0.00    +0.000 NA
ENDBRANCH  14  21
BRANCH   7  27
ATOM     27  C   UNL     1      -0.080   9.683  22.373  0.00  0.00    +0.000 C 
ATOM     28  N   UNL     1      -0.658  10.178  23.254  0.00  0.00    +0.000 NA
ENDBRANCH   7  27
TORSDOF 2
ENDMDL
MODEL 2
REMARK VINA RESULT:      -6.9      5.256     10.375
REMARK  Name = 
REMARK  3 active torsions:
REMARK  status: ('A' for Active; 'I' for Inactive)
REMARK    1  A    between atoms: C_1  and  C_2
REMARK    2  A    between atoms: C_7  and  C_8
REMARK    3  A    between atoms: C_16  and  C_18
REMARK                            x       y       z     vdW  Elec       q    Type
REMARK                         _______ _______ _______ _____ _____    ______ ____
ROOT
ATOM      1  C   UNL     1       0.161  10.606  19.549  0.00  0.00    +0.000 C 
ATOM      2  C   UNL     1       0.797   9.263  19.753  0.00  0.00    +0.000 A 
ATOM      3  C   UNL     1       0.389   8.439  20.803  0.00  0.00    +0.000 A 
ATOM      4  C   UNL     1       0.981   7.191  20.975  0.00  0.00    +0.000 A 
ATOM      5  C   UNL     1       1.982   6.754  20.095  0.00  0.00    +0.000 A 
ATOM      6  C   UNL     1       2.609   5.522  20.271  0.00  0.00    +0.000 A 
ATOM      7  C   UNL     1       3.608   5.121  19.384  0.00  0.00    +0.000 A 
ATOM      8  C   UNL     1       3.939   5.945  18.300  0.00  0.00    +0.000 A 
ATOM      9  N   UNL     1       4.921   5.534  17.383  0.00  0.00    +0.000 N 
ATOM     10  C   UNL     1       5.672   6.610  16.723  0.00  0.00    +0.000 C 
ATOM     11  C   UNL     1       7.166   6.319  16.830  0.00  0.00    +0.000 C 
ATOM     12  C   UNL     1       7.643   4.967  16.295  0.00  0.00    +0.000 C 
ATOM     13  N   UNL     1       6.728   4.293  15.374  0.00  0.00    +0.000 N 
ATOM     14  C   UNL     1       6.983   4.364  13.999  0.00  0.00    +0.000 C 
ATOM     15  O   UNL     1       7.989   4.918  13.550  0.00  0.00    +0.000 OA
ATOM     16  C   UNL     1       5.607   3.577  16.010  0.00  0.00    +0.000 C 
ATOM     17  C   UNL     1       4.443   4.492  16.440  0.00  0.00    +0.000 C 
ATOM     18  N   UNL     1       3.338   7.151  18.139  0.00  0.00    +0.000 NA
ATOM     19  C   UNL     1       2.394   7.557  19.015  0.00  0.00    +0.000 A 
ATOM     20  C   UNL     1       1.790   8.803  18.870  0.00  0.00    +0.000 A 
ENDROOT
BRANCH  14  21
ATOM     21  C   UNL     1       6.054   3.745  13.010  0.00  0.00    +0.000 A 
ATOM     22  C   UNL     1       6.469   2.610  12.322  0.00  0.00    +0.000 A 
ATOM     23  N   UNL     1       5.696   1.996  11.387  0.00  0.00    +0.000 NA
ATOM     24  C   UNL     1       4.496   2.574  11.161  0.00  0.00    +0.000 A 
ATOM     25  C   UNL     1       4.082   3.710  11.839  0.00  0.00    +0.000 A 
ATOM     26  N   UNL     1       4.847   4.327  12.770  0.00  0.00    +0.000 NA
ENDBRANCH  14  21
BRANCH   7  27
ATOM     27  C   UNL     1       4.297   3.894  19.633  0.00  0.00    +0.000 C 
ATOM     28  N   UNL     1       4.895   2.917  19.845  0.00  0.00    +0.000 NA
ENDBRANCH   7  27
TORSDOF 2
ENDMDL
MODEL 3
REMARK VINA RESULT:      -6.8      0.766      1.121
REMARK  Name = 
REMARK  3 active torsions:
REMARK  status: ('A' for Active; 'I' for Inactive)
REMARK    1  A    between atoms: C_1  and  C_2
REMARK    2  A    between atoms: C_7  and  C_8
REMARK    3  A    between atoms: C_16  and  C_18
REMARK                            x       y       z     vdW  Elec       q    Type
REMARK                         _______ _______ _______ _____ _____    ______ ____
ROOT
ATOM      1  C   UNL     1       3.376   5.334  17.509  0.00  0.00    +0.000 C 
ATOM      2  C   UNL     1       2.697   6.096  18.610  0.00  0.00    +0.000 A 
ATOM      3  C   UNL     1       2.382   5.468  19.815  0.00  0.00    +0.000 A 
ATOM      4  C   UNL     1       1.760   6.188  20.831  0.00  0.00    +0.000 A 
ATOM      5  C   UNL     1       1.454   7.546  20.651  0.00  0.00    +0.000 A 
ATOM      6  C   UNL     1       0.802   8.275  21.645  0.00  0.00    +0.000 A 
ATOM      7  C   UNL     1       0.504   9.620  21.431  0.00  0.00    +0.000 A 
ATOM      8  C   UNL     1       0.901  10.234  20.235  0.00  0.00    +0.000 A 
ATOM      9  N   UNL     1       0.633  11.597  20.026  0.00  0.00    +0.000 N 
ATOM     10  C   UNL     1       0.450  12.006  18.627  0.00  0.00    +0.000 C 
ATOM     11  C   UNL     1      -0.830  12.828  18.507  0.00  0.00    +0.000 C 
ATOM     12  C   UNL     1      -0.946  14.056  19.413  0.00  0.00    +0.000 C 
ATOM     13  N   UNL     1       0.312  14.552  19.969  0.00  0.00    +0.000 N 
ATOM     14  C   UNL     1       0.917  15.667  19.376  0.00  0.00    +0.000 C 
ATOM     15  O   UNL     1       0.386  16.280  18.446  0.00  0.00    +0.000 OA
ATOM     16  C   UNL     1       0.821  13.813  21.139  0.00  0.00    +0.000 C 
ATOM     17  C   UNL     1       1.538  12.496  20.784  0.00  0.00    +0.000 C 
ATOM     18  N   UNL     1       1.522   9.518  19.264  0.00  0.00    +0.000 NA
ATOM     19  C   UNL     1       1.784   8.207  19.454  0.00  0.00    +0.000 A 
ATOM     20  C   UNL     1       2.399   7.461  18.452  0.00  0.00    +0.000 A 
ENDROOT
BRANCH  14  21
ATOM     21  C   UNL     1       2.228  16.184  19.864  0.00  0.00    +0.000 A 
ATOM     22  C   UNL     1       3.397  15.660  19.325  0.00  0.00    +0.000 A 
ATOM     23  N   UNL     1       4.634  16.056  19.728  0.00  0.00    +0.000 NA
ATOM     24  C   UNL     1       4.649  16.991  20.703  0.00  0.00    +0.000 A 
ATOM     25  C   UNL     1       3.487  17.512  21.248  0.00  0.00    +0.000 A 
ATOM     26  N   UNL     1       2.253  17.120  20.852  0.00  0.00    +0.000 NA
ENDBRANCH  14  21
BRANCH   7  27
ATOM     27  C   UNL     1      -0.241  10.326  22.426  0.00  0.00    +0.000 C 
ATOM     28  N   UNL     1      -0.880  10.905  23.208  0.00  0.00    +0.000 NA
ENDBRANCH   7  27
TORSDOF 2
ENDMDL
MODEL 4
REMARK VINA RESULT:      -6.8      3.633      5.934
REMARK  Name = 
REMARK  3 active torsions:
REMARK  status: ('A' for Active; 'I' for Inactive)
REMARK    1  A    between atoms: C_1  and  C_2
REMARK    2  A    between atoms: C_7  and  C_8
REMARK    3  A    between atoms: C_16  and  C_18
REMARK                            x       y       z     vdW  Elec       q    Type
REMARK                         _______ _______ _______ _____ _____    ______ ____
ROOT
ATOM      1  C   UNL     1       1.991   5.571  20.778  0.00  0.00    +0.000 C 
ATOM      2  C   UNL     1       1.796   6.932  20.175  0.00  0.00    +0.000 A 
ATOM      3  C   UNL     1       2.400   7.261  18.962  0.00  0.00    +0.000 A 
ATOM      4  C   UNL     1       2.203   8.524  18.409  0.00  0.00    +0.000 A 
ATOM      5  C   UNL     1       1.395   9.466  19.065  0.00  0.00    +0.000 A 
ATOM      6  C   UNL     1       1.214  10.746  18.544  0.00  0.00    +0.000 A 
ATOM      7  C   UNL     1       0.413  11.662  19.224  0.00  0.00    +0.000 A 
ATOM      8  C   UNL     1      -0.235  11.269  20.404  0.00  0.00    +0.000 A 
ATOM      9  N   UNL     1      -1.070  12.176  21.078  0.00  0.00    +0.000 N 
ATOM     10  C   UNL     1      -1.171  11.994  22.533  0.00  0.00    +0.000 C 
ATOM     11  C   UNL     1      -0.939  13.335  23.224  0.00  0.00    +0.000 C 
ATOM     12  C   UNL     1      -1.843  14.494  22.794  0.00  0.00    +0.000 C 
ATOM     13  N   UNL     1      -3.077  14.114  22.108  0.00  0.00    +0.000 N 
ATOM     14  C   UNL     1      -4.275  14.105  22.833  0.00  0.00    +0.000 C 
ATOM     15  O   UNL     1      -4.329  14.473  24.009  0.00  0.00    +0.000 OA
ATOM     16  C   UNL     1      -2.928  13.780  20.679  0.00  0.00    +0.000 C 
ATOM     17  C   UNL     1      -2.388  12.360  20.420  0.00  0.00    +0.000 C 
ATOM     18  N   UNL     1      -0.045  10.027  20.917  0.00  0.00    +0.000 NA
ATOM     19  C   UNL     1       0.756   9.149  20.278  0.00  0.00    +0.000 A 
ATOM     20  C   UNL     1       0.976   7.881  20.811  0.00  0.00    +0.000 A 
ENDROOT
BRANCH  14  21
ATOM     21  C   UNL     1      -5.555  13.671  22.202  0.00  0.00    +0.000 A 
ATOM     22  C   UNL     1      -6.403  14.638  21.675  0.00  0.00    +0.000 A 
ATOM     23  N   UNL     1      -7.599  14.333  21.103  0.00  0.00    +0.000 NA
ATOM     24  C   UNL     1      -7.914  13.020  21.094  0.00  0.00    +0.000 A 
ATOM     25  C   UNL     1      -7.075  12.053  21.624  0.00  0.00    +0.000 A 
ATOM     26  N   UNL     1      -5.884  12.350  22.196  0.00  0.00    +0.000 NA
ENDBRANCH  14  21
BRANCH   7  27
ATOM     27  C   UNL     1       0.309  12.995  18.718  0.00  0.00    +0.000 C 
ATOM     28  N   UNL     1       0.209  14.093  18.345  0.00  0.00    +0.000 NA
ENDBRANCH   7  27
TORSDOF 2
ENDMDL
MODEL 5
REMARK VINA RESULT:      -6.6      1.376      1.514
REMARK  Name = 
REMARK  3 active torsions:
REMARK  status: ('A' for Active; 'I' for Inactive)
REMARK    1  A    between atoms: C_1  and  C_2
REMARK    2  A    between atoms: C_7  and  C_8
REMARK    3  A    between atoms: C_16  and  C_18
REMARK                            x       y       z     vdW  Elec       q    Type
REMARK                         _______ _______ _______ _____ _____    ______ ____
ROOT
ATOM      1  C   UNL     1       4.985   6.239  16.084  0.00  0.00    +0.000 C 
ATOM      2  C   UNL     1       4.095   6.432  17.276  0.00  0.00    +0.000 A 
ATOM      3  C   UNL     1       3.966   5.426  18.234  0.00  0.00    +0.000 A 
ATOM      4  C   UNL     1       3.144   5.622  19.340  0.00  0.00    +0.000 A 
ATOM      5  C   UNL     1       2.447   6.830  19.499  0.00  0.00    +0.000 A 
ATOM      6  C   UNL     1       1.594   7.032  20.583  0.00  0.00    +0.000 A 
ATOM      7  C   UNL     1       0.909   8.239  20.707  0.00  0.00    +0.000 A 
ATOM      8  C   UNL     1       1.120   9.253  19.762  0.00  0.00    +0.000 A 
ATOM      9  N   UNL     1       0.459  10.485  19.899  0.00  0.00    +0.000 N 
ATOM     10  C   UNL     1       0.181  11.205  18.648  0.00  0.00    +0.000 C 
ATOM     11  C   UNL     1      -1.286  11.628  18.628  0.00  0.00    +0.000 C 
ATOM     12  C   UNL     1      -1.776  12.464  19.813  0.00  0.00    +0.000 C 
ATOM     13  N   UNL     1      -0.732  13.118  20.600  0.00  0.00    +0.000 N 
ATOM     14  C   UNL     1      -0.481  14.479  20.387  0.00  0.00    +0.000 C 
ATOM     15  O   UNL     1      -1.158  15.153  19.607  0.00  0.00    +0.000 OA
ATOM     16  C   UNL     1      -0.041  12.253  21.575  0.00  0.00    +0.000 C 
ATOM     17  C   UNL     1       1.043  11.351  20.953  0.00  0.00    +0.000 C 
ATOM     18  N   UNL     1       1.940   9.049  18.701  0.00  0.00    +0.000 NA
ATOM     19  C   UNL     1       2.579   7.868  18.559  0.00  0.00    +0.000 A 
ATOM     20  C   UNL     1       3.403   7.643  17.460  0.00  0.00    +0.000 A 
ENDROOT
BRANCH  14  21
ATOM     21  C   UNL     1       0.609  15.186  21.120  0.00  0.00    +0.000 A 
ATOM     22  C   UNL     1       0.335  15.725  22.372  0.00  0.00    +0.000 A 
ATOM     23  N   UNL     1       1.262  16.405  23.098  0.00  0.00    +0.000 NA
ATOM     24  C   UNL     1       2.472  16.533  22.510  0.00  0.00    +0.000 A 
ATOM     25  C   UNL     1       2.748  16.004  21.260  0.00  0.00    +0.000 A 
ATOM     26  N   UNL     1       1.829  15.327  20.532  0.00  0.00    +0.000 NA
ENDBRANCH  14  21
BRANCH   7  27
ATOM     27  C   UNL     1      -0.027   8.393  21.777  0.00  0.00    +0.000 C 
ATOM     28  N   UNL     1      -0.790   8.561  22.641  0.00  0.00    +0.000 NA
ENDBRANCH   7  27
TORSDOF 2
ENDMDL
MODEL 6
REMARK VINA RESULT:      -6.6      1.150      1.453
REMARK  Name = 
REMARK  3 active torsions:
REMARK  status: ('A' for Active; 'I' for Inactive)
REMARK    1  A    between atoms: C_1  and  C_2
REMARK    2  A    between atoms: C_7  and  C_8
REMARK    3  A    between atoms: C_16  and  C_18
REMARK                            x       y       z     vdW  Elec       q    Type
REMARK                         _______ _______ _______ _____ _____    ______ ____
ROOT
ATOM      1  C   UNL     1       5.027   5.529  16.481  0.00  0.00    +0.000 C 
ATOM      2  C   UNL     1       4.118   5.883  17.621  0.00  0.00    +0.000 A 
ATOM      3  C   UNL     1       3.906   4.981  18.664  0.00  0.00    +0.000 A 
ATOM      4  C   UNL     1       3.067   5.326  19.720  0.00  0.00    +0.000 A 
ATOM      5  C   UNL     1       2.438   6.580  19.744  0.00  0.00    +0.000 A 
ATOM      6  C   UNL     1       1.569   6.930  20.777  0.00  0.00    +0.000 A 
ATOM      7  C   UNL     1       0.953   8.180  20.767  0.00  0.00    +0.000 A 
ATOM      8  C   UNL     1       1.247   9.087  19.739  0.00  0.00    +0.000 A 
ATOM      9  N   UNL     1       0.656  10.361  19.740  0.00  0.00    +0.000 N 
ATOM     10  C   UNL     1       0.453  10.974  18.420  0.00  0.00    +0.000 C 
ATOM     11  C   UNL     1      -0.985  11.474  18.313  0.00  0.00    +0.000 C 
ATOM     12  C   UNL     1      -1.457  12.444  19.400  0.00  0.00    +0.000 C 
ATOM     13  N   UNL     1      -0.399  13.110  20.156  0.00  0.00    +0.000 N 
ATOM     14  C   UNL     1      -0.063  14.429  19.826  0.00  0.00    +0.000 C 
ATOM     15  O   UNL     1      -0.679  15.063  18.966  0.00  0.00    +0.000 OA
ATOM     16  C   UNL     1       0.215  12.305  21.228  0.00  0.00    +0.000 C 
ATOM     17  C   UNL     1       1.261  11.289  20.727  0.00  0.00    +0.000 C 
ATOM     18  N   UNL     1       2.082   8.739  18.728  0.00  0.00    +0.000 NA
ATOM     19  C   UNL     1       2.655   7.516  18.717  0.00  0.00    +0.000 A 
ATOM     20  C   UNL     1       3.493   7.142  17.670  0.00  0.00    +0.000 A 
ENDROOT
BRANCH  14  21
ATOM     21  C   UNL     1       1.046  15.141  20.524  0.00  0.00    +0.000 A 
ATOM     22  C   UNL     1       2.327  15.076  19.987  0.00  0.00    +0.000 A 
ATOM     23  N   UNL     1       3.399  15.676  20.571  0.00  0.00    +0.000 NA
ATOM     24  C   UNL     1       3.135  16.332  21.722  0.00  0.00    +0.000 A 
ATOM     25  C   UNL     1       1.862  16.393  22.265  0.00  0.00    +0.000 A 
ATOM     26  N   UNL     1       0.791  15.797  21.690  0.00  0.00    +0.000 NA
ENDBRANCH  14  21
BRANCH   7  27
ATOM     27  C   UNL     1      -0.000   8.486  21.788  0.00  0.00    +0.000 C 
ATOM     28  N   UNL     1      -0.808   8.728  22.591  0.00  0.00    +0.000 NA
ENDBRANCH   7  27
TORSDOF 2
ENDMDL
MODEL 7
REMARK VINA RESULT:      -6.4      3.814      6.187
REMARK  Name = 
REMARK  3 active torsions:
REMARK  status: ('A' for Active; 'I' for Inactive)
REMARK    1  A    between atoms: C_1  and  C_2
REMARK    2  A    between atoms: C_7  and  C_8
REMARK    3  A    between atoms: C_16  and  C_18
REMARK                            x       y       z     vdW  Elec       q    Type
REMARK                         _______ _______ _______ _____ _____    ______ ____
ROOT
ATOM      1  C   UNL     1       2.695   5.800  20.203  0.00  0.00    +0.000 C 
ATOM      2  C   UNL     1       2.237   7.126  19.669  0.00  0.00    +0.000 A 
ATOM      3  C   UNL     1       2.611   7.541  18.391  0.00  0.00    +0.000 A 
ATOM      4  C   UNL     1       2.172   8.769  17.905  0.00  0.00    +0.000 A 
ATOM      5  C   UNL     1       1.349   9.589  18.692  0.00  0.00    +0.000 A 
ATOM      6  C   UNL     1       0.926  10.837  18.235  0.00  0.00    +0.000 A 
ATOM      7  C   UNL     1       0.117  11.632  19.045  0.00  0.00    +0.000 A 
ATOM      8  C   UNL     1      -0.296  11.148  20.294  0.00  0.00    +0.000 A 
ATOM      9  N   UNL     1      -1.139  11.930  21.102  0.00  0.00    +0.000 N 
ATOM     10  C   UNL     1      -1.004  11.727  22.551  0.00  0.00    +0.000 C 
ATOM     11  C   UNL     1      -0.856  13.082  23.237  0.00  0.00    +0.000 C 
ATOM     12  C   UNL     1      -1.957  14.111  22.970  0.00  0.00    +0.000 C 
ATOM     13  N   UNL     1      -3.215  13.573  22.456  0.00  0.00    +0.000 N 
ATOM     14  C   UNL     1      -4.285  13.398  23.342  0.00  0.00    +0.000 C 
ATOM     15  O   UNL     1      -4.218  13.748  24.522  0.00  0.00    +0.000 OA
ATOM     16  C   UNL     1      -3.231  13.272  21.012  0.00  0.00    +0.000 C 
ATOM     17  C   UNL     1      -2.550  11.939  20.643  0.00  0.00    +0.000 C 
ATOM     18  N   UNL     1       0.128   9.940  20.743  0.00  0.00    +0.000 NA
ATOM     19  C   UNL     1       0.938   9.182  19.974  0.00  0.00    +0.000 A 
ATOM     20  C   UNL     1       1.398   7.952  20.438  0.00  0.00    +0.000 A 
ENDROOT
BRANCH  14  21
ATOM     21  C   UNL     1      -5.574  12.800  22.887  0.00  0.00    +0.000 A 
ATOM     22  C   UNL     1      -6.536  12.480  23.838  0.00  0.00    +0.000 A 
ATOM     23  N   UNL     1      -7.728  11.911  23.514  0.00  0.00    +0.000 NA
ATOM     24  C   UNL     1      -7.909  11.665  22.198  0.00  0.00    +0.000 A 
ATOM     25  C   UNL     1      -6.950  11.976  21.247  0.00  0.00    +0.000 A 
ATOM     26  N   UNL     1      -5.761  12.541  21.564  0.00  0.00    +0.000 NA
ENDBRANCH  14  21
BRANCH   7  27
ATOM     27  C   UNL     1      -0.233  12.942  18.593  0.00  0.00    +0.000 C 
ATOM     28  N   UNL     1      -0.503  14.025  18.263  0.00  0.00    +0.000 NA
ENDBRANCH   7  27
TORSDOF 2
ENDMDL
MODEL 8
REMARK VINA RESULT:      -6.2      4.440      8.598
REMARK  Name = 
REMARK  3 active torsions:
REMARK  status: ('A' for Active; 'I' for Inactive)
REMARK    1  A    between atoms: C_1  and  C_2
REMARK    2  A    between atoms: C_7  and  C_8
REMARK    3  A    between atoms: C_16  and  C_18
REMARK                            x       y       z     vdW  Elec       q    Type
REMARK                         _______ _______ _______ _____ _____    ______ ____
ROOT
ATOM      1  C   UNL     1       4.453   3.128  10.358  0.00  0.00    +0.000 C 
ATOM      2  C   UNL     1       5.218   3.465  11.604  0.00  0.00    +0.000 A 
ATOM      3  C   UNL     1       6.603   3.626  11.562  0.00  0.00    +0.000 A 
ATOM      4  C   UNL     1       7.300   3.949  12.723  0.00  0.00    +0.000 A 
ATOM      5  C   UNL     1       6.614   4.118  13.936  0.00  0.00    +0.000 A 
ATOM      6  C   UNL     1       7.298   4.409  15.115  0.00  0.00    +0.000 A 
ATOM      7  C   UNL     1       6.589   4.562  16.306  0.00  0.00    +0.000 A 
ATOM      8  C   UNL     1       5.191   4.464  16.293  0.00  0.00    +0.000 A 
ATOM      9  N   UNL     1       4.466   4.650  17.482  0.00  0.00    +0.000 N 
ATOM     10  C   UNL     1       3.191   3.925  17.576  0.00  0.00    +0.000 C 
ATOM     11  C   UNL     1       3.132   3.182  18.907  0.00  0.00    +0.000 C 
ATOM     12  C   UNL     1       3.331   4.021  20.172  0.00  0.00    +0.000 C 
ATOM     13  N   UNL     1       3.132   5.461  20.013  0.00  0.00    +0.000 N 
ATOM     14  C   UNL     1       1.920   6.024  20.433  0.00  0.00    +0.000 C 
ATOM     15  O   UNL     1       1.049   5.353  20.992  0.00  0.00    +0.000 OA
ATOM     16  C   UNL     1       4.267   6.194  19.422  0.00  0.00    +0.000 C 
ATOM     17  C   UNL     1       4.359   6.074  17.888  0.00  0.00    +0.000 C 
ATOM     18  N   UNL     1       4.529   4.167  15.147  0.00  0.00    +0.000 NA
ATOM     19  C   UNL     1       5.215   3.985  13.999  0.00  0.00    +0.000 A 
ATOM     20  C   UNL     1       4.545   3.656  12.824  0.00  0.00    +0.000 A 
ENDROOT
BRANCH  14  21
ATOM     21  C   UNL     1       1.638   7.476  20.244  0.00  0.00    +0.000 A 
ATOM     22  C   UNL     1       1.238   8.228  21.342  0.00  0.00    +0.000 A 
ATOM     23  N   UNL     1       0.938   9.552  21.256  0.00  0.00    +0.000 NA
ATOM     24  C   UNL     1       1.044  10.086  20.019  0.00  0.00    +0.000 A 
ATOM     25  C   UNL     1       1.436   9.339  18.921  0.00  0.00    +0.000 A 
ATOM     26  N   UNL     1       1.734   8.021  19.000  0.00  0.00    +0.000 NA
ENDBRANCH  14  21
BRANCH   7  27
ATOM     27  C   UNL     1       7.316   4.774  17.518  0.00  0.00    +0.000 C 
ATOM     28  N   UNL     1       7.886   4.914  18.524  0.00  0.00    +0.000 NA
ENDBRANCH   7  27
TORSDOF 2
ENDMDL
MODEL 9
REMARK VINA RESULT:      -6.2      3.060      5.332
REMARK  Name = 
REMARK  3 active torsions:
REMARK  status: ('A' for Active; 'I' for Inactive)
REMARK    1  A    between atoms: C_1  and  C_2
REMARK    2  A    between atoms: C_7  and  C_8
REMARK    3  A    between atoms: C_16  and  C_18
REMARK                            x       y       z     vdW  Elec       q    Type
REMARK                         _______ _______ _______ _____ _____    ______ ____
ROOT
ATOM      1  C   UNL     1       2.275   3.323  21.455  0.00  0.00    +0.000 C 
ATOM      2  C   UNL     1       2.422   4.572  20.635  0.00  0.00    +0.000 A 
ATOM      3  C   UNL     1       3.354   4.633  19.600  0.00  0.00    +0.000 A 
ATOM      4  C   UNL     1       3.474   5.794  18.841  0.00  0.00    +0.000 A 
ATOM      5  C   UNL     1       2.655   6.902  19.110  0.00  0.00    +0.000 A 
ATOM      6  C   UNL     1       2.783   8.085  18.382  0.00  0.00    +0.000 A 
ATOM      7  C   UNL     1       1.961   9.171  18.679  0.00  0.00    +0.000 A 
ATOM      8  C   UNL     1       0.987   9.046  19.679  0.00  0.00    +0.000 A 
ATOM      9  N   UNL     1       0.133  10.125  19.962  0.00  0.00    +0.000 N 
ATOM     10  C   UNL     1      -0.361  10.205  21.344  0.00  0.00    +0.000 C 
ATOM     11  C   UNL     1      -0.141  11.620  21.874  0.00  0.00    +0.000 C 
ATOM     12  C   UNL     1      -0.744  12.762  21.053  0.00  0.00    +0.000 C 
ATOM     13  N   UNL     1      -1.799  12.380  20.116  0.00  0.00    +0.000 N 
ATOM     14  C   UNL     1      -3.134  12.602  20.477  0.00  0.00    +0.000 C 
ATOM     15  O   UNL     1      -3.439  13.171  21.528  0.00  0.00    +0.000 OA
ATOM     16  C   UNL     1      -1.333  11.795  18.845  0.00  0.00    +0.000 C 
ATOM     17  C   UNL     1      -0.936  10.309  18.949  0.00  0.00    +0.000 C 
ATOM     18  N   UNL     1       0.874   7.899  20.395  0.00  0.00    +0.000 NA
ATOM     19  C   UNL     1       1.690   6.856  20.133  0.00  0.00    +0.000 A 
ATOM     20  C   UNL     1       1.597   5.685  20.879  0.00  0.00    +0.000 A 
ENDROOT
BRANCH  14  21
ATOM     21  C   UNL     1      -4.254  12.181  19.587  0.00  0.00    +0.000 A 
ATOM     22  C   UNL     1      -5.539  12.115  20.113  0.00  0.00    +0.000 A 
ATOM     23  N   UNL     1      -6.613  11.720  19.379  0.00  0.00    +0.000 NA
ATOM     24  C   UNL     1      -6.343  11.380  18.100  0.00  0.00    +0.000 A 
ATOM     25  C   UNL     1      -5.063  11.438  17.573  0.00  0.00    +0.000 A 
ATOM     26  N   UNL     1      -3.989  11.830  18.298  0.00  0.00    +0.000 NA
ENDBRANCH  14  21
BRANCH   7  27
ATOM     27  C   UNL     1       2.167  10.401  17.981  0.00  0.00    +0.000 C 
ATOM     28  N   UNL     1       2.313  11.424  17.443  0.00  0.00    +0.000 NA
ENDBRANCH   7  27
TORSDOF 2
ENDMDL
