MODEL 1
REMARK VINA RESULT:      -7.6      0.000      0.000
REMARK  Name = 
REMARK  5 active torsions:
REMARK  status: ('A' for Active; 'I' for Inactive)
REMARK    1  A    between atoms: C_1  and  C_2
REMARK    2  A    between atoms: C_6  and  C_7
REMARK    3  A    between atoms: C_11  and  C_12
REMARK    4  A    between atoms: N_13  and  C_14
REMARK    5  A    between atoms: C_19  and  C_20
REMARK                            x       y       z     vdW  Elec       q    Type
REMARK                         _______ _______ _______ _____ _____    ______ ____
ROOT
ATOM      1  C   UNL     1       6.835   4.659  15.982  0.00  0.00    +0.000 C 
ATOM      2  O   UNL     1       7.910   4.896  16.544  0.00  0.00    +0.000 OA
ATOM      3  N   UNL     1       5.602   4.566  16.645  0.00  0.00    +0.000 N 
ATOM      4  C   UNL     1       4.466   3.936  16.164  0.00  0.00    +0.000 A 
ATOM      5  C   UNL     1       3.429   4.111  16.990  0.00  0.00    +0.000 A 
ATOM      6  C   UNL     1       2.072   3.544  16.757  0.00  0.00    +0.000 C 
ATOM      7  N   UNL     1       3.819   4.911  18.069  0.00  0.00    +0.000 N 
ATOM      8  C   UNL     1       5.270   5.062  17.978  0.00  0.00    +0.000 A 
ATOM      9  S   UNL     1       6.347   5.498  19.181  0.00  0.00    +0.000 S 
ENDROOT
BRANCH   1  15
ATOM     10  C   UNL     1       5.406   2.377  11.692  0.00  0.00    +0.000 C 
ATOM     11  C   UNL     1       6.216   3.415  12.415  0.00  0.00    +0.000 A 
ATOM     12  C   UNL     1       7.072   4.268  11.710  0.00  0.00    +0.000 A 
ATOM     13  C   UNL     1       7.826   5.227  12.386  0.00  0.00    +0.000 A 
ATOM     14  C   UNL     1       7.748   5.320  13.775  0.00  0.00    +0.000 A 
ATOM     15  C   UNL     1       6.911   4.463  14.502  0.00  0.00    +0.000 A 
ATOM     16  C   UNL     1       6.116   3.539  13.808  0.00  0.00    +0.000 A 
ENDBRANCH   1  15
BRANCH   7  17
ATOM     17  C   UNL     1       3.016   5.396  19.151  0.00  0.00    +0.000 A 
ATOM     18  C   UNL     1       2.704   6.767  19.198  0.00  0.00    +0.000 A 
ATOM     19  C   UNL     1       1.907   7.312  20.207  0.00  0.00    +0.000 A 
ATOM     20  C   UNL     1       1.367   6.488  21.181  0.00  0.00    +0.000 A 
ATOM     21  C   UNL     1       1.672   5.131  21.173  0.00  0.00    +0.000 A 
ATOM     22  C   UNL     1       2.532   4.573  20.201  0.00  0.00    +0.000 A 
ATOM     23  C   UNL     1       2.964   3.148  20.447  0.00  0.00    +0.000 C 
ENDBRANCH   7  17
TORSDOF 2
ENDMDL
MODEL 2
REMARK VINA RESULT:      -7.6      4.870      7.048
REMARK  Name = 
REMARK  5 active torsions:
REMARK  status: ('A' for Active; 'I' for Inactive)
REMARK    1  A    between atoms: C_1  and  C_2
REMARK    2  A    between atoms: C_6  and  C_7
REMARK    3  A    between atoms: C_11  and  C_12
REMARK    4  A    between atoms: N_13  and  C_14
REMARK    5  A    between atoms: C_19  and  C_20
REMARK                            x       y       z     vdW  Elec       q    Type
REMARK                         _______ _______ _______ _____ _____    ______ ____
ROOT
ATOM      1  C   UNL     1       2.750   7.197  18.630  0.00  0.00    +0.000 C 
ATOM      2  O   UNL     1       3.450   7.599  17.694  0.00  0.00    +0.000 OA
ATOM      3  N   UNL     1       1.914   8.020  19.400  0.00  0.00    +0.000 N 
ATOM      4  C   UNL     1       1.427   7.728  20.663  0.00  0.00    +0.000 A 
ATOM      5  C   UNL     1       0.578   8.672  21.084  0.00  0.00    +0.000 A 
ATOM      6  C   UNL     1      -0.103   8.651  22.408  0.00  0.00    +0.000 C 
ATOM      7  N   UNL     1       0.426   9.643  20.089  0.00  0.00    +0.000 N 
ATOM      8  C   UNL     1       1.425   9.354  19.063  0.00  0.00    +0.000 A 
ATOM      9  S   UNL     1       2.039  10.380  17.892  0.00  0.00    +0.000 S 
ENDROOT
BRANCH   1  15
ATOM     10  C   UNL     1       0.785   2.531  18.747  0.00  0.00    +0.000 C 
ATOM     11  C   UNL     1       1.940   3.470  18.950  0.00  0.00    +0.000 A 
ATOM     12  C   UNL     1       3.173   2.993  19.406  0.00  0.00    +0.000 A 
ATOM     13  C   UNL     1       4.241   3.869  19.597  0.00  0.00    +0.000 A 
ATOM     14  C   UNL     1       4.073   5.233  19.359  0.00  0.00    +0.000 A 
ATOM     15  C   UNL     1       2.841   5.734  18.920  0.00  0.00    +0.000 A 
ATOM     16  C   UNL     1       1.790   4.837  18.678  0.00  0.00    +0.000 A 
ENDBRANCH   1  15
BRANCH   7  17
ATOM     17  C   UNL     1      -0.430  10.791  20.092  0.00  0.00    +0.000 A 
ATOM     18  C   UNL     1      -0.264  11.753  21.106  0.00  0.00    +0.000 A 
ATOM     19  C   UNL     1      -1.044  12.910  21.165  0.00  0.00    +0.000 A 
ATOM     20  C   UNL     1      -1.990  13.156  20.183  0.00  0.00    +0.000 A 
ATOM     21  C   UNL     1      -2.191  12.215  19.178  0.00  0.00    +0.000 A 
ATOM     22  C   UNL     1      -1.461  11.007  19.141  0.00  0.00    +0.000 A 
ATOM     23  C   UNL     1      -1.941   9.980  18.144  0.00  0.00    +0.000 C 
ENDBRANCH   7  17
TORSDOF 2
ENDMDL
MODEL 3
REMARK VINA RESULT:      -7.4      5.385      7.618
REMARK  Name = 
REMARK  5 active torsions:
REMARK  status: ('A' for Active; 'I' for Inactive)
REMARK    1  A    between atoms: C_1  and  C_2
REMARK    2  A    between atoms: C_6  and  C_7
REMARK    3  A    between atoms: C_11  and  C_12
REMARK    4  A    between atoms: N_13  and  C_14
REMARK    5  A    between atoms: C_19  and  C_20
REMARK                            x       y       z     vdW  Elec       q    Type
REMARK                         _______ _______ _______ _____ _____    ______ ____
ROOT
ATOM      1  C   UNL     1       2.303   6.630  19.273  0.00  0.00    +0.000 C 
ATOM      2  O   UNL     1       3.091   6.686  18.322  0.00  0.00    +0.000 OA
ATOM      3  N   UNL     1       1.690   7.749  19.855  0.00  0.00    +0.000 N 
ATOM      4  C   UNL     1       1.132   7.802  21.121  0.00  0.00    +0.000 A 
ATOM      5  C   UNL     1       0.539   8.982  21.340  0.00  0.00    +0.000 A 
ATOM      6  C   UNL     1      -0.140   9.351  22.613  0.00  0.00    +0.000 C 
ATOM      7  N   UNL     1       0.643   9.778  20.195  0.00  0.00    +0.000 N 
ATOM      8  C   UNL     1       1.551   9.085  19.282  0.00  0.00    +0.000 A 
ATOM      9  S   UNL     1       2.412   9.718  17.995  0.00  0.00    +0.000 S 
ENDROOT
BRANCH   1  15
ATOM     10  C   UNL     1       0.602   1.891  18.729  0.00  0.00    +0.000 C 
ATOM     11  C   UNL     1       1.253   2.960  19.559  0.00  0.00    +0.000 A 
ATOM     12  C   UNL     1       1.649   2.697  20.874  0.00  0.00    +0.000 A 
ATOM     13  C   UNL     1       2.250   3.695  21.643  0.00  0.00    +0.000 A 
ATOM     14  C   UNL     1       2.432   4.970  21.108  0.00  0.00    +0.000 A 
ATOM     15  C   UNL     1       2.025   5.259  19.799  0.00  0.00    +0.000 A 
ATOM     16  C   UNL     1       1.473   4.235  19.016  0.00  0.00    +0.000 A 
ENDBRANCH   1  15
BRANCH   7  17
ATOM     17  C   UNL     1       0.099  11.083  19.968  0.00  0.00    +0.000 A 
ATOM     18  C   UNL     1       0.624  12.168  20.695  0.00  0.00    +0.000 A 
ATOM     19  C   UNL     1       0.163  13.474  20.514  0.00  0.00    +0.000 A 
ATOM     20  C   UNL     1      -0.815  13.736  19.569  0.00  0.00    +0.000 A 
ATOM     21  C   UNL     1      -1.368  12.682  18.848  0.00  0.00    +0.000 A 
ATOM     22  C   UNL     1      -0.964  11.346  19.066  0.00  0.00    +0.000 A 
ATOM     23  C   UNL     1      -1.804  10.288  18.394  0.00  0.00    +0.000 C 
ENDBRANCH   7  17
TORSDOF 2
ENDMDL
MODEL 4
REMARK VINA RESULT:      -7.4      0.370      1.501
REMARK  Name = 
REMARK  5 active torsions:
REMARK  status: ('A' for Active; 'I' for Inactive)
REMARK    1  A    between atoms: C_1  and  C_2
REMARK    2  A    between atoms: C_6  and  C_7
REMARK    3  A    between atoms: C_11  and  C_12
REMARK    4  A    between atoms: N_13  and  C_14
REMARK    5  A    between atoms: C_19  and  C_20
REMARK                            x       y       z     vdW  Elec       q    Type
REMARK                         _______ _______ _______ _____ _____    ______ ____
ROOT
ATOM      1  C   UNL     1       6.839   4.788  15.858  0.00  0.00    +0.000 C 
ATOM      2  O   UNL     1       7.906   5.099  16.398  0.00  0.00    +0.000 OA
ATOM      3  N   UNL     1       5.616   4.669  16.536  0.00  0.00    +0.000 N 
ATOM      4  C   UNL     1       4.507   3.968  16.094  0.00  0.00    +0.000 A 
ATOM      5  C   UNL     1       3.469   4.131  16.923  0.00  0.00    +0.000 A 
ATOM      6  C   UNL     1       2.138   3.494  16.728  0.00  0.00    +0.000 C 
ATOM      7  N   UNL     1       3.831   4.996  17.961  0.00  0.00    +0.000 N 
ATOM      8  C   UNL     1       5.272   5.209  17.848  0.00  0.00    +0.000 A 
ATOM      9  S   UNL     1       6.337   5.748  19.021  0.00  0.00    +0.000 S 
ENDROOT
BRANCH   1  15
ATOM     10  C   UNL     1       5.407   2.322  11.672  0.00  0.00    +0.000 C 
ATOM     11  C   UNL     1       6.216   3.392  12.348  0.00  0.00    +0.000 A 
ATOM     12  C   UNL     1       7.068   4.216  11.606  0.00  0.00    +0.000 A 
ATOM     13  C   UNL     1       7.821   5.205  12.239  0.00  0.00    +0.000 A 
ATOM     14  C   UNL     1       7.745   5.358  13.623  0.00  0.00    +0.000 A 
ATOM     15  C   UNL     1       6.912   4.530  14.387  0.00  0.00    +0.000 A 
ATOM     16  C   UNL     1       6.119   3.576  13.735  0.00  0.00    +0.000 A 
ENDBRANCH   1  15
BRANCH   7  17
ATOM     17  C   UNL     1       3.014   5.492  19.028  0.00  0.00    +0.000 A 
ATOM     18  C   UNL     1       2.602   4.598  20.033  0.00  0.00    +0.000 A 
ATOM     19  C   UNL     1       1.824   5.009  21.118  0.00  0.00    +0.000 A 
ATOM     20  C   UNL     1       1.468   6.341  21.246  0.00  0.00    +0.000 A 
ATOM     21  C   UNL     1       1.844   7.247  20.259  0.00  0.00    +0.000 A 
ATOM     22  C   UNL     1       2.571   6.837  19.119  0.00  0.00    +0.000 A 
ATOM     23  C   UNL     1       2.707   7.865  18.022  0.00  0.00    +0.000 C 
ENDBRANCH   7  17
TORSDOF 2
ENDMDL
MODEL 5
REMARK VINA RESULT:      -7.4      4.907      7.430
REMARK  Name = 
REMARK  5 active torsions:
REMARK  status: ('A' for Active; 'I' for Inactive)
REMARK    1  A    between atoms: C_1  and  C_2
REMARK    2  A    between atoms: C_6  and  C_7
REMARK    3  A    between atoms: C_11  and  C_12
REMARK    4  A    between atoms: N_13  and  C_14
REMARK    5  A    between atoms: C_19  and  C_20
REMARK                            x       y       z     vdW  Elec       q    Type
REMARK                         _______ _______ _______ _____ _____    ______ ____
ROOT
ATOM      1  C   UNL     1       2.423   6.818  18.709  0.00  0.00    +0.000 C 
ATOM      2  O   UNL     1       3.206   7.045  17.780  0.00  0.00    +0.000 OA
ATOM      3  N   UNL     1       1.770   7.813  19.451  0.00  0.00    +0.000 N 
ATOM      4  C   UNL     1       1.213   7.655  20.709  0.00  0.00    +0.000 A 
ATOM      5  C   UNL     1       0.577   8.765  21.101  0.00  0.00    +0.000 A 
ATOM      6  C   UNL     1      -0.112   8.913  22.412  0.00  0.00    +0.000 C 
ATOM      7  N   UNL     1       0.650   9.727  20.089  0.00  0.00    +0.000 N 
ATOM      8  C   UNL     1       1.580   9.214  19.086  0.00  0.00    +0.000 A 
ATOM      9  S   UNL     1       2.415  10.064  17.911  0.00  0.00    +0.000 S 
ENDROOT
BRANCH   1  15
ATOM     10  C   UNL     1       2.241   2.914  21.931  0.00  0.00    +0.000 C 
ATOM     11  C   UNL     1       2.059   3.483  20.553  0.00  0.00    +0.000 A 
ATOM     12  C   UNL     1       1.641   2.667  19.496  0.00  0.00    +0.000 A 
ATOM     13  C   UNL     1       1.478   3.199  18.217  0.00  0.00    +0.000 A 
ATOM     14  C   UNL     1       1.759   4.544  17.982  0.00  0.00    +0.000 A 
ATOM     15  C   UNL     1       2.196   5.374  19.022  0.00  0.00    +0.000 A 
ATOM     16  C   UNL     1       2.305   4.843  20.315  0.00  0.00    +0.000 A 
ENDBRANCH   1  15
BRANCH   7  17
ATOM     17  C   UNL     1       0.057  11.031  20.060  0.00  0.00    +0.000 A 
ATOM     18  C   UNL     1       0.574  12.026  20.910  0.00  0.00    +0.000 A 
ATOM     19  C   UNL     1       0.066  13.327  20.924  0.00  0.00    +0.000 A 
ATOM     20  C   UNL     1      -0.953  13.679  20.055  0.00  0.00    +0.000 A 
ATOM     21  C   UNL     1      -1.499  12.713  19.214  0.00  0.00    +0.000 A 
ATOM     22  C   UNL     1      -1.046  11.375  19.236  0.00  0.00    +0.000 A 
ATOM     23  C   UNL     1      -1.876  10.388  18.452  0.00  0.00    +0.000 C 
ENDBRANCH   7  17
TORSDOF 2
ENDMDL
MODEL 6
REMARK VINA RESULT:      -7.3      5.092      7.480
REMARK  Name = 
REMARK  5 active torsions:
REMARK  status: ('A' for Active; 'I' for Inactive)
REMARK    1  A    between atoms: C_1  and  C_2
REMARK    2  A    between atoms: C_6  and  C_7
REMARK    3  A    between atoms: C_11  and  C_12
REMARK    4  A    between atoms: N_13  and  C_14
REMARK    5  A    between atoms: C_19  and  C_20
REMARK                            x       y       z     vdW  Elec       q    Type
REMARK                         _______ _______ _______ _____ _____    ______ ____
ROOT
ATOM      1  C   UNL     1       2.506   6.709  19.112  0.00  0.00    +0.000 C 
ATOM      2  O   UNL     1       3.181   6.845  18.086  0.00  0.00    +0.000 OA
ATOM      3  N   UNL     1       1.850   7.761  19.769  0.00  0.00    +0.000 N 
ATOM      4  C   UNL     1       1.424   7.755  21.087  0.00  0.00    +0.000 A 
ATOM      5  C   UNL     1       0.745   8.870  21.381  0.00  0.00    +0.000 A 
ATOM      6  C   UNL     1       0.169   9.166  22.722  0.00  0.00    +0.000 C 
ATOM      7  N   UNL     1       0.652   9.676  20.242  0.00  0.00    +0.000 N 
ATOM      8  C   UNL     1       1.523   9.079  19.232  0.00  0.00    +0.000 A 
ATOM      9  S   UNL     1       2.180   9.797  17.871  0.00  0.00    +0.000 S 
ENDROOT
BRANCH   1  15
ATOM     10  C   UNL     1       4.516   2.172  20.124  0.00  0.00    +0.000 C 
ATOM     11  C   UNL     1       3.366   3.136  20.184  0.00  0.00    +0.000 A 
ATOM     12  C   UNL     1       2.154   2.763  20.773  0.00  0.00    +0.000 A 
ATOM     13  C   UNL     1       1.087   3.660  20.822  0.00  0.00    +0.000 A 
ATOM     14  C   UNL     1       1.219   4.928  20.257  0.00  0.00    +0.000 A 
ATOM     15  C   UNL     1       2.418   5.316  19.645  0.00  0.00    +0.000 A 
ATOM     16  C   UNL     1       3.502   4.426  19.650  0.00  0.00    +0.000 A 
ENDBRANCH   1  15
BRANCH   7  17
ATOM     17  C   UNL     1      -0.037  10.922  20.090  0.00  0.00    +0.000 A 
ATOM     18  C   UNL     1       0.338  12.004  20.908  0.00  0.00    +0.000 A 
ATOM     19  C   UNL     1      -0.270  13.257  20.806  0.00  0.00    +0.000 A 
ATOM     20  C   UNL     1      -1.248  13.473  19.849  0.00  0.00    +0.000 A 
ATOM     21  C   UNL     1      -1.655  12.418  19.038  0.00  0.00    +0.000 A 
ATOM     22  C   UNL     1      -1.101  11.126  19.174  0.00  0.00    +0.000 A 
ATOM     23  C   UNL     1      -1.794  10.030  18.401  0.00  0.00    +0.000 C 
ENDBRANCH   7  17
TORSDOF 2
ENDMDL
MODEL 7
REMARK VINA RESULT:      -7.3      0.798      1.660
REMARK  Name = 
REMARK  5 active torsions:
REMARK  status: ('A' for Active; 'I' for Inactive)
REMARK    1  A    between atoms: C_1  and  C_2
REMARK    2  A    between atoms: C_6  and  C_7
REMARK    3  A    between atoms: C_11  and  C_12
REMARK    4  A    between atoms: N_13  and  C_14
REMARK    5  A    between atoms: C_19  and  C_20
REMARK                            x       y       z     vdW  Elec       q    Type
REMARK                         _______ _______ _______ _____ _____    ______ ____
ROOT
ATOM      1  C   UNL     1       6.877   4.770  15.942  0.00  0.00    +0.000 C 
ATOM      2  O   UNL     1       7.821   5.402  16.428  0.00  0.00    +0.000 OA
ATOM      3  N   UNL     1       5.812   4.246  16.689  0.00  0.00    +0.000 N 
ATOM      4  C   UNL     1       4.962   3.229  16.288  0.00  0.00    +0.000 A 
ATOM      5  C   UNL     1       3.989   3.029  17.184  0.00  0.00    +0.000 A 
ATOM      6  C   UNL     1       2.926   1.996  17.046  0.00  0.00    +0.000 C 
ATOM      7  N   UNL     1       4.123   3.945  18.233  0.00  0.00    +0.000 N 
ATOM      8  C   UNL     1       5.406   4.619  18.041  0.00  0.00    +0.000 A 
ATOM      9  S   UNL     1       6.320   5.454  19.167  0.00  0.00    +0.000 S 
ENDROOT
BRANCH   1  15
ATOM     10  C   UNL     1       5.310   2.555  11.666  0.00  0.00    +0.000 C 
ATOM     11  C   UNL     1       6.165   3.562  12.380  0.00  0.00    +0.000 A 
ATOM     12  C   UNL     1       7.039   4.388  11.666  0.00  0.00    +0.000 A 
ATOM     13  C   UNL     1       7.835   5.319  12.334  0.00  0.00    +0.000 A 
ATOM     14  C   UNL     1       7.780   5.409  13.724  0.00  0.00    +0.000 A 
ATOM     15  C   UNL     1       6.925   4.578  14.460  0.00  0.00    +0.000 A 
ATOM     16  C   UNL     1       6.090   3.684  13.775  0.00  0.00    +0.000 A 
ENDBRANCH   1  15
BRANCH   7  17
ATOM     17  C   UNL     1       3.269   4.127  19.367  0.00  0.00    +0.000 A 
ATOM     18  C   UNL     1       3.149   3.077  20.297  0.00  0.00    +0.000 A 
ATOM     19  C   UNL     1       2.354   3.185  21.440  0.00  0.00    +0.000 A 
ATOM     20  C   UNL     1       1.684   4.368  21.705  0.00  0.00    +0.000 A 
ATOM     21  C   UNL     1       1.767   5.419  20.796  0.00  0.00    +0.000 A 
ATOM     22  C   UNL     1       2.510   5.303  19.600  0.00  0.00    +0.000 A 
ATOM     23  C   UNL     1       2.323   6.419  18.601  0.00  0.00    +0.000 C 
ENDBRANCH   7  17
TORSDOF 2
ENDMDL
MODEL 8
REMARK VINA RESULT:      -7.2      4.860      7.055
REMARK  Name = 
REMARK  5 active torsions:
REMARK  status: ('A' for Active; 'I' for Inactive)
REMARK    1  A    between atoms: C_1  and  C_2
REMARK    2  A    between atoms: C_6  and  C_7
REMARK    3  A    between atoms: C_11  and  C_12
REMARK    4  A    between atoms: N_13  and  C_14
REMARK    5  A    between atoms: C_19  and  C_20
REMARK                            x       y       z     vdW  Elec       q    Type
REMARK                         _______ _______ _______ _____ _____    ______ ____
ROOT
ATOM      1  C   UNL     1       2.836   7.129  18.572  0.00  0.00    +0.000 C 
ATOM      2  O   UNL     1       3.551   7.491  17.631  0.00  0.00    +0.000 OA
ATOM      3  N   UNL     1       2.002   7.988  19.304  0.00  0.00    +0.000 N 
ATOM      4  C   UNL     1       1.497   7.744  20.571  0.00  0.00    +0.000 A 
ATOM      5  C   UNL     1       0.655   8.712  20.951  0.00  0.00    +0.000 A 
ATOM      6  C   UNL     1      -0.040   8.744  22.267  0.00  0.00    +0.000 C 
ATOM      7  N   UNL     1       0.527   9.651  19.922  0.00  0.00    +0.000 N 
ATOM      8  C   UNL     1       1.534   9.316  18.918  0.00  0.00    +0.000 A 
ATOM      9  S   UNL     1       2.174  10.293  17.720  0.00  0.00    +0.000 S 
ENDROOT
BRANCH   1  15
ATOM     10  C   UNL     1       0.820   2.488  18.793  0.00  0.00    +0.000 C 
ATOM     11  C   UNL     1       1.979   3.422  18.993  0.00  0.00    +0.000 A 
ATOM     12  C   UNL     1       3.196   2.948  19.495  0.00  0.00    +0.000 A 
ATOM     13  C   UNL     1       4.268   3.821  19.683  0.00  0.00    +0.000 A 
ATOM     14  C   UNL     1       4.120   5.177  19.397  0.00  0.00    +0.000 A 
ATOM     15  C   UNL     1       2.904   5.675  18.911  0.00  0.00    +0.000 A 
ATOM     16  C   UNL     1       1.850   4.781  18.673  0.00  0.00    +0.000 A 
ENDBRANCH   1  15
BRANCH   7  17
ATOM     17  C   UNL     1      -0.314  10.810  19.877  0.00  0.00    +0.000 A 
ATOM     18  C   UNL     1      -1.556  10.717  19.222  0.00  0.00    +0.000 A 
ATOM     19  C   UNL     1      -2.442  11.794  19.155  0.00  0.00    +0.000 A 
ATOM     20  C   UNL     1      -2.123  12.989  19.780  0.00  0.00    +0.000 A 
ATOM     21  C   UNL     1      -0.895  13.119  20.420  0.00  0.00    +0.000 A 
ATOM     22  C   UNL     1       0.043  12.063  20.438  0.00  0.00    +0.000 A 
ATOM     23  C   UNL     1       1.417  12.414  20.956  0.00  0.00    +0.000 C 
ENDBRANCH   7  17
TORSDOF 2
ENDMDL
MODEL 9
REMARK VINA RESULT:      -7.2      5.088      7.545
REMARK  Name = 
REMARK  5 active torsions:
REMARK  status: ('A' for Active; 'I' for Inactive)
REMARK    1  A    between atoms: C_1  and  C_2
REMARK    2  A    between atoms: C_6  and  C_7
REMARK    3  A    between atoms: C_11  and  C_12
REMARK    4  A    between atoms: N_13  and  C_14
REMARK    5  A    between atoms: C_19  and  C_20
REMARK                            x       y       z     vdW  Elec       q    Type
REMARK                         _______ _______ _______ _____ _____    ______ ____
ROOT
ATOM      1  C   UNL     1       2.475   6.718  19.098  0.00  0.00    +0.000 C 
ATOM      2  O   UNL     1       3.131   6.846  18.058  0.00  0.00    +0.000 OA
ATOM      3  N   UNL     1       1.808   7.768  19.745  0.00  0.00    +0.000 N 
ATOM      4  C   UNL     1       1.404   7.780  21.069  0.00  0.00    +0.000 A 
ATOM      5  C   UNL     1       0.706   8.886  21.353  0.00  0.00    +0.000 A 
ATOM      6  C   UNL     1       0.146   9.198  22.697  0.00  0.00    +0.000 C 
ATOM      7  N   UNL     1       0.577   9.667  20.199  0.00  0.00    +0.000 N 
ATOM      8  C   UNL     1       1.444   9.068  19.187  0.00  0.00    +0.000 A 
ATOM      9  S   UNL     1       2.064   9.771  17.801  0.00  0.00    +0.000 S 
ENDROOT
BRANCH   1  15
ATOM     10  C   UNL     1       4.578   2.221  20.106  0.00  0.00    +0.000 C 
ATOM     11  C   UNL     1       3.421   3.175  20.197  0.00  0.00    +0.000 A 
ATOM     12  C   UNL     1       2.240   2.800  20.846  0.00  0.00    +0.000 A 
ATOM     13  C   UNL     1       1.166   3.688  20.925  0.00  0.00    +0.000 A 
ATOM     14  C   UNL     1       1.259   4.946  20.331  0.00  0.00    +0.000 A 
ATOM     15  C   UNL     1       2.426   5.334  19.661  0.00  0.00    +0.000 A 
ATOM     16  C   UNL     1       3.519   4.455  19.634  0.00  0.00    +0.000 A 
ENDBRANCH   1  15
BRANCH   7  17
ATOM     17  C   UNL     1      -0.141  10.895  20.034  0.00  0.00    +0.000 A 
ATOM     18  C   UNL     1      -1.440  10.849  19.495  0.00  0.00    +0.000 A 
ATOM     19  C   UNL     1      -2.213  12.000  19.325  0.00  0.00    +0.000 A 
ATOM     20  C   UNL     1      -1.718  13.230  19.727  0.00  0.00    +0.000 A 
ATOM     21  C   UNL     1      -0.429  13.311  20.246  0.00  0.00    +0.000 A 
ATOM     22  C   UNL     1       0.393  12.168  20.361  0.00  0.00    +0.000 A 
ATOM     23  C   UNL     1       1.837  12.431  20.714  0.00  0.00    +0.000 C 
ENDBRANCH   7  17
TORSDOF 2
ENDMDL
