MODEL 1
REMARK VINA RESULT:      -7.8      0.000      0.000
REMARK  Name = 
REMARK  3 active torsions:
REMARK  status: ('A' for Active; 'I' for Inactive)
REMARK    1  A    between atoms: C_2  and  C_3
REMARK    2  A    between atoms: C_2  and  C_14
REMARK    3  A    between atoms: C_4  and  C_5
REMARK                            x       y       z     vdW  Elec       q    Type
REMARK                         _______ _______ _______ _____ _____    ______ ____
ROOT
ATOM      1  C   UNL     1       8.027   8.020  18.128  0.00  0.00    +0.000 C 
ATOM      2  C   UNL     1       8.071   9.289  17.697  0.00  0.00    +0.000 C 
ENDROOT
BRANCH   2   3
ATOM      3  C   UNL     1       8.771  10.384  18.387  0.00  0.00    +0.000 A 
ATOM      4  C   UNL     1       9.463  10.185  19.588  0.00  0.00    +0.000 A 
ATOM      5  C   UNL     1      10.187  11.216  20.198  0.00  0.00    +0.000 A 
ATOM      6  C   UNL     1      10.219  12.455  19.552  0.00  0.00    +0.000 A 
ATOM      7  N   UNL     1      10.862  13.623  19.896  0.00  0.00    +0.000 N 
ATOM      8  C   UNL     1      10.637  14.585  18.946  0.00  0.00    +0.000 A 
ATOM      9  C   UNL     1       9.818  14.041  17.983  0.00  0.00    +0.000 A 
ATOM     10  C   UNL     1       9.553  12.693  18.351  0.00  0.00    +0.000 A 
ATOM     11  C   UNL     1       8.816  11.644  17.764  0.00  0.00    +0.000 A 
ATOM     12  H   UNL     1      11.432  13.742  20.721  0.00  0.00    +0.000 HD
ENDBRANCH   2   3
BRANCH   1  14
ATOM     13  O   UNL     1       7.813   6.585  16.243  0.00  0.00    +0.000 OA
ATOM     14  C   UNL     1       7.338   7.000  17.298  0.00  0.00    +0.000 C 
BRANCH  14  15
ATOM     15  C   UNL     1       6.061   6.439  17.796  0.00  0.00    +0.000 A 
ATOM     16  C   UNL     1       6.123   5.459  18.798  0.00  0.00    +0.000 A 
ATOM     17  C   UNL     1       4.956   4.848  19.257  0.00  0.00    +0.000 A 
ATOM     18  C   UNL     1       3.728   5.206  18.702  0.00  0.00    +0.000 A 
ATOM     19 CL   UNL     1       2.293   4.421  19.236  0.00  0.00    +0.000 Cl
ATOM     20  C   UNL     1       3.657   6.180  17.706  0.00  0.00    +0.000 A 
ATOM     21  C   UNL     1       4.824   6.803  17.251  0.00  0.00    +0.000 A 
ENDBRANCH  14  15
ENDBRANCH   1  14
TORSDOF 3
ENDMDL
MODEL 2
REMARK VINA RESULT:      -7.7      6.306      7.328
REMARK  Name = 
REMARK  3 active torsions:
REMARK  status: ('A' for Active; 'I' for Inactive)
REMARK    1  A    between atoms: C_2  and  C_3
REMARK    2  A    between atoms: C_2  and  C_14
REMARK    3  A    between atoms: C_4  and  C_5
REMARK                            x       y       z     vdW  Elec       q    Type
REMARK                         _______ _______ _______ _____ _____    ______ ____
ROOT
ATOM      1  C   UNL     1       3.878   5.281  19.419  0.00  0.00    +0.000 C 
ATOM      2  C   UNL     1       3.425   6.171  18.522  0.00  0.00    +0.000 C 
ENDROOT
BRANCH   2   3
ATOM      3  C   UNL     1       2.605   7.347  18.850  0.00  0.00    +0.000 A 
ATOM      4  C   UNL     1       2.275   8.314  17.893  0.00  0.00    +0.000 A 
ATOM      5  C   UNL     1       1.433   9.391  18.195  0.00  0.00    +0.000 A 
ATOM      6  C   UNL     1       0.908   9.457  19.489  0.00  0.00    +0.000 A 
ATOM      7  N   UNL     1       0.044  10.369  20.054  0.00  0.00    +0.000 N 
ATOM      8  C   UNL     1      -0.227  10.023  21.352  0.00  0.00    +0.000 A 
ATOM      9  C   UNL     1       0.487   8.882  21.640  0.00  0.00    +0.000 A 
ATOM     10  C   UNL     1       1.202   8.511  20.469  0.00  0.00    +0.000 A 
ATOM     11  C   UNL     1       2.066   7.444  20.145  0.00  0.00    +0.000 A 
ATOM     12  H   UNL     1      -0.344  11.167  19.571  0.00  0.00    +0.000 HD
ENDBRANCH   2   3
BRANCH   1  14
ATOM     13  O   UNL     1       4.925   3.155  19.624  0.00  0.00    +0.000 OA
ATOM     14  C   UNL     1       4.753   4.174  18.958  0.00  0.00    +0.000 C 
BRANCH  14  15
ATOM     15  C   UNL     1       5.393   4.296  17.628  0.00  0.00    +0.000 A 
ATOM     16  C   UNL     1       6.710   4.774  17.575  0.00  0.00    +0.000 A 
ATOM     17  C   UNL     1       7.337   4.972  16.345  0.00  0.00    +0.000 A 
ATOM     18  C   UNL     1       6.641   4.708  15.166  0.00  0.00    +0.000 A 
ATOM     19 CL   UNL     1       7.398   4.994  13.649  0.00  0.00    +0.000 Cl
ATOM     20  C   UNL     1       5.330   4.231  15.209  0.00  0.00    +0.000 A 
ATOM     21  C   UNL     1       4.701   4.021  16.441  0.00  0.00    +0.000 A 
ENDBRANCH  14  15
ENDBRANCH   1  14
TORSDOF 3
ENDMDL
MODEL 3
REMARK VINA RESULT:      -7.7      0.155      1.094
REMARK  Name = 
REMARK  3 active torsions:
REMARK  status: ('A' for Active; 'I' for Inactive)
REMARK    1  A    between atoms: C_2  and  C_3
REMARK    2  A    between atoms: C_2  and  C_14
REMARK    3  A    between atoms: C_4  and  C_5
REMARK                            x       y       z     vdW  Elec       q    Type
REMARK                         _______ _______ _______ _____ _____    ______ ____
ROOT
ATOM      1  C   UNL     1       7.901   8.085  18.182  0.00  0.00    +0.000 C 
ATOM      2  C   UNL     1       8.131   9.299  17.658  0.00  0.00    +0.000 C 
ENDROOT
BRANCH   2   3
ATOM      3  C   UNL     1       8.791  10.406  18.368  0.00  0.00    +0.000 A 
ATOM      4  C   UNL     1       9.486  10.212  19.567  0.00  0.00    +0.000 A 
ATOM      5  C   UNL     1      10.173  11.257  20.197  0.00  0.00    +0.000 A 
ATOM      6  C   UNL     1      10.163  12.506  19.570  0.00  0.00    +0.000 A 
ATOM      7  N   UNL     1      10.765  13.690  19.935  0.00  0.00    +0.000 N 
ATOM      8  C   UNL     1      10.509  14.659  19.000  0.00  0.00    +0.000 A 
ATOM      9  C   UNL     1       9.711  14.102  18.026  0.00  0.00    +0.000 A 
ATOM     10  C   UNL     1       9.492  12.741  18.371  0.00  0.00    +0.000 A 
ATOM     11  C   UNL     1       8.794  11.676  17.765  0.00  0.00    +0.000 A 
ATOM     12  H   UNL     1      11.328  13.816  20.764  0.00  0.00    +0.000 HD
ENDBRANCH   2   3
BRANCH   1  14
ATOM     13  O   UNL     1       7.803   6.653  16.285  0.00  0.00    +0.000 OA
ATOM     14  C   UNL     1       7.283   7.038  17.330  0.00  0.00    +0.000 C 
BRANCH  14  15
ATOM     15  C   UNL     1       6.025   6.411  17.795  0.00  0.00    +0.000 A 
ATOM     16  C   UNL     1       4.824   6.846  17.218  0.00  0.00    +0.000 A 
ATOM     17  C   UNL     1       3.604   6.338  17.665  0.00  0.00    +0.000 A 
ATOM     18  C   UNL     1       3.585   5.407  18.703  0.00  0.00    +0.000 A 
ATOM     19 CL   UNL     1       2.079   4.814  19.286  0.00  0.00    +0.000 Cl
ATOM     20  C   UNL     1       4.775   4.968  19.283  0.00  0.00    +0.000 A 
ATOM     21  C   UNL     1       6.001   5.467  18.829  0.00  0.00    +0.000 A 
ENDBRANCH  14  15
ENDBRANCH   1  14
TORSDOF 3
ENDMDL
MODEL 4
REMARK VINA RESULT:      -7.5      0.922      1.593
REMARK  Name = 
REMARK  3 active torsions:
REMARK  status: ('A' for Active; 'I' for Inactive)
REMARK    1  A    between atoms: C_2  and  C_3
REMARK    2  A    between atoms: C_2  and  C_14
REMARK    3  A    between atoms: C_4  and  C_5
REMARK                            x       y       z     vdW  Elec       q    Type
REMARK                         _______ _______ _______ _____ _____    ______ ____
ROOT
ATOM      1  C   UNL     1       7.481   7.865  17.293  0.00  0.00    +0.000 C 
ATOM      2  C   UNL     1       8.190   8.336  18.330  0.00  0.00    +0.000 C 
ENDROOT
BRANCH   2   3
ATOM      3  C   UNL     1       8.666   9.722  18.458  0.00  0.00    +0.000 A 
ATOM      4  C   UNL     1       8.285  10.726  17.560  0.00  0.00    +0.000 A 
ATOM      5  C   UNL     1       8.683  12.057  17.733  0.00  0.00    +0.000 A 
ATOM      6  C   UNL     1       9.461  12.359  18.854  0.00  0.00    +0.000 A 
ATOM      7  N   UNL     1       9.965  13.564  19.291  0.00  0.00    +0.000 N 
ATOM      8  C   UNL     1      10.651  13.393  20.464  0.00  0.00    +0.000 A 
ATOM      9  C   UNL     1      10.610  12.054  20.784  0.00  0.00    +0.000 A 
ATOM     10  C   UNL     1       9.854  11.392  19.778  0.00  0.00    +0.000 A 
ATOM     11  C   UNL     1       9.454  10.056  19.574  0.00  0.00    +0.000 A 
ATOM     12  H   UNL     1       9.831  14.447  18.819  0.00  0.00    +0.000 HD
ENDBRANCH   2   3
BRANCH   1  14
ATOM     13  O   UNL     1       7.691   5.528  16.898  0.00  0.00    +0.000 OA
ATOM     14  C   UNL     1       7.008   6.458  17.323  0.00  0.00    +0.000 C 
BRANCH  14  15
ATOM     15  C   UNL     1       5.688   6.177  17.932  0.00  0.00    +0.000 A 
ATOM     16  C   UNL     1       5.623   5.197  18.933  0.00  0.00    +0.000 A 
ATOM     17  C   UNL     1       4.395   4.845  19.494  0.00  0.00    +0.000 A 
ATOM     18  C   UNL     1       3.230   5.462  19.042  0.00  0.00    +0.000 A 
ATOM     19 CL   UNL     1       1.710   4.997  19.701  0.00  0.00    +0.000 Cl
ATOM     20  C   UNL     1       3.284   6.439  18.047  0.00  0.00    +0.000 A 
ATOM     21  C   UNL     1       4.515   6.803  17.490  0.00  0.00    +0.000 A 
ENDBRANCH  14  15
ENDBRANCH   1  14
TORSDOF 3
ENDMDL
MODEL 5
REMARK VINA RESULT:      -7.5      6.087      7.406
REMARK  Name = 
REMARK  3 active torsions:
REMARK  status: ('A' for Active; 'I' for Inactive)
REMARK    1  A    between atoms: C_2  and  C_3
REMARK    2  A    between atoms: C_2  and  C_14
REMARK    3  A    between atoms: C_4  and  C_5
REMARK                            x       y       z     vdW  Elec       q    Type
REMARK                         _______ _______ _______ _____ _____    ______ ____
ROOT
ATOM      1  C   UNL     1       3.864   5.590  19.295  0.00  0.00    +0.000 C 
ATOM      2  C   UNL     1       3.118   6.349  18.478  0.00  0.00    +0.000 C 
ENDROOT
BRANCH   2   3
ATOM      3  C   UNL     1       2.356   7.534  18.901  0.00  0.00    +0.000 A 
ATOM      4  C   UNL     1       1.991   8.543  18.002  0.00  0.00    +0.000 A 
ATOM      5  C   UNL     1       1.203   9.631  18.397  0.00  0.00    +0.000 A 
ATOM      6  C   UNL     1       0.767   9.664  19.724  0.00  0.00    +0.000 A 
ATOM      7  N   UNL     1      -0.031  10.578  20.378  0.00  0.00    +0.000 N 
ATOM      8  C   UNL     1      -0.225  10.193  21.678  0.00  0.00    +0.000 A 
ATOM      9  C   UNL     1       0.473   9.023  21.879  0.00  0.00    +0.000 A 
ATOM     10  C   UNL     1       1.098   8.676  20.649  0.00  0.00    +0.000 A 
ATOM     11  C   UNL     1       1.906   7.599  20.231  0.00  0.00    +0.000 A 
ATOM     12  H   UNL     1      -0.427  11.403  19.950  0.00  0.00    +0.000 HD
ENDBRANCH   2   3
BRANCH   1  14
ATOM     13  O   UNL     1       4.670   3.352  19.258  0.00  0.00    +0.000 OA
ATOM     14  C   UNL     1       4.636   4.458  18.722  0.00  0.00    +0.000 C 
BRANCH  14  15
ATOM     15  C   UNL     1       5.340   4.672  17.437  0.00  0.00    +0.000 A 
ATOM     16  C   UNL     1       4.812   4.060  16.291  0.00  0.00    +0.000 A 
ATOM     17  C   UNL     1       5.472   4.173  15.067  0.00  0.00    +0.000 A 
ATOM     18  C   UNL     1       6.669   4.883  14.993  0.00  0.00    +0.000 A 
ATOM     19 CL   UNL     1       7.506   4.984  13.494  0.00  0.00    +0.000 Cl
ATOM     20  C   UNL     1       7.202   5.495  16.128  0.00  0.00    +0.000 A 
ATOM     21  C   UNL     1       6.537   5.394  17.355  0.00  0.00    +0.000 A 
ENDBRANCH  14  15
ENDBRANCH   1  14
TORSDOF 3
ENDMDL
MODEL 6
REMARK VINA RESULT:      -7.5      6.657      9.285
REMARK  Name = 
REMARK  3 active torsions:
REMARK  status: ('A' for Active; 'I' for Inactive)
REMARK    1  A    between atoms: C_2  and  C_3
REMARK    2  A    between atoms: C_2  and  C_14
REMARK    3  A    between atoms: C_4  and  C_5
REMARK                            x       y       z     vdW  Elec       q    Type
REMARK                         _______ _______ _______ _____ _____    ______ ____
ROOT
ATOM      1  C   UNL     1       1.338   9.038  17.835  0.00  0.00    +0.000 C 
ATOM      2  C   UNL     1       2.130   8.259  18.588  0.00  0.00    +0.000 C 
ENDROOT
BRANCH   2   3
ATOM      3  C   UNL     1       2.808   7.045  18.111  0.00  0.00    +0.000 A 
ATOM      4  C   UNL     1       4.039   7.092  17.446  0.00  0.00    +0.000 A 
ATOM      5  C   UNL     1       4.712   5.926  17.061  0.00  0.00    +0.000 A 
ATOM      6  C   UNL     1       4.123   4.702  17.387  0.00  0.00    +0.000 A 
ATOM      7  N   UNL     1       4.562   3.415  17.166  0.00  0.00    +0.000 N 
ATOM      8  C   UNL     1       3.669   2.515  17.686  0.00  0.00    +0.000 A 
ATOM      9  C   UNL     1       2.625   3.226  18.233  0.00  0.00    +0.000 A 
ATOM     10  C   UNL     1       2.904   4.609  18.057  0.00  0.00    +0.000 A 
ATOM     11  C   UNL     1       2.237   5.797  18.420  0.00  0.00    +0.000 A 
ATOM     12  H   UNL     1       5.427   3.176  16.703  0.00  0.00    +0.000 HD
ENDBRANCH   2   3
BRANCH   1  14
ATOM     13  O   UNL     1       1.470  11.118  18.982  0.00  0.00    +0.000 OA
ATOM     14  C   UNL     1       0.768  10.275  18.428  0.00  0.00    +0.000 C 
BRANCH  14  15
ATOM     15  C   UNL     1      -0.688  10.506  18.294  0.00  0.00    +0.000 A 
ATOM     16  C   UNL     1      -1.387   9.750  17.342  0.00  0.00    +0.000 A 
ATOM     17  C   UNL     1      -2.747   9.974  17.127  0.00  0.00    +0.000 A 
ATOM     18  C   UNL     1      -3.405  10.966  17.853  0.00  0.00    +0.000 A 
ATOM     19 CL   UNL     1      -5.071  11.274  17.556  0.00  0.00    +0.000 Cl
ATOM     20  C   UNL     1      -2.718  11.723  18.802  0.00  0.00    +0.000 A 
ATOM     21  C   UNL     1      -1.356  11.494  19.028  0.00  0.00    +0.000 A 
ENDBRANCH  14  15
ENDBRANCH   1  14
TORSDOF 3
ENDMDL
MODEL 7
REMARK VINA RESULT:      -7.5      6.615      8.835
REMARK  Name = 
REMARK  3 active torsions:
REMARK  status: ('A' for Active; 'I' for Inactive)
REMARK    1  A    between atoms: C_2  and  C_3
REMARK    2  A    between atoms: C_2  and  C_14
REMARK    3  A    between atoms: C_4  and  C_5
REMARK                            x       y       z     vdW  Elec       q    Type
REMARK                         _______ _______ _______ _____ _____    ______ ____
ROOT
ATOM      1  C   UNL     1       1.373   9.041  17.927  0.00  0.00    +0.000 C 
ATOM      2  C   UNL     1       2.023   8.165  18.709  0.00  0.00    +0.000 C 
ENDROOT
BRANCH   2   3
ATOM      3  C   UNL     1       2.750   6.985  18.220  0.00  0.00    +0.000 A 
ATOM      4  C   UNL     1       2.268   5.684  18.405  0.00  0.00    +0.000 A 
ATOM      5  C   UNL     1       2.929   4.571  17.872  0.00  0.00    +0.000 A 
ATOM      6  C   UNL     1       4.084   4.804  17.120  0.00  0.00    +0.000 A 
ATOM      7  N   UNL     1       4.911   3.922  16.461  0.00  0.00    +0.000 N 
ATOM      8  C   UNL     1       5.916   4.602  15.823  0.00  0.00    +0.000 A 
ATOM      9  C   UNL     1       5.751   5.942  16.090  0.00  0.00    +0.000 A 
ATOM     10  C   UNL     1       4.593   6.083  16.902  0.00  0.00    +0.000 A 
ATOM     11  C   UNL     1       3.918   7.187  17.463  0.00  0.00    +0.000 A 
ATOM     12  H   UNL     1       4.781   2.921  16.439  0.00  0.00    +0.000 HD
ENDBRANCH   2   3
BRANCH   1  14
ATOM     13  O   UNL     1       1.361  11.012  19.259  0.00  0.00    +0.000 OA
ATOM     14  C   UNL     1       0.734  10.228  18.550  0.00  0.00    +0.000 C 
BRANCH  14  15
ATOM     15  C   UNL     1      -0.694  10.488  18.255  0.00  0.00    +0.000 A 
ATOM     16  C   UNL     1      -1.348  11.476  19.006  0.00  0.00    +0.000 A 
ATOM     17  C   UNL     1      -2.709  11.716  18.816  0.00  0.00    +0.000 A 
ATOM     18  C   UNL     1      -3.420  10.957  17.888  0.00  0.00    +0.000 A 
ATOM     19 CL   UNL     1      -5.107  11.221  17.686  0.00  0.00    +0.000 Cl
ATOM     20  C   UNL     1      -2.777   9.973  17.136  0.00  0.00    +0.000 A 
ATOM     21  C   UNL     1      -1.409   9.737  17.315  0.00  0.00    +0.000 A 
ENDBRANCH  14  15
ENDBRANCH   1  14
TORSDOF 3
ENDMDL
MODEL 8
REMARK VINA RESULT:      -7.5      0.929      1.936
REMARK  Name = 
REMARK  3 active torsions:
REMARK  status: ('A' for Active; 'I' for Inactive)
REMARK    1  A    between atoms: C_2  and  C_3
REMARK    2  A    between atoms: C_2  and  C_14
REMARK    3  A    between atoms: C_4  and  C_5
REMARK                            x       y       z     vdW  Elec       q    Type
REMARK                         _______ _______ _______ _____ _____    ______ ____
ROOT
ATOM      1  C   UNL     1       7.167   8.247  17.382  0.00  0.00    +0.000 C 
ATOM      2  C   UNL     1       8.292   8.578  18.034  0.00  0.00    +0.000 C 
ENDROOT
BRANCH   2   3
ATOM      3  C   UNL     1       8.701   9.954  18.354  0.00  0.00    +0.000 A 
ATOM      4  C   UNL     1       8.363  11.040  17.538  0.00  0.00    +0.000 A 
ATOM      5  C   UNL     1       8.694  12.354  17.888  0.00  0.00    +0.000 A 
ATOM      6  C   UNL     1       9.356  12.552  19.103  0.00  0.00    +0.000 A 
ATOM      7  N   UNL     1       9.774  13.716  19.711  0.00  0.00    +0.000 N 
ATOM      8  C   UNL     1      10.358  13.436  20.918  0.00  0.00    +0.000 A 
ATOM      9  C   UNL     1      10.339  12.069  21.087  0.00  0.00    +0.000 A 
ATOM     10  C   UNL     1       9.702  11.501  19.950  0.00  0.00    +0.000 A 
ATOM     11  C   UNL     1       9.373  10.185  19.568  0.00  0.00    +0.000 A 
ATOM     12  H   UNL     1       9.648  14.641  19.325  0.00  0.00    +0.000 HD
ENDBRANCH   2   3
BRANCH   1  14
ATOM     13  O   UNL     1       7.569   6.062  16.533  0.00  0.00    +0.000 OA
ATOM     14  C   UNL     1       6.843   6.812  17.182  0.00  0.00    +0.000 C 
BRANCH  14  15
ATOM     15  C   UNL     1       5.629   6.272  17.837  0.00  0.00    +0.000 A 
ATOM     16  C   UNL     1       4.388   6.790  17.442  0.00  0.00    +0.000 A 
ATOM     17  C   UNL     1       3.217   6.366  18.072  0.00  0.00    +0.000 A 
ATOM     18  C   UNL     1       3.291   5.436  19.108  0.00  0.00    +0.000 A 
ATOM     19 CL   UNL     1       1.853   4.947  19.915  0.00  0.00    +0.000 Cl
ATOM     20  C   UNL     1       4.522   4.915  19.507  0.00  0.00    +0.000 A 
ATOM     21  C   UNL     1       5.697   5.330  18.870  0.00  0.00    +0.000 A 
ENDBRANCH  14  15
ENDBRANCH   1  14
TORSDOF 3
ENDMDL
MODEL 9
REMARK VINA RESULT:      -7.4      6.630      9.299
REMARK  Name = 
REMARK  3 active torsions:
REMARK  status: ('A' for Active; 'I' for Inactive)
REMARK    1  A    between atoms: C_2  and  C_3
REMARK    2  A    between atoms: C_2  and  C_14
REMARK    3  A    between atoms: C_4  and  C_5
REMARK                            x       y       z     vdW  Elec       q    Type
REMARK                         _______ _______ _______ _____ _____    ______ ____
ROOT
ATOM      1  C   UNL     1       1.202   8.878  17.861  0.00  0.00    +0.000 C 
ATOM      2  C   UNL     1       2.252   8.308  18.470  0.00  0.00    +0.000 C 
ENDROOT
BRANCH   2   3
ATOM      3  C   UNL     1       2.901   7.063  18.032  0.00  0.00    +0.000 A 
ATOM      4  C   UNL     1       4.159   7.057  17.417  0.00  0.00    +0.000 A 
ATOM      5  C   UNL     1       4.802   5.862  17.069  0.00  0.00    +0.000 A 
ATOM      6  C   UNL     1       4.152   4.665  17.381  0.00  0.00    +0.000 A 
ATOM      7  N   UNL     1       4.550   3.360  17.189  0.00  0.00    +0.000 N 
ATOM      8  C   UNL     1       3.602   2.500  17.679  0.00  0.00    +0.000 A 
ATOM      9  C   UNL     1       2.566   3.256  18.178  0.00  0.00    +0.000 A 
ATOM     10  C   UNL     1       2.905   4.626  18.002  0.00  0.00    +0.000 A 
ATOM     11  C   UNL     1       2.271   5.842  18.327  0.00  0.00    +0.000 A 
ATOM     12  H   UNL     1       5.422   3.083  16.763  0.00  0.00    +0.000 HD
ENDBRANCH   2   3
BRANCH   1  14
ATOM     13  O   UNL     1       1.415  10.999  18.917  0.00  0.00    +0.000 OA
ATOM     14  C   UNL     1       0.686  10.173  18.373  0.00  0.00    +0.000 C 
BRANCH  14  15
ATOM     15  C   UNL     1      -0.748  10.483  18.169  0.00  0.00    +0.000 A 
ATOM     16  C   UNL     1      -1.326  11.471  18.979  0.00  0.00    +0.000 A 
ATOM     17  C   UNL     1      -2.687  11.757  18.875  0.00  0.00    +0.000 A 
ATOM     18  C   UNL     1      -3.474  11.043  17.973  0.00  0.00    +0.000 A 
ATOM     19 CL   UNL     1      -5.162  11.363  17.877  0.00  0.00    +0.000 Cl
ATOM     20  C   UNL     1      -2.908  10.058  17.163  0.00  0.00    +0.000 A 
ATOM     21  C   UNL     1      -1.540   9.777  17.256  0.00  0.00    +0.000 A 
ENDBRANCH  14  15
ENDBRANCH   1  14
TORSDOF 3
ENDMDL
