MODEL 1
REMARK VINA RESULT:      -8.7      0.000      0.000
REMARK  Name = 
REMARK  10 active torsions:
REMARK  status: ('A' for Active; 'I' for Inactive)
REMARK    1  A    between atoms: C_2  and  O_3
REMARK    2  A    between atoms: C_2  and  C_4
REMARK    3  A    between atoms: C_7  and  O_8
REMARK    4  A    between atoms: O_8  and  C_9
REMARK    5  A    between atoms: C_9  and  C_10
REMARK    6  A    between atoms: C_10  and  C_11
REMARK    7  A    between atoms: C_11  and  C_12
REMARK    8  A    between atoms: C_13  and  O_14
REMARK    9  A    between atoms: N_17  and  C_18
REMARK   10  A    between atoms: C_28  and  O_29
REMARK                            x       y       z     vdW  Elec       q    Type
REMARK                         _______ _______ _______ _____ _____    ______ ____
ROOT
ATOM      1  C   UNL     1       3.150   2.992  18.792  0.00  0.00    +0.000 A 
ATOM      2  C   UNL     1       4.498   3.044  19.031  0.00  0.00    +0.000 A 
ATOM      3  N   UNL     1       5.406   3.668  18.260  0.00  0.00    +0.000 NA
ATOM      4  C   UNL     1       4.949   4.192  17.107  0.00  0.00    +0.000 A 
ATOM      5  N   UNL     1       5.856   4.873  16.292  0.00  0.00    +0.000 N 
ATOM      6  N   UNL     1       3.662   4.154  16.742  0.00  0.00    +0.000 NA
ATOM      7  C   UNL     1       2.821   3.569  17.594  0.00  0.00    +0.000 A 
ATOM      8  H   UNL     1       6.758   4.815  16.756  0.00  0.00    +0.000 HD
ENDROOT
BRANCH   5   9
ATOM      9  C   UNL     1       6.021   4.751  14.887  0.00  0.00    +0.000 A 
ATOM     10  C   UNL     1       7.292   5.074  14.356  0.00  0.00    +0.000 A 
ATOM     11  C   UNL     1       7.672   4.664  13.080  0.00  0.00    +0.000 A 
ATOM     12  C   UNL     1       6.758   3.920  12.365  0.00  0.00    +0.000 A 
ATOM     13  C   UNL     1       5.421   3.819  12.765  0.00  0.00    +0.000 A 
ATOM     14  C   UNL     1       5.040   4.219  14.035  0.00  0.00    +0.000 A 
ATOM     15  C   UNL     1       4.674   2.961  11.787  0.00  0.00    +0.000 C 
ATOM     16  C   UNL     1       5.813   1.984  11.488  0.00  0.00    +0.000 C 
ATOM     17  C   UNL     1       7.052   2.890  11.307  0.00  0.00    +0.000 C 
ENDBRANCH   5   9
BRANCH   2  18
ATOM     18  O   UNL     1       4.993   2.413  20.138  0.00  0.00    +0.000 OA
ATOM     19  H   UNL     1       4.482   2.778  20.879  0.00  0.00    +0.000 HD
ENDBRANCH   2  18
BRANCH   7  20
ATOM     20  O   UNL     1       1.539   3.616  17.155  0.00  0.00    +0.000 OA
ATOM     21  H   UNL     1       1.382   4.576  17.216  0.00  0.00    +0.000 HD
ENDBRANCH   7  20
BRANCH   1  22
ATOM     22  C   UNL     1       2.143   2.363  19.704  0.00  0.00    +0.000 C 
BRANCH  22  23
ATOM     23  C   UNL     1       1.744   3.177  20.942  0.00  0.00    +0.000 C 
BRANCH  23  24
ATOM     24  C   UNL     1       1.171   4.557  20.626  0.00  0.00    +0.000 C 
BRANCH  24  25
ATOM     25  O   UNL     1       2.265   5.480  20.647  0.00  0.00    +0.000 OA
BRANCH  25  29
ATOM     26  C   UNL     1       1.687   9.192  18.851  0.00  0.00    +0.000 A 
ATOM     27  C   UNL     1       1.193   8.909  20.128  0.00  0.00    +0.000 A 
ATOM     28  C   UNL     1       1.401   7.645  20.689  0.00  0.00    +0.000 A 
ATOM     29  C   UNL     1       2.091   6.656  19.992  0.00  0.00    +0.000 A 
ATOM     30  C   UNL     1       2.598   6.952  18.726  0.00  0.00    +0.000 A 
ATOM     31  C   UNL     1       2.413   8.221  18.156  0.00  0.00    +0.000 A 
BRANCH  26  33
ATOM     32  O   UNL     1       2.364  11.310  18.002  0.00  0.00    +0.000 OA
ATOM     33  C   UNL     1       1.458  10.550  18.296  0.00  0.00    +0.000 C 
BRANCH  33  34
ATOM     34  O   UNL     1       0.153  10.879  18.200  0.00  0.00    +0.000 OA
ATOM     35  H   UNL     1      -0.026  11.835  18.134  0.00  0.00    +0.000 HD
ENDBRANCH  33  34
ENDBRANCH  26  33
ENDBRANCH  25  29
ENDBRANCH  24  25
ENDBRANCH  23  24
ENDBRANCH  22  23
ENDBRANCH   1  22
TORSDOF 10
ENDMDL
MODEL 2
REMARK VINA RESULT:      -8.3      1.517      2.126
REMARK  Name = 
REMARK  10 active torsions:
REMARK  status: ('A' for Active; 'I' for Inactive)
REMARK    1  A    between atoms: C_2  and  O_3
REMARK    2  A    between atoms: C_2  and  C_4
REMARK    3  A    between atoms: C_7  and  O_8
REMARK    4  A    between atoms: O_8  and  C_9
REMARK    5  A    between atoms: C_9  and  C_10
REMARK    6  A    between atoms: C_10  and  C_11
REMARK    7  A    between atoms: C_11  and  C_12
REMARK    8  A    between atoms: C_13  and  O_14
REMARK    9  A    between atoms: N_17  and  C_18
REMARK   10  A    between atoms: C_28  and  O_29
REMARK                            x       y       z     vdW  Elec       q    Type
REMARK                         _______ _______ _______ _____ _____    ______ ____
ROOT
ATOM      1  C   UNL     1       4.575   3.052  18.962  0.00  0.00    +0.000 A 
ATOM      2  C   UNL     1       5.385   4.157  18.948  0.00  0.00    +0.000 A 
ATOM      3  N   UNL     1       5.623   4.938  17.880  0.00  0.00    +0.000 NA
ATOM      4  C   UNL     1       5.096   4.526  16.711  0.00  0.00    +0.000 A 
ATOM      5  N   UNL     1       5.297   5.327  15.583  0.00  0.00    +0.000 N 
ATOM      6  N   UNL     1       4.333   3.433  16.594  0.00  0.00    +0.000 NA
ATOM      7  C   UNL     1       4.099   2.750  17.714  0.00  0.00    +0.000 A 
ATOM      8  H   UNL     1       5.865   6.112  15.887  0.00  0.00    +0.000 HD
ENDROOT
BRANCH   5   9
ATOM      9  C   UNL     1       5.693   4.911  14.285  0.00  0.00    +0.000 A 
ATOM     10  C   UNL     1       7.060   5.054  13.951  0.00  0.00    +0.000 A 
ATOM     11  C   UNL     1       7.620   4.373  12.872  0.00  0.00    +0.000 A 
ATOM     12  C   UNL     1       6.784   3.546  12.154  0.00  0.00    +0.000 A 
ATOM     13  C   UNL     1       5.394   3.596  12.307  0.00  0.00    +0.000 A 
ATOM     14  C   UNL     1       4.833   4.267  13.381  0.00  0.00    +0.000 A 
ATOM     15  C   UNL     1       4.757   2.595  11.389  0.00  0.00    +0.000 C 
ATOM     16  C   UNL     1       5.842   1.522  11.503  0.00  0.00    +0.000 C 
ATOM     17  C   UNL     1       7.167   2.308  11.388  0.00  0.00    +0.000 C 
ENDBRANCH   5   9
BRANCH   2  18
ATOM     18  O   UNL     1       6.022   4.519  20.102  0.00  0.00    +0.000 OA
ATOM     19  H   UNL     1       6.197   5.468  19.999  0.00  0.00    +0.000 HD
ENDBRANCH   2  18
BRANCH   7  20
ATOM     20  O   UNL     1       3.287   1.685  17.499  0.00  0.00    +0.000 OA
ATOM     21  H   UNL     1       3.288   1.675  16.524  0.00  0.00    +0.000 HD
ENDBRANCH   7  20
BRANCH   1  22
ATOM     22  C   UNL     1       4.256   2.241  20.180  0.00  0.00    +0.000 C 
BRANCH  22  23
ATOM     23  C   UNL     1       3.120   2.765  21.068  0.00  0.00    +0.000 C 
BRANCH  23  24
ATOM     24  C   UNL     1       1.731   2.284  20.657  0.00  0.00    +0.000 C 
BRANCH  24  25
ATOM     25  O   UNL     1       0.897   3.444  20.560  0.00  0.00    +0.000 OA
BRANCH  25  29
ATOM     26  C   UNL     1       2.413   6.738  18.513  0.00  0.00    +0.000 A 
ATOM     27  C   UNL     1       1.892   5.630  17.838  0.00  0.00    +0.000 A 
ATOM     28  C   UNL     1       1.402   4.540  18.565  0.00  0.00    +0.000 A 
ATOM     29  C   UNL     1       1.430   4.537  19.958  0.00  0.00    +0.000 A 
ATOM     30  C   UNL     1       1.934   5.655  20.625  0.00  0.00    +0.000 A 
ATOM     31  C   UNL     1       2.412   6.764  19.910  0.00  0.00    +0.000 A 
BRANCH  26  33
ATOM     32  O   UNL     1       2.201   8.814  17.368  0.00  0.00    +0.000 OA
ATOM     33  C   UNL     1       2.909   7.880  17.706  0.00  0.00    +0.000 C 
BRANCH  33  34
ATOM     34  O   UNL     1       4.201   7.759  17.337  0.00  0.00    +0.000 OA
ATOM     35  H   UNL     1       4.412   6.950  16.836  0.00  0.00    +0.000 HD
ENDBRANCH  33  34
ENDBRANCH  26  33
ENDBRANCH  25  29
ENDBRANCH  24  25
ENDBRANCH  23  24
ENDBRANCH  22  23
ENDBRANCH   1  22
TORSDOF 10
ENDMDL
MODEL 3
REMARK VINA RESULT:      -8.3      5.077      6.901
REMARK  Name = 
REMARK  10 active torsions:
REMARK  status: ('A' for Active; 'I' for Inactive)
REMARK    1  A    between atoms: C_2  and  O_3
REMARK    2  A    between atoms: C_2  and  C_4
REMARK    3  A    between atoms: C_7  and  O_8
REMARK    4  A    between atoms: O_8  and  C_9
REMARK    5  A    between atoms: C_9  and  C_10
REMARK    6  A    between atoms: C_10  and  C_11
REMARK    7  A    between atoms: C_11  and  C_12
REMARK    8  A    between atoms: C_13  and  O_14
REMARK    9  A    between atoms: N_17  and  C_18
REMARK   10  A    between atoms: C_28  and  O_29
REMARK                            x       y       z     vdW  Elec       q    Type
REMARK                         _______ _______ _______ _____ _____    ______ ____
ROOT
ATOM      1  C   UNL     1       6.644   5.602  18.100  0.00  0.00    +0.000 A 
ATOM      2  C   UNL     1       6.272   6.439  17.081  0.00  0.00    +0.000 A 
ATOM      3  N   UNL     1       6.852   7.614  16.784  0.00  0.00    +0.000 NA
ATOM      4  C   UNL     1       7.809   8.037  17.631  0.00  0.00    +0.000 A 
ATOM      5  N   UNL     1       8.456   9.242  17.340  0.00  0.00    +0.000 N 
ATOM      6  N   UNL     1       8.218   7.330  18.691  0.00  0.00    +0.000 NA
ATOM      7  C   UNL     1       7.631   6.148  18.877  0.00  0.00    +0.000 A 
ATOM      8  H   UNL     1       8.027   9.599  16.492  0.00  0.00    +0.000 HD
ENDROOT
BRANCH   5   9
ATOM      9  C   UNL     1       8.742  10.310  18.231  0.00  0.00    +0.000 A 
ATOM     10  C   UNL     1       9.217   9.965  19.519  0.00  0.00    +0.000 A 
ATOM     11  C   UNL     1       9.851  10.902  20.333  0.00  0.00    +0.000 A 
ATOM     12  C   UNL     1      10.005  12.172  19.822  0.00  0.00    +0.000 A 
ATOM     13  C   UNL     1       9.317  12.590  18.677  0.00  0.00    +0.000 A 
ATOM     14  C   UNL     1       8.690  11.663  17.861  0.00  0.00    +0.000 A 
ATOM     15  C   UNL     1       9.675  14.016  18.376  0.00  0.00    +0.000 C 
ATOM     16  C   UNL     1      11.138  13.937  18.818  0.00  0.00    +0.000 C 
ATOM     17  C   UNL     1      11.090  13.161  20.153  0.00  0.00    +0.000 C 
ENDBRANCH   5   9
BRANCH   2  18
ATOM     18  O   UNL     1       5.222   6.076  16.284  0.00  0.00    +0.000 OA
ATOM     19  H   UNL     1       5.511   5.255  15.855  0.00  0.00    +0.000 HD
ENDBRANCH   2  18
BRANCH   7  20
ATOM     20  O   UNL     1       8.139   5.492  19.949  0.00  0.00    +0.000 OA
ATOM     21  H   UNL     1       9.060   5.382  19.650  0.00  0.00    +0.000 HD
ENDBRANCH   7  20
BRANCH   1  22
ATOM     22  C   UNL     1       6.041   4.257  18.366  0.00  0.00    +0.000 C 
BRANCH  22  23
ATOM     23  C   UNL     1       4.986   4.193  19.479  0.00  0.00    +0.000 C 
BRANCH  23  24
ATOM     24  C   UNL     1       3.590   3.807  18.997  0.00  0.00    +0.000 C 
BRANCH  24  25
ATOM     25  O   UNL     1       2.653   4.528  19.804  0.00  0.00    +0.000 OA
BRANCH  25  29
ATOM     26  C   UNL     1       1.831   8.511  18.915  0.00  0.00    +0.000 A 
ATOM     27  C   UNL     1       1.678   8.001  20.207  0.00  0.00    +0.000 A 
ATOM     28  C   UNL     1       1.955   6.654  20.459  0.00  0.00    +0.000 A 
ATOM     29  C   UNL     1       2.380   5.805  19.439  0.00  0.00    +0.000 A 
ATOM     30  C   UNL     1       2.549   6.327  18.155  0.00  0.00    +0.000 A 
ATOM     31  C   UNL     1       2.292   7.681  17.890  0.00  0.00    +0.000 A 
BRANCH  26  33
ATOM     32  O   UNL     1       1.083  10.679  19.555  0.00  0.00    +0.000 OA
ATOM     33  C   UNL     1       1.541   9.950  18.691  0.00  0.00    +0.000 C 
BRANCH  33  34
ATOM     34  O   UNL     1       1.779  10.358  17.427  0.00  0.00    +0.000 OA
ATOM     35  H   UNL     1       2.275   9.724  16.876  0.00  0.00    +0.000 HD
ENDBRANCH  33  34
ENDBRANCH  26  33
ENDBRANCH  25  29
ENDBRANCH  24  25
ENDBRANCH  23  24
ENDBRANCH  22  23
ENDBRANCH   1  22
TORSDOF 10
ENDMDL
MODEL 4
REMARK VINA RESULT:      -8.2      0.593      1.042
REMARK  Name = 
REMARK  10 active torsions:
REMARK  status: ('A' for Active; 'I' for Inactive)
REMARK    1  A    between atoms: C_2  and  O_3
REMARK    2  A    between atoms: C_2  and  C_4
REMARK    3  A    between atoms: C_7  and  O_8
REMARK    4  A    between atoms: O_8  and  C_9
REMARK    5  A    between atoms: C_9  and  C_10
REMARK    6  A    between atoms: C_10  and  C_11
REMARK    7  A    between atoms: C_11  and  C_12
REMARK    8  A    between atoms: C_13  and  O_14
REMARK    9  A    between atoms: N_17  and  C_18
REMARK   10  A    between atoms: C_28  and  O_29
REMARK                            x       y       z     vdW  Elec       q    Type
REMARK                         _______ _______ _______ _____ _____    ______ ____
ROOT
ATOM      1  C   UNL     1       3.193   3.245  18.633  0.00  0.00    +0.000 A 
ATOM      2  C   UNL     1       4.544   3.203  18.855  0.00  0.00    +0.000 A 
ATOM      3  N   UNL     1       5.485   3.731  18.052  0.00  0.00    +0.000 NA
ATOM      4  C   UNL     1       5.051   4.250  16.888  0.00  0.00    +0.000 A 
ATOM      5  N   UNL     1       5.996   4.835  16.040  0.00  0.00    +0.000 N 
ATOM      6  N   UNL     1       3.761   4.297  16.540  0.00  0.00    +0.000 NA
ATOM      7  C   UNL     1       2.890   3.805  17.420  0.00  0.00    +0.000 A 
ATOM      8  H   UNL     1       6.897   4.724  16.495  0.00  0.00    +0.000 HD
ENDROOT
BRANCH   5   9
ATOM      9  C   UNL     1       6.131   4.654  14.638  0.00  0.00    +0.000 A 
ATOM     10  C   UNL     1       7.344   5.080  14.048  0.00  0.00    +0.000 A 
ATOM     11  C   UNL     1       7.728   4.643  12.781  0.00  0.00    +0.000 A 
ATOM     12  C   UNL     1       6.878   3.770  12.137  0.00  0.00    +0.000 A 
ATOM     13  C   UNL     1       5.572   3.551  12.589  0.00  0.00    +0.000 A 
ATOM     14  C   UNL     1       5.187   3.977  13.849  0.00  0.00    +0.000 A 
ATOM     15  C   UNL     1       4.892   2.567  11.683  0.00  0.00    +0.000 C 
ATOM     16  C   UNL     1       6.120   1.701  11.394  0.00  0.00    +0.000 C 
ATOM     17  C   UNL     1       7.249   2.721  11.124  0.00  0.00    +0.000 C 
ENDBRANCH   5   9
BRANCH   2  18
ATOM     18  O   UNL     1       5.006   2.574  19.977  0.00  0.00    +0.000 OA
ATOM     19  H   UNL     1       5.871   2.215  19.720  0.00  0.00    +0.000 HD
ENDBRANCH   2  18
BRANCH   7  20
ATOM     20  O   UNL     1       1.609   3.933  16.995  0.00  0.00    +0.000 OA
ATOM     21  H   UNL     1       1.249   4.469  17.726  0.00  0.00    +0.000 HD
ENDBRANCH   7  20
BRANCH   1  22
ATOM     22  C   UNL     1       2.155   2.723  19.578  0.00  0.00    +0.000 C 
BRANCH  22  23
ATOM     23  C   UNL     1       1.259   3.771  20.251  0.00  0.00    +0.000 C 
BRANCH  23  24
ATOM     24  C   UNL     1       2.022   4.829  21.045  0.00  0.00    +0.000 C 
BRANCH  24  25
ATOM     25  O   UNL     1       2.675   5.677  20.095  0.00  0.00    +0.000 OA
BRANCH  25  29
ATOM     26  C   UNL     1       1.143   9.478  19.358  0.00  0.00    +0.000 A 
ATOM     27  C   UNL     1       1.886   8.786  18.396  0.00  0.00    +0.000 A 
ATOM     28  C   UNL     1       2.390   7.516  18.690  0.00  0.00    +0.000 A 
ATOM     29  C   UNL     1       2.169   6.925  19.932  0.00  0.00    +0.000 A 
ATOM     30  C   UNL     1       1.410   7.614  20.880  0.00  0.00    +0.000 A 
ATOM     31  C   UNL     1       0.882   8.882  20.595  0.00  0.00    +0.000 A 
BRANCH  26  33
ATOM     32  O   UNL     1       1.312  11.716  18.565  0.00  0.00    +0.000 OA
ATOM     33  C   UNL     1       0.613  10.819  19.003  0.00  0.00    +0.000 C 
BRANCH  33  34
ATOM     34  O   UNL     1      -0.703  10.964  19.264  0.00  0.00    +0.000 OA
ATOM     35  H   UNL     1      -1.204  10.130  19.330  0.00  0.00    +0.000 HD
ENDBRANCH  33  34
ENDBRANCH  26  33
ENDBRANCH  25  29
ENDBRANCH  24  25
ENDBRANCH  23  24
ENDBRANCH  22  23
ENDBRANCH   1  22
TORSDOF 10
ENDMDL
MODEL 5
REMARK VINA RESULT:      -8.1      4.529      7.464
REMARK  Name = 
REMARK  10 active torsions:
REMARK  status: ('A' for Active; 'I' for Inactive)
REMARK    1  A    between atoms: C_2  and  O_3
REMARK    2  A    between atoms: C_2  and  C_4
REMARK    3  A    between atoms: C_7  and  O_8
REMARK    4  A    between atoms: O_8  and  C_9
REMARK    5  A    between atoms: C_9  and  C_10
REMARK    6  A    between atoms: C_10  and  C_11
REMARK    7  A    between atoms: C_11  and  C_12
REMARK    8  A    between atoms: C_13  and  O_14
REMARK    9  A    between atoms: N_17  and  C_18
REMARK   10  A    between atoms: C_28  and  O_29
REMARK                            x       y       z     vdW  Elec       q    Type
REMARK                         _______ _______ _______ _____ _____    ______ ____
ROOT
ATOM      1  C   UNL     1      -0.279  10.278  21.627  0.00  0.00    +0.000 A 
ATOM      2  C   UNL     1       0.493   9.547  22.492  0.00  0.00    +0.000 A 
ATOM      3  N   UNL     1       1.393   8.614  22.137  0.00  0.00    +0.000 NA
ATOM      4  C   UNL     1       1.454   8.312  20.827  0.00  0.00    +0.000 A 
ATOM      5  N   UNL     1       2.398   7.367  20.416  0.00  0.00    +0.000 N 
ATOM      6  N   UNL     1       0.710   8.922  19.897  0.00  0.00    +0.000 NA
ATOM      7  C   UNL     1      -0.113   9.876  20.328  0.00  0.00    +0.000 A 
ATOM      8  H   UNL     1       2.874   7.053  21.256  0.00  0.00    +0.000 HD
ENDROOT
BRANCH   5   9
ATOM      9  C   UNL     1       2.202   6.275  19.529  0.00  0.00    +0.000 A 
ATOM     10  C   UNL     1       2.961   6.271  18.335  0.00  0.00    +0.000 A 
ATOM     11  C   UNL     1       3.117   5.112  17.577  0.00  0.00    +0.000 A 
ATOM     12  C   UNL     1       2.509   3.969  18.052  0.00  0.00    +0.000 A 
ATOM     13  C   UNL     1       1.553   4.017  19.073  0.00  0.00    +0.000 A 
ATOM     14  C   UNL     1       1.399   5.165  19.832  0.00  0.00    +0.000 A 
ATOM     15  C   UNL     1       1.066   2.628  19.361  0.00  0.00    +0.000 C 
ATOM     16  C   UNL     1       2.397   1.911  19.128  0.00  0.00    +0.000 C 
ATOM     17  C   UNL     1       2.949   2.547  17.832  0.00  0.00    +0.000 C 
ENDBRANCH   5   9
BRANCH   2  18
ATOM     18  O   UNL     1       0.355   9.760  23.835  0.00  0.00    +0.000 OA
ATOM     19  H   UNL     1       1.264   9.845  24.165  0.00  0.00    +0.000 HD
ENDBRANCH   2  18
BRANCH   7  20
ATOM     20  O   UNL     1      -0.793  10.459  19.310  0.00  0.00    +0.000 OA
ATOM     21  H   UNL     1      -1.494   9.794  19.183  0.00  0.00    +0.000 HD
ENDBRANCH   7  20
BRANCH   1  22
ATOM     22  C   UNL     1      -1.218  11.372  22.034  0.00  0.00    +0.000 C 
BRANCH  22  23
ATOM     23  C   UNL     1      -0.644  12.795  22.037  0.00  0.00    +0.000 C 
BRANCH  23  24
ATOM     24  C   UNL     1      -1.322  13.745  21.053  0.00  0.00    +0.000 C 
BRANCH  24  25
ATOM     25  O   UNL     1      -0.946  13.324  19.737  0.00  0.00    +0.000 OA
BRANCH  25  29
ATOM     26  C   UNL     1       2.543  15.095  18.315  0.00  0.00    +0.000 A 
ATOM     27  C   UNL     1       1.529  15.848  18.915  0.00  0.00    +0.000 A 
ATOM     28  C   UNL     1       0.369  15.214  19.369  0.00  0.00    +0.000 A 
ATOM     29  C   UNL     1       0.202  13.838  19.230  0.00  0.00    +0.000 A 
ATOM     30  C   UNL     1       1.227  13.090  18.648  0.00  0.00    +0.000 A 
ATOM     31  C   UNL     1       2.405  13.709  18.203  0.00  0.00    +0.000 A 
BRANCH  26  33
ATOM     32  O   UNL     1       3.869  17.019  17.859  0.00  0.00    +0.000 OA
ATOM     33  C   UNL     1       3.765  15.804  17.859  0.00  0.00    +0.000 C 
BRANCH  33  34
ATOM     34  O   UNL     1       4.725  14.977  17.394  0.00  0.00    +0.000 OA
ATOM     35  H   UNL     1       5.614  15.371  17.334  0.00  0.00    +0.000 HD
ENDBRANCH  33  34
ENDBRANCH  26  33
ENDBRANCH  25  29
ENDBRANCH  24  25
ENDBRANCH  23  24
ENDBRANCH  22  23
ENDBRANCH   1  22
TORSDOF 10
ENDMDL
MODEL 6
REMARK VINA RESULT:      -8.1      3.989      7.138
REMARK  Name = 
REMARK  10 active torsions:
REMARK  status: ('A' for Active; 'I' for Inactive)
REMARK    1  A    between atoms: C_2  and  O_3
REMARK    2  A    between atoms: C_2  and  C_4
REMARK    3  A    between atoms: C_7  and  O_8
REMARK    4  A    between atoms: O_8  and  C_9
REMARK    5  A    between atoms: C_9  and  C_10
REMARK    6  A    between atoms: C_10  and  C_11
REMARK    7  A    between atoms: C_11  and  C_12
REMARK    8  A    between atoms: C_13  and  O_14
REMARK    9  A    between atoms: N_17  and  C_18
REMARK   10  A    between atoms: C_28  and  O_29
REMARK                            x       y       z     vdW  Elec       q    Type
REMARK                         _______ _______ _______ _____ _____    ______ ____
ROOT
ATOM      1  C   UNL     1       0.471  11.039  20.529  0.00  0.00    +0.000 A 
ATOM      2  C   UNL     1       1.131  11.489  19.415  0.00  0.00    +0.000 A 
ATOM      3  N   UNL     1       1.621  10.715  18.431  0.00  0.00    +0.000 NA
ATOM      4  C   UNL     1       1.538   9.385  18.622  0.00  0.00    +0.000 A 
ATOM      5  N   UNL     1       2.011   8.547  17.608  0.00  0.00    +0.000 N 
ATOM      6  N   UNL     1       0.964   8.831  19.696  0.00  0.00    +0.000 NA
ATOM      7  C   UNL     1       0.450   9.671  20.594  0.00  0.00    +0.000 A 
ATOM      8  H   UNL     1       2.372   9.156  16.880  0.00  0.00    +0.000 HD
ENDROOT
BRANCH   5   9
ATOM      9  C   UNL     1       2.840   7.403  17.746  0.00  0.00    +0.000 A 
ATOM     10  C   UNL     1       2.214   6.197  18.139  0.00  0.00    +0.000 A 
ATOM     11  C   UNL     1       2.841   4.964  17.967  0.00  0.00    +0.000 A 
ATOM     12  C   UNL     1       4.090   4.973  17.386  0.00  0.00    +0.000 A 
ATOM     13  C   UNL     1       4.820   6.158  17.236  0.00  0.00    +0.000 A 
ATOM     14  C   UNL     1       4.201   7.386  17.400  0.00  0.00    +0.000 A 
ATOM     15  C   UNL     1       6.138   5.850  16.589  0.00  0.00    +0.000 C 
ATOM     16  C   UNL     1       5.636   4.739  15.665  0.00  0.00    +0.000 C 
ATOM     17  C   UNL     1       4.720   3.880  16.566  0.00  0.00    +0.000 C 
ENDBRANCH   5   9
BRANCH   2  18
ATOM     18  O   UNL     1       1.326  12.834  19.267  0.00  0.00    +0.000 OA
ATOM     19  H   UNL     1       2.179  12.909  18.808  0.00  0.00    +0.000 HD
ENDBRANCH   2  18
BRANCH   7  20
ATOM     20  O   UNL     1      -0.142   9.016  21.623  0.00  0.00    +0.000 OA
ATOM     21  H   UNL     1      -1.068   9.043  21.319  0.00  0.00    +0.000 HD
ENDBRANCH   7  20
BRANCH   1  22
ATOM     22  C   UNL     1      -0.141  11.920  21.574  0.00  0.00    +0.000 C 
BRANCH  22  23
ATOM     23  C   UNL     1      -1.634  12.233  21.412  0.00  0.00    +0.000 C 
BRANCH  23  24
ATOM     24  C   UNL     1      -2.027  12.703  20.013  0.00  0.00    +0.000 C 
BRANCH  24  25
ATOM     25  O   UNL     1      -3.178  11.947  19.624  0.00  0.00    +0.000 OA
BRANCH  25  29
ATOM     26  C   UNL     1      -3.318  10.459  15.738  0.00  0.00    +0.000 A 
ATOM     27  C   UNL     1      -4.344  11.253  16.258  0.00  0.00    +0.000 A 
ATOM     28  C   UNL     1      -4.261  11.723  17.572  0.00  0.00    +0.000 A 
ATOM     29  C   UNL     1      -3.170  11.409  18.379  0.00  0.00    +0.000 A 
ATOM     30  C   UNL     1      -2.140  10.631  17.847  0.00  0.00    +0.000 A 
ATOM     31  C   UNL     1      -2.200  10.167  16.524  0.00  0.00    +0.000 A 
BRANCH  26  33
ATOM     32  O   UNL     1      -2.475   9.857  13.595  0.00  0.00    +0.000 OA
ATOM     33  C   UNL     1      -3.436   9.991  14.334  0.00  0.00    +0.000 C 
BRANCH  33  34
ATOM     34  O   UNL     1      -4.709   9.784  13.941  0.00  0.00    +0.000 OA
ATOM     35  H   UNL     1      -5.296   9.413  14.625  0.00  0.00    +0.000 HD
ENDBRANCH  33  34
ENDBRANCH  26  33
ENDBRANCH  25  29
ENDBRANCH  24  25
ENDBRANCH  23  24
ENDBRANCH  22  23
ENDBRANCH   1  22
TORSDOF 10
ENDMDL
MODEL 7
REMARK VINA RESULT:      -8.1      5.074      8.210
REMARK  Name = 
REMARK  10 active torsions:
REMARK  status: ('A' for Active; 'I' for Inactive)
REMARK    1  A    between atoms: C_2  and  O_3
REMARK    2  A    between atoms: C_2  and  C_4
REMARK    3  A    between atoms: C_7  and  O_8
REMARK    4  A    between atoms: O_8  and  C_9
REMARK    5  A    between atoms: C_9  and  C_10
REMARK    6  A    between atoms: C_10  and  C_11
REMARK    7  A    between atoms: C_11  and  C_12
REMARK    8  A    between atoms: C_13  and  O_14
REMARK    9  A    between atoms: N_17  and  C_18
REMARK   10  A    between atoms: C_28  and  O_29
REMARK                            x       y       z     vdW  Elec       q    Type
REMARK                         _______ _______ _______ _____ _____    ______ ____
ROOT
ATOM      1  C   UNL     1       0.167  10.379  19.391  0.00  0.00    +0.000 A 
ATOM      2  C   UNL     1      -0.061   9.895  20.653  0.00  0.00    +0.000 A 
ATOM      3  N   UNL     1       0.577   8.856  21.219  0.00  0.00    +0.000 NA
ATOM      4  C   UNL     1       1.434   8.182  20.430  0.00  0.00    +0.000 A 
ATOM      5  N   UNL     1       2.139   7.113  20.991  0.00  0.00    +0.000 N 
ATOM      6  N   UNL     1       1.697   8.530  19.165  0.00  0.00    +0.000 NA
ATOM      7  C   UNL     1       1.066   9.608  18.703  0.00  0.00    +0.000 A 
ATOM      8  H   UNL     1       1.823   7.036  21.953  0.00  0.00    +0.000 HD
ENDROOT
BRANCH   5   9
ATOM      9  C   UNL     1       2.339   5.822  20.437  0.00  0.00    +0.000 A 
ATOM     10  C   UNL     1       1.231   4.941  20.437  0.00  0.00    +0.000 A 
ATOM     11  C   UNL     1       1.203   3.810  19.624  0.00  0.00    +0.000 A 
ATOM     12  C   UNL     1       2.296   3.596  18.813  0.00  0.00    +0.000 A 
ATOM     13  C   UNL     1       3.492   4.300  18.993  0.00  0.00    +0.000 A 
ATOM     14  C   UNL     1       3.524   5.429  19.795  0.00  0.00    +0.000 A 
ATOM     15  C   UNL     1       4.495   3.842  17.976  0.00  0.00    +0.000 C 
ATOM     16  C   UNL     1       3.509   3.618  16.828  0.00  0.00    +0.000 C 
ATOM     17  C   UNL     1       2.320   2.882  17.488  0.00  0.00    +0.000 C 
ENDBRANCH   5   9
BRANCH   2  18
ATOM     18  O   UNL     1      -1.016  10.498  21.424  0.00  0.00    +0.000 OA
ATOM     19  H   UNL     1      -0.520  10.927  22.139  0.00  0.00    +0.000 HD
ENDBRANCH   2  18
BRANCH   7  20
ATOM     20  O   UNL     1       1.426   9.901  17.429  0.00  0.00    +0.000 OA
ATOM     21  H   UNL     1       0.700  10.507  17.191  0.00  0.00    +0.000 HD
ENDBRANCH   7  20
BRANCH   1  22
ATOM     22  C   UNL     1      -0.495  11.588  18.806  0.00  0.00    +0.000 C 
BRANCH  22  23
ATOM     23  C   UNL     1      -1.785  11.342  18.014  0.00  0.00    +0.000 C 
BRANCH  23  24
ATOM     24  C   UNL     1      -3.054  11.809  18.723  0.00  0.00    +0.000 C 
BRANCH  24  25
ATOM     25  O   UNL     1      -2.642  12.541  19.882  0.00  0.00    +0.000 OA
BRANCH  25  29
ATOM     26  C   UNL     1      -5.619  12.927  22.767  0.00  0.00    +0.000 A 
ATOM     27  C   UNL     1      -5.917  12.583  21.446  0.00  0.00    +0.000 A 
ATOM     28  C   UNL     1      -4.887  12.475  20.506  0.00  0.00    +0.000 A 
ATOM     29  C   UNL     1      -3.561  12.709  20.865  0.00  0.00    +0.000 A 
ATOM     30  C   UNL     1      -3.269  13.032  22.191  0.00  0.00    +0.000 A 
ATOM     31  C   UNL     1      -4.290  13.128  23.150  0.00  0.00    +0.000 A 
BRANCH  26  33
ATOM     32  O   UNL     1      -7.630  12.189  23.805  0.00  0.00    +0.000 OA
ATOM     33  C   UNL     1      -6.739  13.018  23.738  0.00  0.00    +0.000 C 
BRANCH  33  34
ATOM     34  O   UNL     1      -6.704  14.133  24.497  0.00  0.00    +0.000 OA
ATOM     35  H   UNL     1      -6.469  14.950  24.019  0.00  0.00    +0.000 HD
ENDBRANCH  33  34
ENDBRANCH  26  33
ENDBRANCH  25  29
ENDBRANCH  24  25
ENDBRANCH  23  24
ENDBRANCH  22  23
ENDBRANCH   1  22
TORSDOF 10
ENDMDL
MODEL 8
REMARK VINA RESULT:      -8.0      5.069      7.263
REMARK  Name = 
REMARK  10 active torsions:
REMARK  status: ('A' for Active; 'I' for Inactive)
REMARK    1  A    between atoms: C_2  and  O_3
REMARK    2  A    between atoms: C_2  and  C_4
REMARK    3  A    between atoms: C_7  and  O_8
REMARK    4  A    between atoms: O_8  and  C_9
REMARK    5  A    between atoms: C_9  and  C_10
REMARK    6  A    between atoms: C_10  and  C_11
REMARK    7  A    between atoms: C_11  and  C_12
REMARK    8  A    between atoms: C_13  and  O_14
REMARK    9  A    between atoms: N_17  and  C_18
REMARK   10  A    between atoms: C_28  and  O_29
REMARK                            x       y       z     vdW  Elec       q    Type
REMARK                         _______ _______ _______ _____ _____    ______ ____
ROOT
ATOM      1  C   UNL     1       6.761   5.993  18.116  0.00  0.00    +0.000 A 
ATOM      2  C   UNL     1       6.407   7.036  17.300  0.00  0.00    +0.000 A 
ATOM      3  N   UNL     1       7.091   8.184  17.160  0.00  0.00    +0.000 NA
ATOM      4  C   UNL     1       8.153   8.348  17.971  0.00  0.00    +0.000 A 
ATOM      5  N   UNL     1       8.908   9.517  17.834  0.00  0.00    +0.000 N 
ATOM      6  N   UNL     1       8.561   7.421  18.844  0.00  0.00    +0.000 NA
ATOM      7  C   UNL     1       7.861   6.288  18.876  0.00  0.00    +0.000 A 
ATOM      8  H   UNL     1       8.457  10.065  17.107  0.00  0.00    +0.000 HD
ENDROOT
BRANCH   5   9
ATOM      9  C   UNL     1       9.381  10.369  18.866  0.00  0.00    +0.000 A 
ATOM     10  C   UNL     1      10.299  11.380  18.498  0.00  0.00    +0.000 A 
ATOM     11  C   UNL     1      10.552  12.470  19.330  0.00  0.00    +0.000 A 
ATOM     12  C   UNL     1       9.858  12.522  20.519  0.00  0.00    +0.000 A 
ATOM     13  C   UNL     1       9.157  11.414  21.008  0.00  0.00    +0.000 A 
ATOM     14  C   UNL     1       8.897  10.332  20.184  0.00  0.00    +0.000 A 
ATOM     15  C   UNL     1       8.521  11.770  22.320  0.00  0.00    +0.000 C 
ATOM     16  C   UNL     1       8.188  13.223  21.978  0.00  0.00    +0.000 C 
ATOM     17  C   UNL     1       9.467  13.753  21.291  0.00  0.00    +0.000 C 
ENDBRANCH   5   9
BRANCH   2  18
ATOM     18  O   UNL     1       5.264   6.931  16.559  0.00  0.00    +0.000 OA
ATOM     19  H   UNL     1       5.490   6.314  15.843  0.00  0.00    +0.000 HD
ENDBRANCH   2  18
BRANCH   7  20
ATOM     20  O   UNL     1       8.373   5.399  19.762  0.00  0.00    +0.000 OA
ATOM     21  H   UNL     1       8.248   4.575  19.255  0.00  0.00    +0.000 HD
ENDBRANCH   7  20
BRANCH   1  22
ATOM     22  C   UNL     1       6.032   4.687  18.199  0.00  0.00    +0.000 C 
BRANCH  22  23
ATOM     23  C   UNL     1       4.986   4.562  19.314  0.00  0.00    +0.000 C 
BRANCH  23  24
ATOM     24  C   UNL     1       3.544   4.490  18.816  0.00  0.00    +0.000 C 
BRANCH  24  25
ATOM     25  O   UNL     1       2.737   5.196  19.764  0.00  0.00    +0.000 OA
BRANCH  25  29
ATOM     26  C   UNL     1       1.566   9.113  18.978  0.00  0.00    +0.000 A 
ATOM     27  C   UNL     1       1.448   8.553  20.253  0.00  0.00    +0.000 A 
ATOM     28  C   UNL     1       1.844   7.230  20.471  0.00  0.00    +0.000 A 
ATOM     29  C   UNL     1       2.352   6.453  19.432  0.00  0.00    +0.000 A 
ATOM     30  C   UNL     1       2.485   7.026  18.165  0.00  0.00    +0.000 A 
ATOM     31  C   UNL     1       2.109   8.358  17.935  0.00  0.00    +0.000 A 
BRANCH  26  33
ATOM     32  O   UNL     1       0.262  11.049  19.444  0.00  0.00    +0.000 OA
ATOM     33  C   UNL     1       1.148  10.525  18.790  0.00  0.00    +0.000 C 
BRANCH  33  34
ATOM     34  O   UNL     1       1.803  11.153  17.793  0.00  0.00    +0.000 OA
ATOM     35  H   UNL     1       2.754  11.299  17.953  0.00  0.00    +0.000 HD
ENDBRANCH  33  34
ENDBRANCH  26  33
ENDBRANCH  25  29
ENDBRANCH  24  25
ENDBRANCH  23  24
ENDBRANCH  22  23
ENDBRANCH   1  22
TORSDOF 10
ENDMDL
MODEL 9
REMARK VINA RESULT:      -8.0      5.137      7.344
REMARK  Name = 
REMARK  10 active torsions:
REMARK  status: ('A' for Active; 'I' for Inactive)
REMARK    1  A    between atoms: C_2  and  O_3
REMARK    2  A    between atoms: C_2  and  C_4
REMARK    3  A    between atoms: C_7  and  O_8
REMARK    4  A    between atoms: O_8  and  C_9
REMARK    5  A    between atoms: C_9  and  C_10
REMARK    6  A    between atoms: C_10  and  C_11
REMARK    7  A    between atoms: C_11  and  C_12
REMARK    8  A    between atoms: C_13  and  O_14
REMARK    9  A    between atoms: N_17  and  C_18
REMARK   10  A    between atoms: C_28  and  O_29
REMARK                            x       y       z     vdW  Elec       q    Type
REMARK                         _______ _______ _______ _____ _____    ______ ____
ROOT
ATOM      1  C   UNL     1       6.696   6.030  18.107  0.00  0.00    +0.000 A 
ATOM      2  C   UNL     1       6.354   7.068  17.280  0.00  0.00    +0.000 A 
ATOM      3  N   UNL     1       7.055   8.204  17.122  0.00  0.00    +0.000 NA
ATOM      4  C   UNL     1       8.122   8.362  17.927  0.00  0.00    +0.000 A 
ATOM      5  N   UNL     1       8.894   9.518  17.773  0.00  0.00    +0.000 N 
ATOM      6  N   UNL     1       8.519   7.440  18.811  0.00  0.00    +0.000 NA
ATOM      7  C   UNL     1       7.803   6.318  18.860  0.00  0.00    +0.000 A 
ATOM      8  H   UNL     1       8.448  10.063  17.041  0.00  0.00    +0.000 HD
ENDROOT
BRANCH   5   9
ATOM      9  C   UNL     1       9.383  10.376  18.793  0.00  0.00    +0.000 A 
ATOM     10  C   UNL     1      10.276  11.400  18.400  0.00  0.00    +0.000 A 
ATOM     11  C   UNL     1      10.537  12.492  19.226  0.00  0.00    +0.000 A 
ATOM     12  C   UNL     1       9.876  12.534  20.434  0.00  0.00    +0.000 A 
ATOM     13  C   UNL     1       9.204  11.415  20.942  0.00  0.00    +0.000 A 
ATOM     14  C   UNL     1       8.938  10.330  20.124  0.00  0.00    +0.000 A 
ATOM     15  C   UNL     1       8.600  11.761  22.271  0.00  0.00    +0.000 C 
ATOM     16  C   UNL     1       8.238  13.210  21.940  0.00  0.00    +0.000 C 
ATOM     17  C   UNL     1       9.489  13.759  21.218  0.00  0.00    +0.000 C 
ENDBRANCH   5   9
BRANCH   2  18
ATOM     18  O   UNL     1       5.207   6.970  16.544  0.00  0.00    +0.000 OA
ATOM     19  H   UNL     1       5.427   6.356  15.824  0.00  0.00    +0.000 HD
ENDBRANCH   2  18
BRANCH   7  20
ATOM     20  O   UNL     1       8.305   5.432  19.755  0.00  0.00    +0.000 OA
ATOM     21  H   UNL     1       7.633   4.729  19.681  0.00  0.00    +0.000 HD
ENDBRANCH   7  20
BRANCH   1  22
ATOM     22  C   UNL     1       5.947   4.736  18.210  0.00  0.00    +0.000 C 
BRANCH  22  23
ATOM     23  C   UNL     1       4.874   4.656  19.302  0.00  0.00    +0.000 C 
BRANCH  23  24
ATOM     24  C   UNL     1       3.447   4.530  18.771  0.00  0.00    +0.000 C 
BRANCH  24  25
ATOM     25  O   UNL     1       3.152   5.743  18.071  0.00  0.00    +0.000 OA
BRANCH  25  29
ATOM     26  C   UNL     1       1.254   8.885  20.036  0.00  0.00    +0.000 A 
ATOM     27  C   UNL     1       1.670   8.995  18.706  0.00  0.00    +0.000 A 
ATOM     28  C   UNL     1       2.314   7.919  18.088  0.00  0.00    +0.000 A 
ATOM     29  C   UNL     1       2.553   6.733  18.779  0.00  0.00    +0.000 A 
ATOM     30  C   UNL     1       2.117   6.624  20.101  0.00  0.00    +0.000 A 
ATOM     31  C   UNL     1       1.455   7.689  20.730  0.00  0.00    +0.000 A 
BRANCH  26  33
ATOM     32  O   UNL     1       0.771  11.199  20.318  0.00  0.00    +0.000 OA
ATOM     33  C   UNL     1       0.562  10.046  20.653  0.00  0.00    +0.000 C 
BRANCH  33  34
ATOM     34  O   UNL     1      -0.275   9.704  21.653  0.00  0.00    +0.000 OA
ATOM     35  H   UNL     1      -0.511   8.759  21.689  0.00  0.00    +0.000 HD
ENDBRANCH  33  34
ENDBRANCH  26  33
ENDBRANCH  25  29
ENDBRANCH  24  25
ENDBRANCH  23  24
ENDBRANCH  22  23
ENDBRANCH   1  22
TORSDOF 10
ENDMDL
