MODEL 1
REMARK VINA RESULT:      -6.9      0.000      0.000
REMARK  Name = 
REMARK  10 active torsions:
REMARK  status: ('A' for Active; 'I' for Inactive)
REMARK    1  A    between atoms: C_1  and  C_2
REMARK    2  A    between atoms: C_2  and  O_3
REMARK    3  A    between atoms: O_3  and  C_4
REMARK    4  A    between atoms: C_4  and  C_6
REMARK    5  A    between atoms: C_13  and  C_14
REMARK    6  A    between atoms: N_22  and  C_23
REMARK    7  A    between atoms: C_23  and  C_24
REMARK    8  A    between atoms: C_27  and  O_28
REMARK    9  A    between atoms: O_28  and  C_29
REMARK   10  A    between atoms: C_34  and  C_35
REMARK                            x       y       z     vdW  Elec       q    Type
REMARK                         _______ _______ _______ _____ _____    ______ ____
ROOT
ATOM      1  C   UNL     1      -1.927  14.851  22.076  0.00  0.00    +0.000 C 
ATOM      2  C   UNL     1      -1.328  15.789  20.967  0.00  0.00    +0.000 C 
ATOM      3  C   UNL     1      -1.004  17.273  21.082  0.00  0.00    +0.000 C 
ATOM      4  O   UNL     1      -0.415  17.759  19.847  0.00  0.00    +0.000 OA
ATOM      5  C   UNL     1       0.622  17.001  19.360  0.00  0.00    +0.000 A 
ATOM      6  C   UNL     1       1.461  17.571  18.403  0.00  0.00    +0.000 A 
ATOM      7  C   UNL     1       2.538  16.836  17.882  0.00  0.00    +0.000 A 
ATOM      8  C   UNL     1       2.814  15.553  18.360  0.00  0.00    +0.000 A 
ATOM      9  C   UNL     1       3.879  14.670  17.786  0.00  0.00    +0.000 C 
ATOM     10  C   UNL     1       2.000  15.018  19.350  0.00  0.00    +0.000 A 
ATOM     11  C   UNL     1       0.848  15.688  19.764  0.00  0.00    +0.000 A 
ATOM     12  C   UNL     1      -0.083  15.016  20.693  0.00  0.00    +0.000 C 
ATOM     13  N   UNL     1      -0.685  13.722  20.418  0.00  0.00    +0.000 N 
ATOM     14  C   UNL     1      -0.475  12.930  19.306  0.00  0.00    +0.000 C 
ATOM     15  O   UNL     1       0.039  13.275  18.256  0.00  0.00    +0.000 OA
ATOM     16  C   UNL     1      -0.955  11.518  19.516  0.00  0.00    +0.000 C 
ATOM     17  N   UNL     1      -0.356  11.089  20.772  0.00  0.00    +0.000 N 
ATOM     18  C   UNL     1      -0.664  11.951  21.951  0.00  0.00    +0.000 C 
ATOM     19  O   UNL     1      -0.461  11.580  23.125  0.00  0.00    +0.000 OA
ATOM     20  C   UNL     1      -1.553  13.344  21.563  0.00  0.00    +0.000 C 
ATOM     21  C   UNL     1      -2.976  12.755  21.354  0.00  0.00    +0.000 C 
ENDROOT
BRANCH   1  22
ATOM     22  C   UNL     1      -1.685  15.410  23.446  0.00  0.00    +0.000 C 
ATOM     23  O   UNL     1      -0.694  15.105  24.106  0.00  0.00    +0.000 OA
BRANCH  22  24
ATOM     24  O   UNL     1      -2.569  16.356  23.818  0.00  0.00    +0.000 OA
BRANCH  24  26
ATOM     25  C   UNL     1      -4.822  15.618  24.123  0.00  0.00    +0.000 C 
ATOM     26  C   UNL     1      -3.500  15.891  24.815  0.00  0.00    +0.000 C 
ENDBRANCH  24  26
ENDBRANCH  22  24
ENDBRANCH   1  22
BRANCH  17  27
ATOM     27  C   UNL     1       0.018   9.627  20.845  0.00  0.00    +0.000 C 
BRANCH  27  28
ATOM     28  C   UNL     1       1.037   8.933  19.855  0.00  0.00    +0.000 A 
ATOM     29  C   UNL     1       1.418   9.352  18.574  0.00  0.00    +0.000 A 
ATOM     30  C   UNL     1       2.317   8.586  17.765  0.00  0.00    +0.000 A 
ATOM     31  C   UNL     1       2.912   7.399  18.212  0.00  0.00    +0.000 A 
ATOM     32  C   UNL     1       2.566   6.965  19.482  0.00  0.00    +0.000 A 
ATOM     33  C   UNL     1       1.651   7.718  20.282  0.00  0.00    +0.000 A 
BRANCH  31  34
ATOM     34  O   UNL     1       3.713   6.747  17.310  0.00  0.00    +0.000 OA
ATOM     35  C   UNL     1       4.247   5.469  17.650  0.00  0.00    +0.000 C 
ENDBRANCH  31  34
ENDBRANCH  27  28
ENDBRANCH  17  27
TORSDOF 6
ENDMDL
MODEL 2
REMARK VINA RESULT:      -6.8      2.139      3.018
REMARK  Name = 
REMARK  10 active torsions:
REMARK  status: ('A' for Active; 'I' for Inactive)
REMARK    1  A    between atoms: C_1  and  C_2
REMARK    2  A    between atoms: C_2  and  O_3
REMARK    3  A    between atoms: O_3  and  C_4
REMARK    4  A    between atoms: C_4  and  C_6
REMARK    5  A    between atoms: C_13  and  C_14
REMARK    6  A    between atoms: N_22  and  C_23
REMARK    7  A    between atoms: C_23  and  C_24
REMARK    8  A    between atoms: C_27  and  O_28
REMARK    9  A    between atoms: O_28  and  C_29
REMARK   10  A    between atoms: C_34  and  C_35
REMARK                            x       y       z     vdW  Elec       q    Type
REMARK                         _______ _______ _______ _____ _____    ______ ____
ROOT
ATOM      1  C   UNL     1      -1.863  12.226  19.732  0.00  0.00    +0.000 C 
ATOM      2  C   UNL     1      -1.041  13.460  19.210  0.00  0.00    +0.000 C 
ATOM      3  C   UNL     1      -1.390  14.935  19.357  0.00  0.00    +0.000 C 
ATOM      4  O   UNL     1      -0.343  15.761  18.782  0.00  0.00    +0.000 OA
ATOM      5  C   UNL     1       0.932  15.450  19.190  0.00  0.00    +0.000 A 
ATOM      6  C   UNL     1       1.939  16.390  18.979  0.00  0.00    +0.000 A 
ATOM      7  C   UNL     1       3.255  16.118  19.384  0.00  0.00    +0.000 A 
ATOM      8  C   UNL     1       3.556  14.930  20.055  0.00  0.00    +0.000 A 
ATOM      9  C   UNL     1       4.948  14.524  20.428  0.00  0.00    +0.000 C 
ATOM     10  C   UNL     1       2.532  14.024  20.302  0.00  0.00    +0.000 A 
ATOM     11  C   UNL     1       1.257  14.228  19.775  0.00  0.00    +0.000 A 
ATOM     12  C   UNL     1       0.240  13.166  19.915  0.00  0.00    +0.000 C 
ATOM     13  N   UNL     1       0.441  11.806  19.446  0.00  0.00    +0.000 N 
ATOM     14  C   UNL     1       1.575  11.297  18.844  0.00  0.00    +0.000 C 
ATOM     15  O   UNL     1       2.498  11.939  18.372  0.00  0.00    +0.000 OA
ATOM     16  C   UNL     1       1.581   9.790  18.827  0.00  0.00    +0.000 C 
ATOM     17  N   UNL     1       1.307   9.388  20.200  0.00  0.00    +0.000 N 
ATOM     18  C   UNL     1       0.040   9.922  20.779  0.00  0.00    +0.000 C 
ATOM     19  O   UNL     1      -0.468   9.462  21.821  0.00  0.00    +0.000 OA
ATOM     20  C   UNL     1      -0.772  11.007  19.756  0.00  0.00    +0.000 C 
ATOM     21  C   UNL     1      -1.405  10.039  18.718  0.00  0.00    +0.000 C 
ENDROOT
BRANCH   1  22
ATOM     22  C   UNL     1      -2.781  12.619  20.848  0.00  0.00    +0.000 C 
ATOM     23  O   UNL     1      -3.877  13.134  20.637  0.00  0.00    +0.000 OA
BRANCH  22  24
ATOM     24  O   UNL     1      -2.355  12.242  22.070  0.00  0.00    +0.000 OA
BRANCH  24  26
ATOM     25  C   UNL     1      -1.094  13.880  23.268  0.00  0.00    +0.000 C 
ATOM     26  C   UNL     1      -2.474  13.289  23.052  0.00  0.00    +0.000 C 
ENDBRANCH  24  26
ENDBRANCH  22  24
ENDBRANCH   1  22
BRANCH  17  27
ATOM     27  C   UNL     1       1.999   8.123  20.653  0.00  0.00    +0.000 C 
BRANCH  27  28
ATOM     28  C   UNL     1       1.942   6.759  19.857  0.00  0.00    +0.000 A 
ATOM     29  C   UNL     1       2.338   6.512  18.536  0.00  0.00    +0.000 A 
ATOM     30  C   UNL     1       2.175   5.228  17.925  0.00  0.00    +0.000 A 
ATOM     31  C   UNL     1       1.657   4.124  18.613  0.00  0.00    +0.000 A 
ATOM     32  C   UNL     1       1.269   4.332  19.928  0.00  0.00    +0.000 A 
ATOM     33  C   UNL     1       1.410   5.620  20.531  0.00  0.00    +0.000 A 
BRANCH  31  34
ATOM     34  O   UNL     1       1.512   2.971  17.887  0.00  0.00    +0.000 OA
ATOM     35  C   UNL     1       2.668   2.199  17.567  0.00  0.00    +0.000 C 
ENDBRANCH  31  34
ENDBRANCH  27  28
ENDBRANCH  17  27
TORSDOF 6
ENDMDL
MODEL 3
REMARK VINA RESULT:      -6.8      5.970      9.585
REMARK  Name = 
REMARK  10 active torsions:
REMARK  status: ('A' for Active; 'I' for Inactive)
REMARK    1  A    between atoms: C_1  and  C_2
REMARK    2  A    between atoms: C_2  and  O_3
REMARK    3  A    between atoms: O_3  and  C_4
REMARK    4  A    between atoms: C_4  and  C_6
REMARK    5  A    between atoms: C_13  and  C_14
REMARK    6  A    between atoms: N_22  and  C_23
REMARK    7  A    between atoms: C_23  and  C_24
REMARK    8  A    between atoms: C_27  and  O_28
REMARK    9  A    between atoms: O_28  and  C_29
REMARK   10  A    between atoms: C_34  and  C_35
REMARK                            x       y       z     vdW  Elec       q    Type
REMARK                         _______ _______ _______ _____ _____    ______ ____
ROOT
ATOM      1  C   UNL     1       8.186  16.820  20.801  0.00  0.00    +0.000 C 
ATOM      2  C   UNL     1       9.379  15.955  20.253  0.00  0.00    +0.000 C 
ATOM      3  C   UNL     1      10.759  15.780  20.874  0.00  0.00    +0.000 C 
ATOM      4  O   UNL     1      11.554  14.856  20.084  0.00  0.00    +0.000 OA
ATOM      5  C   UNL     1      10.930  13.672  19.774  0.00  0.00    +0.000 A 
ATOM      6  C   UNL     1      11.719  12.606  19.341  0.00  0.00    +0.000 A 
ATOM      7  C   UNL     1      11.126  11.375  19.019  0.00  0.00    +0.000 A 
ATOM      8  C   UNL     1       9.752  11.188  19.186  0.00  0.00    +0.000 A 
ATOM      9  C   UNL     1       9.033   9.942  18.771  0.00  0.00    +0.000 C 
ATOM     10  C   UNL     1       8.986  12.243  19.666  0.00  0.00    +0.000 A 
ATOM     11  C   UNL     1       9.549  13.506  19.850  0.00  0.00    +0.000 A 
ATOM     12  C   UNL     1       8.673  14.643  20.199  0.00  0.00    +0.000 C 
ATOM     13  N   UNL     1       7.530  15.041  19.396  0.00  0.00    +0.000 N 
ATOM     14  C   UNL     1       7.077  14.435  18.241  0.00  0.00    +0.000 C 
ATOM     15  O   UNL     1       7.687  13.633  17.555  0.00  0.00    +0.000 OA
ATOM     16  C   UNL     1       5.679  14.868  17.883  0.00  0.00    +0.000 C 
ATOM     17  N   UNL     1       4.895  14.680  19.096  0.00  0.00    +0.000 N 
ATOM     18  C   UNL     1       5.399  15.405  20.298  0.00  0.00    +0.000 C 
ATOM     19  O   UNL     1       4.707  15.569  21.323  0.00  0.00    +0.000 OA
ATOM     20  C   UNL     1       6.873  16.207  20.042  0.00  0.00    +0.000 C 
ATOM     21  C   UNL     1       6.413  17.447  19.225  0.00  0.00    +0.000 C 
ENDROOT
BRANCH   1  22
ATOM     22  C   UNL     1       8.328  17.068  22.272  0.00  0.00    +0.000 C 
ATOM     23  O   UNL     1       8.980  18.013  22.712  0.00  0.00    +0.000 OA
BRANCH  22  24
ATOM     24  O   UNL     1       7.581  16.253  23.042  0.00  0.00    +0.000 OA
BRANCH  24  26
ATOM     25  C   UNL     1       8.604  14.225  23.786  0.00  0.00    +0.000 C 
ATOM     26  C   UNL     1       8.324  15.676  24.133  0.00  0.00    +0.000 C 
ENDBRANCH  24  26
ENDBRANCH  22  24
ENDBRANCH   1  22
BRANCH  17  27
ATOM     27  C   UNL     1       3.460  14.259  18.879  0.00  0.00    +0.000 C 
BRANCH  27  28
ATOM     28  C   UNL     1       2.282  15.275  18.598  0.00  0.00    +0.000 A 
ATOM     29  C   UNL     1       2.367  16.579  18.093  0.00  0.00    +0.000 A 
ATOM     30  C   UNL     1       1.210  17.408  17.942  0.00  0.00    +0.000 A 
ATOM     31  C   UNL     1      -0.084  16.962  18.238  0.00  0.00    +0.000 A 
ATOM     32  C   UNL     1      -0.204  15.670  18.725  0.00  0.00    +0.000 A 
ATOM     33  C   UNL     1       0.953  14.849  18.898  0.00  0.00    +0.000 A 
BRANCH  31  34
ATOM     34  O   UNL     1      -1.090  17.881  18.091  0.00  0.00    +0.000 OA
ATOM     35  C   UNL     1      -2.141  17.925  19.055  0.00  0.00    +0.000 C 
ENDBRANCH  31  34
ENDBRANCH  27  28
ENDBRANCH  17  27
TORSDOF 6
ENDMDL
MODEL 4
REMARK VINA RESULT:      -6.7      2.083      3.048
REMARK  Name = 
REMARK  10 active torsions:
REMARK  status: ('A' for Active; 'I' for Inactive)
REMARK    1  A    between atoms: C_1  and  C_2
REMARK    2  A    between atoms: C_2  and  O_3
REMARK    3  A    between atoms: O_3  and  C_4
REMARK    4  A    between atoms: C_4  and  C_6
REMARK    5  A    between atoms: C_13  and  C_14
REMARK    6  A    between atoms: N_22  and  C_23
REMARK    7  A    between atoms: C_23  and  C_24
REMARK    8  A    between atoms: C_27  and  O_28
REMARK    9  A    between atoms: O_28  and  C_29
REMARK   10  A    between atoms: C_34  and  C_35
REMARK                            x       y       z     vdW  Elec       q    Type
REMARK                         _______ _______ _______ _____ _____    ______ ____
ROOT
ATOM      1  C   UNL     1      -1.794  12.223  19.404  0.00  0.00    +0.000 C 
ATOM      2  C   UNL     1      -0.914  13.467  19.018  0.00  0.00    +0.000 C 
ATOM      3  C   UNL     1      -1.224  14.937  19.274  0.00  0.00    +0.000 C 
ATOM      4  O   UNL     1      -0.130  15.771  18.809  0.00  0.00    +0.000 OA
ATOM      5  C   UNL     1       1.117  15.384  19.236  0.00  0.00    +0.000 A 
ATOM      6  C   UNL     1       2.160  16.305  19.142  0.00  0.00    +0.000 A 
ATOM      7  C   UNL     1       3.450  15.956  19.572  0.00  0.00    +0.000 A 
ATOM      8  C   UNL     1       3.688  14.708  20.152  0.00  0.00    +0.000 A 
ATOM      9  C   UNL     1       5.051  14.225  20.542  0.00  0.00    +0.000 C 
ATOM     10  C   UNL     1       2.628  13.819  20.285  0.00  0.00    +0.000 A 
ATOM     11  C   UNL     1       1.382  14.109  19.730  0.00  0.00    +0.000 A 
ATOM     12  C   UNL     1       0.328  13.074  19.743  0.00  0.00    +0.000 C 
ATOM     13  N   UNL     1       0.506  11.751  19.170  0.00  0.00    +0.000 N 
ATOM     14  C   UNL     1       1.647  11.255  18.570  0.00  0.00    +0.000 C 
ATOM     15  O   UNL     1       2.607  11.902  18.188  0.00  0.00    +0.000 OA
ATOM     16  C   UNL     1       1.608   9.755  18.428  0.00  0.00    +0.000 C 
ATOM     17  N   UNL     1       1.267   9.251  19.752  0.00  0.00    +0.000 N 
ATOM     18  C   UNL     1      -0.005   9.779  20.326  0.00  0.00    +0.000 C 
ATOM     19  O   UNL     1      -0.568   9.252  21.307  0.00  0.00    +0.000 OA
ATOM     20  C   UNL     1      -0.742  10.970  19.368  0.00  0.00    +0.000 C 
ATOM     21  C   UNL     1      -1.363  10.112  18.230  0.00  0.00    +0.000 C 
ENDROOT
BRANCH   1  22
ATOM     22  C   UNL     1      -2.743  12.554  20.515  0.00  0.00    +0.000 C 
ATOM     23  O   UNL     1      -3.868  12.998  20.297  0.00  0.00    +0.000 OA
BRANCH  22  24
ATOM     24  O   UNL     1      -2.303  12.203  21.739  0.00  0.00    +0.000 OA
BRANCH  24  26
ATOM     25  C   UNL     1      -1.083  13.721  23.124  0.00  0.00    +0.000 C 
ATOM     26  C   UNL     1      -2.466  13.250  22.715  0.00  0.00    +0.000 C 
ENDBRANCH  24  26
ENDBRANCH  22  24
ENDBRANCH   1  22
BRANCH  17  27
ATOM     27  C   UNL     1       1.902   7.931  20.124  0.00  0.00    +0.000 C 
BRANCH  27  28
ATOM     28  C   UNL     1       2.635   6.988  19.088  0.00  0.00    +0.000 A 
ATOM     29  C   UNL     1       3.567   7.345  18.105  0.00  0.00    +0.000 A 
ATOM     30  C   UNL     1       4.110   6.382  17.195  0.00  0.00    +0.000 A 
ATOM     31  C   UNL     1       3.788   5.021  17.253  0.00  0.00    +0.000 A 
ATOM     32  C   UNL     1       2.879   4.633  18.225  0.00  0.00    +0.000 A 
ATOM     33  C   UNL     1       2.319   5.597  19.120  0.00  0.00    +0.000 A 
BRANCH  31  34
ATOM     34  O   UNL     1       4.346   4.225  16.286  0.00  0.00    +0.000 OA
ATOM     35  C   UNL     1       5.591   4.605  15.703  0.00  0.00    +0.000 C 
ENDBRANCH  31  34
ENDBRANCH  27  28
ENDBRANCH  17  27
TORSDOF 6
ENDMDL
MODEL 5
REMARK VINA RESULT:      -6.6      2.559      6.362
REMARK  Name = 
REMARK  10 active torsions:
REMARK  status: ('A' for Active; 'I' for Inactive)
REMARK    1  A    between atoms: C_1  and  C_2
REMARK    2  A    between atoms: C_2  and  O_3
REMARK    3  A    between atoms: O_3  and  C_4
REMARK    4  A    between atoms: C_4  and  C_6
REMARK    5  A    between atoms: C_13  and  C_14
REMARK    6  A    between atoms: N_22  and  C_23
REMARK    7  A    between atoms: C_23  and  C_24
REMARK    8  A    between atoms: C_27  and  O_28
REMARK    9  A    between atoms: O_28  and  C_29
REMARK   10  A    between atoms: C_34  and  C_35
REMARK                            x       y       z     vdW  Elec       q    Type
REMARK                         _______ _______ _______ _____ _____    ______ ____
ROOT
ATOM      1  C   UNL     1      -1.382  14.660  22.400  0.00  0.00    +0.000 C 
ATOM      2  C   UNL     1      -1.121  13.156  22.774  0.00  0.00    +0.000 C 
ATOM      3  C   UNL     1      -2.138  12.129  23.253  0.00  0.00    +0.000 C 
ATOM      4  O   UNL     1      -1.502  10.837  23.440  0.00  0.00    +0.000 OA
ATOM      5  C   UNL     1      -0.737  10.408  22.382  0.00  0.00    +0.000 A 
ATOM      6  C   UNL     1      -0.391   9.059  22.325  0.00  0.00    +0.000 A 
ATOM      7  C   UNL     1       0.384   8.574  21.260  0.00  0.00    +0.000 A 
ATOM      8  C   UNL     1       0.765   9.425  20.219  0.00  0.00    +0.000 A 
ATOM      9  C   UNL     1       1.672   9.008  19.103  0.00  0.00    +0.000 C 
ATOM     10  C   UNL     1       0.370  10.756  20.264  0.00  0.00    +0.000 A 
ATOM     11  C   UNL     1      -0.276  11.269  21.389  0.00  0.00    +0.000 A 
ATOM     12  C   UNL     1      -0.531  12.722  21.475  0.00  0.00    +0.000 C 
ATOM     13  N   UNL     1       0.519  13.720  21.366  0.00  0.00    +0.000 N 
ATOM     14  C   UNL     1       1.863  13.490  21.147  0.00  0.00    +0.000 C 
ATOM     15  O   UNL     1       2.444  12.424  21.259  0.00  0.00    +0.000 OA
ATOM     16  C   UNL     1       2.592  14.738  20.723  0.00  0.00    +0.000 C 
ATOM     17  N   UNL     1       1.812  15.285  19.621  0.00  0.00    +0.000 N 
ATOM     18  C   UNL     1       0.381  15.567  19.932  0.00  0.00    +0.000 C 
ATOM     19  O   UNL     1      -0.338  16.277  19.200  0.00  0.00    +0.000 OA
ATOM     20  C   UNL     1      -0.090  15.071  21.485  0.00  0.00    +0.000 C 
ATOM     21  C   UNL     1       0.543  16.180  22.371  0.00  0.00    +0.000 C 
ENDROOT
BRANCH   1  22
ATOM     22  C   UNL     1      -2.823  14.891  22.058  0.00  0.00    +0.000 C 
ATOM     23  O   UNL     1      -3.606  15.402  22.855  0.00  0.00    +0.000 OA
BRANCH  22  24
ATOM     24  O   UNL     1      -3.135  14.611  20.777  0.00  0.00    +0.000 OA
BRANCH  24  26
ATOM     25  C   UNL     1      -4.354  12.644  20.181  0.00  0.00    +0.000 C 
ATOM     26  C   UNL     1      -4.470  14.089  20.628  0.00  0.00    +0.000 C 
ENDBRANCH  24  26
ENDBRANCH  22  24
ENDBRANCH   1  22
BRANCH  17  27
ATOM     27  C   UNL     1       2.614  15.973  18.541  0.00  0.00    +0.000 C 
BRANCH  27  28
ATOM     28  C   UNL     1       4.194  15.966  18.484  0.00  0.00    +0.000 A 
ATOM     29  C   UNL     1       5.080  16.942  18.960  0.00  0.00    +0.000 A 
ATOM     30  C   UNL     1       6.496  16.825  18.787  0.00  0.00    +0.000 A 
ATOM     31  C   UNL     1       7.095  15.714  18.180  0.00  0.00    +0.000 A 
ATOM     32  C   UNL     1       6.246  14.724  17.712  0.00  0.00    +0.000 A 
ATOM     33  C   UNL     1       4.830  14.850  17.863  0.00  0.00    +0.000 A 
BRANCH  31  34
ATOM     34  O   UNL     1       8.458  15.762  18.040  0.00  0.00    +0.000 OA
ATOM     35  C   UNL     1       9.202  14.545  18.043  0.00  0.00    +0.000 C 
ENDBRANCH  31  34
ENDBRANCH  27  28
ENDBRANCH  17  27
TORSDOF 6
ENDMDL
MODEL 6
REMARK VINA RESULT:      -6.6      2.404      3.349
REMARK  Name = 
REMARK  10 active torsions:
REMARK  status: ('A' for Active; 'I' for Inactive)
REMARK    1  A    between atoms: C_1  and  C_2
REMARK    2  A    between atoms: C_2  and  O_3
REMARK    3  A    between atoms: O_3  and  C_4
REMARK    4  A    between atoms: C_4  and  C_6
REMARK    5  A    between atoms: C_13  and  C_14
REMARK    6  A    between atoms: N_22  and  C_23
REMARK    7  A    between atoms: C_23  and  C_24
REMARK    8  A    between atoms: C_27  and  O_28
REMARK    9  A    between atoms: O_28  and  C_29
REMARK   10  A    between atoms: C_34  and  C_35
REMARK                            x       y       z     vdW  Elec       q    Type
REMARK                         _______ _______ _______ _____ _____    ______ ____
ROOT
ATOM      1  C   UNL     1      -1.773  12.133  19.446  0.00  0.00    +0.000 C 
ATOM      2  C   UNL     1      -0.913  13.403  19.103  0.00  0.00    +0.000 C 
ATOM      3  C   UNL     1      -1.232  14.855  19.433  0.00  0.00    +0.000 C 
ATOM      4  O   UNL     1      -0.155  15.722  18.989  0.00  0.00    +0.000 OA
ATOM      5  C   UNL     1       1.103  15.329  19.377  0.00  0.00    +0.000 A 
ATOM      6  C   UNL     1       2.135  16.264  19.307  0.00  0.00    +0.000 A 
ATOM      7  C   UNL     1       3.436  15.909  19.698  0.00  0.00    +0.000 A 
ATOM      8  C   UNL     1       3.696  14.637  20.215  0.00  0.00    +0.000 A 
ATOM      9  C   UNL     1       5.070  14.151  20.558  0.00  0.00    +0.000 C 
ATOM     10  C   UNL     1       2.648  13.733  20.325  0.00  0.00    +0.000 A 
ATOM     11  C   UNL     1       1.388  14.034  19.805  0.00  0.00    +0.000 A 
ATOM     12  C   UNL     1       0.345  12.989  19.787  0.00  0.00    +0.000 C 
ATOM     13  N   UNL     1       0.526  11.696  19.150  0.00  0.00    +0.000 N 
ATOM     14  C   UNL     1       1.661  11.240  18.508  0.00  0.00    +0.000 C 
ATOM     15  O   UNL     1       2.608  11.915  18.140  0.00  0.00    +0.000 OA
ATOM     16  C   UNL     1       1.634   9.749  18.297  0.00  0.00    +0.000 C 
ATOM     17  N   UNL     1       1.322   9.180  19.601  0.00  0.00    +0.000 N 
ATOM     18  C   UNL     1       0.055   9.667  20.221  0.00  0.00    +0.000 C 
ATOM     19  O   UNL     1      -0.486   9.089  21.185  0.00  0.00    +0.000 OA
ATOM     20  C   UNL     1      -0.711  10.894  19.333  0.00  0.00    +0.000 C 
ATOM     21  C   UNL     1      -1.343  10.084  18.166  0.00  0.00    +0.000 C 
ENDROOT
BRANCH   1  22
ATOM     22  C   UNL     1      -2.706  12.402  20.587  0.00  0.00    +0.000 C 
ATOM     23  O   UNL     1      -2.313  12.454  21.750  0.00  0.00    +0.000 OA
BRANCH  22  24
ATOM     24  O   UNL     1      -3.964  12.704  20.209  0.00  0.00    +0.000 OA
BRANCH  24  26
ATOM     25  C   UNL     1      -5.779  12.465  18.672  0.00  0.00    +0.000 C 
ATOM     26  C   UNL     1      -4.344  12.073  18.971  0.00  0.00    +0.000 C 
ENDBRANCH  24  26
ENDBRANCH  22  24
ENDBRANCH   1  22
BRANCH  17  27
ATOM     27  C   UNL     1       1.975   7.851  19.900  0.00  0.00    +0.000 C 
BRANCH  27  28
ATOM     28  C   UNL     1       2.817   7.031  18.842  0.00  0.00    +0.000 A 
ATOM     29  C   UNL     1       3.777   7.511  17.942  0.00  0.00    +0.000 A 
ATOM     30  C   UNL     1       4.423   6.652  16.997  0.00  0.00    +0.000 A 
ATOM     31  C   UNL     1       4.180   5.274  16.938  0.00  0.00    +0.000 A 
ATOM     32  C   UNL     1       3.246   4.765  17.826  0.00  0.00    +0.000 A 
ATOM     33  C   UNL     1       2.583   5.626  18.755  0.00  0.00    +0.000 A 
BRANCH  31  34
ATOM     34  O   UNL     1       4.835   4.585  15.950  0.00  0.00    +0.000 OA
ATOM     35  C   UNL     1       5.731   5.285  15.089  0.00  0.00    +0.000 C 
ENDBRANCH  31  34
ENDBRANCH  27  28
ENDBRANCH  17  27
TORSDOF 6
ENDMDL
MODEL 7
REMARK VINA RESULT:      -6.6      5.873      8.432
REMARK  Name = 
REMARK  10 active torsions:
REMARK  status: ('A' for Active; 'I' for Inactive)
REMARK    1  A    between atoms: C_1  and  C_2
REMARK    2  A    between atoms: C_2  and  O_3
REMARK    3  A    between atoms: O_3  and  C_4
REMARK    4  A    between atoms: C_4  and  C_6
REMARK    5  A    between atoms: C_13  and  C_14
REMARK    6  A    between atoms: N_22  and  C_23
REMARK    7  A    between atoms: C_23  and  C_24
REMARK    8  A    between atoms: C_27  and  O_28
REMARK    9  A    between atoms: O_28  and  C_29
REMARK   10  A    between atoms: C_34  and  C_35
REMARK                            x       y       z     vdW  Elec       q    Type
REMARK                         _______ _______ _______ _____ _____    ______ ____
ROOT
ATOM      1  C   UNL     1       7.788  16.437  21.274  0.00  0.00    +0.000 C 
ATOM      2  C   UNL     1       9.034  15.616  20.782  0.00  0.00    +0.000 C 
ATOM      3  C   UNL     1      10.304  15.301  21.562  0.00  0.00    +0.000 C 
ATOM      4  O   UNL     1      11.192  14.471  20.768  0.00  0.00    +0.000 OA
ATOM      5  C   UNL     1      10.603  13.368  20.200  0.00  0.00    +0.000 A 
ATOM      6  C   UNL     1      11.429  12.347  19.732  0.00  0.00    +0.000 A 
ATOM      7  C   UNL     1      10.871  11.198  19.150  0.00  0.00    +0.000 A 
ATOM      8  C   UNL     1       9.484  11.040  19.089  0.00  0.00    +0.000 A 
ATOM      9  C   UNL     1       8.814   9.894  18.396  0.00  0.00    +0.000 C 
ATOM     10  C   UNL     1       8.673  12.043  19.604  0.00  0.00    +0.000 A 
ATOM     11  C   UNL     1       9.223  13.245  20.051  0.00  0.00    +0.000 A 
ATOM     12  C   UNL     1       8.324  14.352  20.434  0.00  0.00    +0.000 C 
ATOM     13  N   UNL     1       7.318  14.904  19.543  0.00  0.00    +0.000 N 
ATOM     14  C   UNL     1       7.031  14.487  18.258  0.00  0.00    +0.000 C 
ATOM     15  O   UNL     1       7.723  13.769  17.556  0.00  0.00    +0.000 OA
ATOM     16  C   UNL     1       5.708  15.019  17.770  0.00  0.00    +0.000 C 
ATOM     17  N   UNL     1       4.751  14.689  18.816  0.00  0.00    +0.000 N 
ATOM     18  C   UNL     1       5.083  15.214  20.173  0.00  0.00    +0.000 C 
ATOM     19  O   UNL     1       4.249  15.255  21.100  0.00  0.00    +0.000 OA
ATOM     20  C   UNL     1       6.591  15.989  20.252  0.00  0.00    +0.000 C 
ATOM     21  C   UNL     1       6.277  17.349  19.570  0.00  0.00    +0.000 C 
ENDROOT
BRANCH   1  22
ATOM     22  C   UNL     1       7.715  16.466  22.770  0.00  0.00    +0.000 C 
ATOM     23  O   UNL     1       8.220  17.373  23.428  0.00  0.00    +0.000 OA
BRANCH  22  24
ATOM     24  O   UNL     1       6.946  15.496  23.302  0.00  0.00    +0.000 OA
BRANCH  24  26
ATOM     25  C   UNL     1       8.290  14.004  24.600  0.00  0.00    +0.000 C 
ATOM     26  C   UNL     1       7.316  15.167  24.656  0.00  0.00    +0.000 C 
ENDBRANCH  24  26
ENDBRANCH  22  24
ENDBRANCH   1  22
BRANCH  17  27
ATOM     27  C   UNL     1       3.357  14.357  18.336  0.00  0.00    +0.000 C 
BRANCH  27  28
ATOM     28  C   UNL     1       2.500  13.154  18.898  0.00  0.00    +0.000 A 
ATOM     29  C   UNL     1       1.816  13.076  20.118  0.00  0.00    +0.000 A 
ATOM     30  C   UNL     1       1.121  11.891  20.521  0.00  0.00    +0.000 A 
ATOM     31  C   UNL     1       1.035  10.753  19.710  0.00  0.00    +0.000 A 
ATOM     32  C   UNL     1       1.688  10.803  18.489  0.00  0.00    +0.000 A 
ATOM     33  C   UNL     1       2.402  11.978  18.096  0.00  0.00    +0.000 A 
BRANCH  31  34
ATOM     34  O   UNL     1       0.378   9.675  20.247  0.00  0.00    +0.000 OA
ATOM     35  C   UNL     1       0.507   9.404  21.641  0.00  0.00    +0.000 C 
ENDBRANCH  31  34
ENDBRANCH  27  28
ENDBRANCH  17  27
TORSDOF 6
ENDMDL
MODEL 8
REMARK VINA RESULT:      -6.6      2.828      5.809
REMARK  Name = 
REMARK  10 active torsions:
REMARK  status: ('A' for Active; 'I' for Inactive)
REMARK    1  A    between atoms: C_1  and  C_2
REMARK    2  A    between atoms: C_2  and  O_3
REMARK    3  A    between atoms: O_3  and  C_4
REMARK    4  A    between atoms: C_4  and  C_6
REMARK    5  A    between atoms: C_13  and  C_14
REMARK    6  A    between atoms: N_22  and  C_23
REMARK    7  A    between atoms: C_23  and  C_24
REMARK    8  A    between atoms: C_27  and  O_28
REMARK    9  A    between atoms: O_28  and  C_29
REMARK   10  A    between atoms: C_34  and  C_35
REMARK                            x       y       z     vdW  Elec       q    Type
REMARK                         _______ _______ _______ _____ _____    ______ ____
ROOT
ATOM      1  C   UNL     1       1.226  15.132  20.707  0.00  0.00    +0.000 C 
ATOM      2  C   UNL     1       0.741  15.320  22.190  0.00  0.00    +0.000 C 
ATOM      3  C   UNL     1       0.531  16.631  22.937  0.00  0.00    +0.000 C 
ATOM      4  O   UNL     1       0.025  16.374  24.274  0.00  0.00    +0.000 OA
ATOM      5  C   UNL     1      -1.051  15.522  24.334  0.00  0.00    +0.000 A 
ATOM      6  C   UNL     1      -1.809  15.501  25.504  0.00  0.00    +0.000 A 
ATOM      7  C   UNL     1      -2.921  14.651  25.608  0.00  0.00    +0.000 A 
ATOM      8  C   UNL     1      -3.314  13.865  24.522  0.00  0.00    +0.000 A 
ATOM      9  C   UNL     1      -4.424  12.862  24.588  0.00  0.00    +0.000 C 
ATOM     10  C   UNL     1      -2.578  13.934  23.346  0.00  0.00    +0.000 A 
ATOM     11  C   UNL     1      -1.393  14.667  23.289  0.00  0.00    +0.000 A 
ATOM     12  C   UNL     1      -0.550  14.583  22.079  0.00  0.00    +0.000 C 
ATOM     13  N   UNL     1      -0.042  13.330  21.549  0.00  0.00    +0.000 N 
ATOM     14  C   UNL     1      -0.274  12.064  22.050  0.00  0.00    +0.000 C 
ATOM     15  O   UNL     1      -0.724  11.789  23.150  0.00  0.00    +0.000 OA
ATOM     16  C   UNL     1       0.086  10.986  21.061  0.00  0.00    +0.000 C 
ATOM     17  N   UNL     1      -0.588  11.357  19.824  0.00  0.00    +0.000 N 
ATOM     18  C   UNL     1      -0.255  12.713  19.299  0.00  0.00    +0.000 C 
ATOM     19  O   UNL     1      -0.526  13.068  18.134  0.00  0.00    +0.000 OA
ATOM     20  C   UNL     1       0.754  13.612  20.327  0.00  0.00    +0.000 C 
ATOM     21  C   UNL     1       2.133  12.942  20.072  0.00  0.00    +0.000 C 
ENDROOT
BRANCH   1  22
ATOM     22  C   UNL     1       0.982  16.368  19.896  0.00  0.00    +0.000 C 
ATOM     23  O   UNL     1       1.856  17.215  19.723  0.00  0.00    +0.000 OA
BRANCH  22  24
ATOM     24  O   UNL     1      -0.216  16.394  19.281  0.00  0.00    +0.000 OA
BRANCH  24  26
ATOM     25  C   UNL     1      -2.377  17.311  19.730  0.00  0.00    +0.000 C 
ATOM     26  C   UNL     1      -0.918  17.638  19.474  0.00  0.00    +0.000 C 
ENDBRANCH  24  26
ENDBRANCH  22  24
ENDBRANCH   1  22
BRANCH  17  27
ATOM     27  C   UNL     1      -1.077  10.201  18.983  0.00  0.00    +0.000 C 
BRANCH  27  28
ATOM     28  C   UNL     1      -2.017  10.371  17.723  0.00  0.00    +0.000 A 
ATOM     29  C   UNL     1      -3.158  11.175  17.598  0.00  0.00    +0.000 A 
ATOM     30  C   UNL     1      -3.948  11.185  16.404  0.00  0.00    +0.000 A 
ATOM     31  C   UNL     1      -3.612  10.437  15.269  0.00  0.00    +0.000 A 
ATOM     32  C   UNL     1      -2.479   9.643  15.355  0.00  0.00    +0.000 A 
ATOM     33  C   UNL     1      -1.703   9.614  16.554  0.00  0.00    +0.000 A 
BRANCH  31  34
ATOM     34  O   UNL     1      -4.487  10.508  14.216  0.00  0.00    +0.000 OA
ATOM     35  C   UNL     1      -4.159   9.856  12.991  0.00  0.00    +0.000 C 
ENDBRANCH  31  34
ENDBRANCH  27  28
ENDBRANCH  17  27
TORSDOF 6
ENDMDL
MODEL 9
REMARK VINA RESULT:      -6.5      2.503      6.258
REMARK  Name = 
REMARK  10 active torsions:
REMARK  status: ('A' for Active; 'I' for Inactive)
REMARK    1  A    between atoms: C_1  and  C_2
REMARK    2  A    between atoms: C_2  and  O_3
REMARK    3  A    between atoms: O_3  and  C_4
REMARK    4  A    between atoms: C_4  and  C_6
REMARK    5  A    between atoms: C_13  and  C_14
REMARK    6  A    between atoms: N_22  and  C_23
REMARK    7  A    between atoms: C_23  and  C_24
REMARK    8  A    between atoms: C_27  and  O_28
REMARK    9  A    between atoms: O_28  and  C_29
REMARK   10  A    between atoms: C_34  and  C_35
REMARK                            x       y       z     vdW  Elec       q    Type
REMARK                         _______ _______ _______ _____ _____    ______ ____
ROOT
ATOM      1  C   UNL     1      -1.465  14.669  22.277  0.00  0.00    +0.000 C 
ATOM      2  C   UNL     1      -1.199  13.178  22.695  0.00  0.00    +0.000 C 
ATOM      3  C   UNL     1      -2.216  12.157  23.189  0.00  0.00    +0.000 C 
ATOM      4  O   UNL     1      -1.573  10.876  23.421  0.00  0.00    +0.000 OA
ATOM      5  C   UNL     1      -0.791  10.423  22.386  0.00  0.00    +0.000 A 
ATOM      6  C   UNL     1      -0.435   9.075  22.372  0.00  0.00    +0.000 A 
ATOM      7  C   UNL     1       0.358   8.566  21.331  0.00  0.00    +0.000 A 
ATOM      8  C   UNL     1       0.747   9.390  20.272  0.00  0.00    +0.000 A 
ATOM      9  C   UNL     1       1.673   8.949  19.181  0.00  0.00    +0.000 C 
ATOM     10  C   UNL     1       0.343  10.719  20.275  0.00  0.00    +0.000 A 
ATOM     11  C   UNL     1      -0.322  11.259  21.376  0.00  0.00    +0.000 A 
ATOM     12  C   UNL     1      -0.588  12.712  21.418  0.00  0.00    +0.000 C 
ATOM     13  N   UNL     1       0.456  13.714  21.295  0.00  0.00    +0.000 N 
ATOM     14  C   UNL     1       1.805  13.487  21.101  0.00  0.00    +0.000 C 
ATOM     15  O   UNL     1       2.392  12.429  21.251  0.00  0.00    +0.000 OA
ATOM     16  C   UNL     1       2.531  14.729  20.652  0.00  0.00    +0.000 C 
ATOM     17  N   UNL     1       1.764  15.238  19.525  0.00  0.00    +0.000 N 
ATOM     18  C   UNL     1       0.326  15.520  19.808  0.00  0.00    +0.000 C 
ATOM     19  O   UNL     1      -0.387  16.204  19.047  0.00  0.00    +0.000 OA
ATOM     20  C   UNL     1      -0.163  15.063  21.368  0.00  0.00    +0.000 C 
ATOM     21  C   UNL     1       0.450  16.202  22.231  0.00  0.00    +0.000 C 
ENDROOT
BRANCH   1  22
ATOM     22  C   UNL     1      -2.902  14.880  21.908  0.00  0.00    +0.000 C 
ATOM     23  O   UNL     1      -3.336  14.595  20.794  0.00  0.00    +0.000 OA
BRANCH  22  24
ATOM     24  O   UNL     1      -3.680  15.277  22.934  0.00  0.00    +0.000 OA
BRANCH  24  26
ATOM     25  C   UNL     1      -3.718  16.475  25.001  0.00  0.00    +0.000 C 
ATOM     26  C   UNL     1      -3.191  16.469  23.579  0.00  0.00    +0.000 C 
ENDBRANCH  24  26
ENDBRANCH  22  24
ENDBRANCH   1  22
BRANCH  17  27
ATOM     27  C   UNL     1       2.576  15.902  18.437  0.00  0.00    +0.000 C 
BRANCH  27  28
ATOM     28  C   UNL     1       4.149  15.787  18.324  0.00  0.00    +0.000 A 
ATOM     29  C   UNL     1       4.902  14.728  17.801  0.00  0.00    +0.000 A 
ATOM     30  C   UNL     1       6.334  14.741  17.816  0.00  0.00    +0.000 A 
ATOM     31  C   UNL     1       7.076  15.823  18.304  0.00  0.00    +0.000 A 
ATOM     32  C   UNL     1       6.359  16.894  18.815  0.00  0.00    +0.000 A 
ATOM     33  C   UNL     1       4.929  16.873  18.822  0.00  0.00    +0.000 A 
BRANCH  31  34
ATOM     34  O   UNL     1       8.439  15.675  18.299  0.00  0.00    +0.000 OA
ATOM     35  C   UNL     1       8.997  14.365  18.214  0.00  0.00    +0.000 C 
ENDBRANCH  31  34
ENDBRANCH  27  28
ENDBRANCH  17  27
TORSDOF 6
ENDMDL
