MODEL 1
REMARK VINA RESULT:      -6.9      0.000      0.000
REMARK  Name = 
REMARK  6 active torsions:
REMARK  status: ('A' for Active; 'I' for Inactive)
REMARK    1  A    between atoms: C_1  and  C_2
REMARK    2  A    between atoms: C_6  and  C_7
REMARK    3  A    between atoms: C_9  and  C_10
REMARK    4  A    between atoms: C_10  and  C_11
REMARK    5  A    between atoms: N_17  and  S_18
REMARK    6  A    between atoms: S_18  and  C_21
REMARK                            x       y       z     vdW  Elec       q    Type
REMARK                         _______ _______ _______ _____ _____    ______ ____
ROOT
ATOM      1  C   UNL     1       0.741   2.724  18.264  0.00  0.00    +0.000 C 
ATOM      2  C   UNL     1       1.476   3.694  19.188  0.00  0.00    +0.000 C 
ATOM      3  C   UNL     1       1.093   3.578  20.668  0.00  0.00    +0.000 C 
ATOM      4  C   UNL     1       1.801   2.467  21.425  0.00  0.00    +0.000 C 
ATOM      5  C   UNL     1       3.301   2.536  21.181  0.00  0.00    +0.000 C 
ATOM      6  C   UNL     1       3.647   2.530  19.685  0.00  0.00    +0.000 C 
ATOM      7  C   UNL     1       3.400   1.145  19.070  0.00  0.00    +0.000 C 
ATOM      8  N   UNL     1       2.933   3.643  18.991  0.00  0.00    +0.000 N 
ATOM      9  C   UNL     1       3.606   4.378  17.975  0.00  0.00    +0.000 C 
ATOM     10  N   UNL     1       4.653   3.804  17.424  0.00  0.00    +0.000 NA
ENDROOT
BRANCH  10  11
ATOM     11  S   UNL     1       5.558   4.525  16.288  0.00  0.00    +0.000 S 
ATOM     12  O   UNL     1       6.424   3.547  15.655  0.00  0.00    +0.000 OA
ATOM     13  O   UNL     1       4.711   5.384  15.481  0.00  0.00    +0.000 OA
BRANCH  11  14
ATOM     14  C   UNL     1       6.668   5.601  17.184  0.00  0.00    +0.000 A 
ATOM     15  C   UNL     1       6.856   6.908  16.722  0.00  0.00    +0.000 A 
ATOM     16  C   UNL     1       7.651   7.788  17.456  0.00  0.00    +0.000 A 
ATOM     17  C   UNL     1       8.248   7.367  18.646  0.00  0.00    +0.000 A 
ATOM     18  C   UNL     1       8.049   6.064  19.109  0.00  0.00    +0.000 A 
ATOM     19  C   UNL     1       7.255   5.177  18.379  0.00  0.00    +0.000 A 
ENDBRANCH  11  14
ENDBRANCH  10  11
BRANCH   9  20
ATOM     20  C   UNL     1       3.216   5.846  17.556  0.00  0.00    +0.000 C 
BRANCH  20  21
ATOM     21  C   UNL     1       3.630   7.211  18.148  0.00  0.00    +0.000 C 
ATOM     22  C   UNL     1       2.921   8.422  17.522  0.00  0.00    +0.000 C 
ATOM     23  C   UNL     1       1.608   8.910  18.154  0.00  0.00    +0.000 C 
ATOM     24  C   UNL     1       1.128   8.310  19.475  0.00  0.00    +0.000 C 
ATOM     25  C   UNL     1       1.924   7.140  20.024  0.00  0.00    +0.000 C 
ATOM     26  C   UNL     1       3.398   7.244  19.674  0.00  0.00    +0.000 C 
ENDBRANCH  20  21
ENDBRANCH   9  20
TORSDOF 4
ENDMDL
MODEL 2
REMARK VINA RESULT:      -6.8      2.486      5.492
REMARK  Name = 
REMARK  6 active torsions:
REMARK  status: ('A' for Active; 'I' for Inactive)
REMARK    1  A    between atoms: C_1  and  C_2
REMARK    2  A    between atoms: C_6  and  C_7
REMARK    3  A    between atoms: C_9  and  C_10
REMARK    4  A    between atoms: C_10  and  C_11
REMARK    5  A    between atoms: N_17  and  S_18
REMARK    6  A    between atoms: S_18  and  C_21
REMARK                            x       y       z     vdW  Elec       q    Type
REMARK                         _______ _______ _______ _____ _____    ______ ____
ROOT
ATOM      1  C   UNL     1       4.569   3.407  19.700  0.00  0.00    +0.000 C 
ATOM      2  C   UNL     1       3.630   3.349  18.495  0.00  0.00    +0.000 C 
ATOM      3  C   UNL     1       3.091   1.950  18.175  0.00  0.00    +0.000 C 
ATOM      4  C   UNL     1       1.895   1.520  19.009  0.00  0.00    +0.000 C 
ATOM      5  C   UNL     1       0.831   2.607  19.004  0.00  0.00    +0.000 C 
ATOM      6  C   UNL     1       1.387   3.968  19.446  0.00  0.00    +0.000 C 
ATOM      7  C   UNL     1       1.685   3.976  20.952  0.00  0.00    +0.000 C 
ATOM      8  N   UNL     1       2.552   4.346  18.591  0.00  0.00    +0.000 N 
ATOM      9  C   UNL     1       2.708   5.700  18.181  0.00  0.00    +0.000 C 
ATOM     10  N   UNL     1       2.066   6.608  18.883  0.00  0.00    +0.000 NA
ENDROOT
BRANCH  10  11
ATOM     11  S   UNL     1       2.100   8.188  18.521  0.00  0.00    +0.000 S 
ATOM     12  O   UNL     1       3.469   8.668  18.539  0.00  0.00    +0.000 OA
ATOM     13  O   UNL     1       1.255   8.428  17.365  0.00  0.00    +0.000 OA
BRANCH  11  14
ATOM     14  C   UNL     1       1.315   9.004  19.904  0.00  0.00    +0.000 A 
ATOM     15  C   UNL     1       0.614  10.191  19.673  0.00  0.00    +0.000 A 
ATOM     16  C   UNL     1      -0.078  10.796  20.723  0.00  0.00    +0.000 A 
ATOM     17  C   UNL     1      -0.072  10.214  21.992  0.00  0.00    +0.000 A 
ATOM     18  C   UNL     1       0.621   9.022  22.216  0.00  0.00    +0.000 A 
ATOM     19  C   UNL     1       1.315   8.411  21.169  0.00  0.00    +0.000 A 
ENDBRANCH  11  14
ENDBRANCH  10  11
BRANCH   9  20
ATOM     20  C   UNL     1       3.520   6.138  16.904  0.00  0.00    +0.000 C 
BRANCH  20  21
ATOM     21  C   UNL     1       4.957   6.686  16.757  0.00  0.00    +0.000 C 
ATOM     22  C   UNL     1       5.972   6.094  17.745  0.00  0.00    +0.000 C 
ATOM     23  C   UNL     1       6.755   4.839  17.329  0.00  0.00    +0.000 C 
ATOM     24  C   UNL     1       6.645   4.311  15.898  0.00  0.00    +0.000 C 
ATOM     25  C   UNL     1       5.635   4.993  14.993  0.00  0.00    +0.000 C 
ATOM     26  C   UNL     1       5.485   6.468  15.323  0.00  0.00    +0.000 C 
ENDBRANCH  20  21
ENDBRANCH   9  20
TORSDOF 4
ENDMDL
MODEL 3
REMARK VINA RESULT:      -6.7      2.282      5.904
REMARK  Name = 
REMARK  6 active torsions:
REMARK  status: ('A' for Active; 'I' for Inactive)
REMARK    1  A    between atoms: C_1  and  C_2
REMARK    2  A    between atoms: C_6  and  C_7
REMARK    3  A    between atoms: C_9  and  C_10
REMARK    4  A    between atoms: C_10  and  C_11
REMARK    5  A    between atoms: N_17  and  S_18
REMARK    6  A    between atoms: S_18  and  C_21
REMARK                            x       y       z     vdW  Elec       q    Type
REMARK                         _______ _______ _______ _____ _____    ______ ____
ROOT
ATOM      1  C   UNL     1       5.187   5.666  14.993  0.00  0.00    +0.000 C 
ATOM      2  C   UNL     1       5.373   4.602  16.074  0.00  0.00    +0.000 C 
ATOM      3  C   UNL     1       6.710   3.855  16.008  0.00  0.00    +0.000 C 
ATOM      4  C   UNL     1       7.880   4.581  16.653  0.00  0.00    +0.000 C 
ATOM      5  C   UNL     1       7.504   5.049  18.050  0.00  0.00    +0.000 C 
ATOM      6  C   UNL     1       6.222   5.896  18.055  0.00  0.00    +0.000 C 
ATOM      7  C   UNL     1       6.475   7.276  17.434  0.00  0.00    +0.000 C 
ATOM      8  N   UNL     1       5.105   5.135  17.419  0.00  0.00    +0.000 N 
ATOM      9  C   UNL     1       3.798   5.218  17.975  0.00  0.00    +0.000 C 
ATOM     10  N   UNL     1       3.552   6.247  18.757  0.00  0.00    +0.000 NA
ENDROOT
BRANCH  10  11
ATOM     11  S   UNL     1       2.131   6.465  19.506  0.00  0.00    +0.000 S 
ATOM     12  O   UNL     1       1.071   5.828  18.746  0.00  0.00    +0.000 OA
ATOM     13  O   UNL     1       2.291   6.181  20.920  0.00  0.00    +0.000 OA
BRANCH  11  14
ATOM     14  C   UNL     1       1.793   8.215  19.373  0.00  0.00    +0.000 A 
ATOM     15  C   UNL     1       2.094   8.868  18.173  0.00  0.00    +0.000 A 
ATOM     16  C   UNL     1       1.758  10.214  18.020  0.00  0.00    +0.000 A 
ATOM     17  C   UNL     1       1.120  10.898  19.057  0.00  0.00    +0.000 A 
ATOM     18  C   UNL     1       0.812  10.239  20.249  0.00  0.00    +0.000 A 
ATOM     19  C   UNL     1       1.146   8.892  20.409  0.00  0.00    +0.000 A 
ENDBRANCH  11  14
ENDBRANCH  10  11
BRANCH   9  20
ATOM     20  C   UNL     1       2.692   4.115  17.775  0.00  0.00    +0.000 C 
BRANCH  20  21
ATOM     21  C   UNL     1       2.631   2.645  18.245  0.00  0.00    +0.000 C 
ATOM     22  C   UNL     1       3.593   2.298  19.391  0.00  0.00    +0.000 C 
ATOM     23  C   UNL     1       3.093   2.442  20.836  0.00  0.00    +0.000 C 
ATOM     24  C   UNL     1       1.619   2.749  21.107  0.00  0.00    +0.000 C 
ATOM     25  C   UNL     1       0.749   3.041  19.898  0.00  0.00    +0.000 C 
ATOM     26  C   UNL     1       1.199   2.262  18.675  0.00  0.00    +0.000 C 
ENDBRANCH  20  21
ENDBRANCH   9  20
TORSDOF 4
ENDMDL
MODEL 4
REMARK VINA RESULT:      -6.6      8.653     10.966
REMARK  Name = 
REMARK  6 active torsions:
REMARK  status: ('A' for Active; 'I' for Inactive)
REMARK    1  A    between atoms: C_1  and  C_2
REMARK    2  A    between atoms: C_6  and  C_7
REMARK    3  A    between atoms: C_9  and  C_10
REMARK    4  A    between atoms: C_10  and  C_11
REMARK    5  A    between atoms: N_17  and  S_18
REMARK    6  A    between atoms: S_18  and  C_21
REMARK                            x       y       z     vdW  Elec       q    Type
REMARK                         _______ _______ _______ _____ _____    ______ ____
ROOT
ATOM      1  C   UNL     1       8.603  14.576  24.657  0.00  0.00    +0.000 C 
ATOM      2  C   UNL     1       8.572  13.267  23.869  0.00  0.00    +0.000 C 
ATOM      3  C   UNL     1       8.381  12.011  24.726  0.00  0.00    +0.000 C 
ATOM      4  C   UNL     1       6.940  11.709  25.105  0.00  0.00    +0.000 C 
ATOM      5  C   UNL     1       6.051  11.754  23.871  0.00  0.00    +0.000 C 
ATOM      6  C   UNL     1       6.184  13.079  23.106  0.00  0.00    +0.000 C 
ATOM      7  C   UNL     1       5.524  14.228  23.880  0.00  0.00    +0.000 C 
ATOM      8  N   UNL     1       7.615  13.323  22.752  0.00  0.00    +0.000 N 
ATOM      9  C   UNL     1       7.936  13.876  21.481  0.00  0.00    +0.000 C 
ATOM     10  N   UNL     1       6.970  14.506  20.849  0.00  0.00    +0.000 NA
ENDROOT
BRANCH  10  11
ATOM     11  S   UNL     1       7.156  15.152  19.374  0.00  0.00    +0.000 S 
ATOM     12  O   UNL     1       7.935  16.373  19.466  0.00  0.00    +0.000 OA
ATOM     13  O   UNL     1       7.540  14.107  18.443  0.00  0.00    +0.000 OA
BRANCH  11  14
ATOM     14  C   UNL     1       5.523  15.692  18.888  0.00  0.00    +0.000 A 
ATOM     15  C   UNL     1       4.933  15.115  17.759  0.00  0.00    +0.000 A 
ATOM     16  C   UNL     1       3.626  15.460  17.415  0.00  0.00    +0.000 A 
ATOM     17  C   UNL     1       2.913  16.372  18.197  0.00  0.00    +0.000 A 
ATOM     18  C   UNL     1       3.503  16.938  19.330  0.00  0.00    +0.000 A 
ATOM     19  C   UNL     1       4.812  16.596  19.680  0.00  0.00    +0.000 A 
ENDBRANCH  11  14
ENDBRANCH  10  11
BRANCH   9  20
ATOM     20  C   UNL     1       9.333  13.693  20.777  0.00  0.00    +0.000 C 
BRANCH  20  21
ATOM     21  C   UNL     1      10.302  12.490  20.746  0.00  0.00    +0.000 C 
ATOM     22  C   UNL     1       9.618  11.120  20.628  0.00  0.00    +0.000 C 
ATOM     23  C   UNL     1       9.371  10.543  19.225  0.00  0.00    +0.000 C 
ATOM     24  C   UNL     1       9.958  11.242  17.998  0.00  0.00    +0.000 C 
ATOM     25  C   UNL     1      10.645  12.575  18.234  0.00  0.00    +0.000 C 
ATOM     26  C   UNL     1      11.319  12.631  19.594  0.00  0.00    +0.000 C 
ENDBRANCH  20  21
ENDBRANCH   9  20
TORSDOF 4
ENDMDL
MODEL 5
REMARK VINA RESULT:      -6.1      1.930      4.985
REMARK  Name = 
REMARK  6 active torsions:
REMARK  status: ('A' for Active; 'I' for Inactive)
REMARK    1  A    between atoms: C_1  and  C_2
REMARK    2  A    between atoms: C_6  and  C_7
REMARK    3  A    between atoms: C_9  and  C_10
REMARK    4  A    between atoms: C_10  and  C_11
REMARK    5  A    between atoms: N_17  and  S_18
REMARK    6  A    between atoms: S_18  and  C_21
REMARK                            x       y       z     vdW  Elec       q    Type
REMARK                         _______ _______ _______ _____ _____    ______ ____
ROOT
ATOM      1  C   UNL     1       1.918   9.344  21.620  0.00  0.00    +0.000 C 
ATOM      2  C   UNL     1       0.909   8.483  20.861  0.00  0.00    +0.000 C 
ATOM      3  C   UNL     1      -0.464   9.135  20.662  0.00  0.00    +0.000 C 
ATOM      4  C   UNL     1      -0.548  10.101  19.491  0.00  0.00    +0.000 C 
ATOM      5  C   UNL     1       0.015   9.456  18.235  0.00  0.00    +0.000 C 
ATOM      6  C   UNL     1       1.439   8.921  18.443  0.00  0.00    +0.000 C 
ATOM      7  C   UNL     1       2.447  10.073  18.555  0.00  0.00    +0.000 C 
ATOM      8  N   UNL     1       1.465   7.973  19.597  0.00  0.00    +0.000 N 
ATOM      9  C   UNL     1       2.262   6.797  19.518  0.00  0.00    +0.000 C 
ATOM     10  N   UNL     1       3.228   6.796  18.625  0.00  0.00    +0.000 NA
ENDROOT
BRANCH  10  11
ATOM     11  S   UNL     1       4.196   5.520  18.374  0.00  0.00    +0.000 S 
ATOM     12  O   UNL     1       4.231   4.689  19.564  0.00  0.00    +0.000 OA
ATOM     13  O   UNL     1       3.888   4.937  17.082  0.00  0.00    +0.000 OA
BRANCH  11  14
ATOM     14  C   UNL     1       5.845   6.198  18.247  0.00  0.00    +0.000 A 
ATOM     15  C   UNL     1       6.063   7.275  17.381  0.00  0.00    +0.000 A 
ATOM     16  C   UNL     1       7.323   7.873  17.333  0.00  0.00    +0.000 A 
ATOM     17  C   UNL     1       8.353   7.402  18.149  0.00  0.00    +0.000 A 
ATOM     18  C   UNL     1       8.127   6.333  19.020  0.00  0.00    +0.000 A 
ATOM     19  C   UNL     1       6.869   5.730  19.073  0.00  0.00    +0.000 A 
ENDBRANCH  11  14
ENDBRANCH  10  11
BRANCH   9  20
ATOM     20  C   UNL     1       1.989   5.498  20.365  0.00  0.00    +0.000 C 
BRANCH  20  21
ATOM     21  C   UNL     1       0.936   4.381  20.195  0.00  0.00    +0.000 C 
ATOM     22  C   UNL     1       0.874   3.767  18.788  0.00  0.00    +0.000 C 
ATOM     23  C   UNL     1       1.750   2.542  18.485  0.00  0.00    +0.000 C 
ATOM     24  C   UNL     1       2.519   1.855  19.614  0.00  0.00    +0.000 C 
ATOM     25  C   UNL     1       2.483   2.528  20.974  0.00  0.00    +0.000 C 
ATOM     26  C   UNL     1       1.166   3.246  21.215  0.00  0.00    +0.000 C 
ENDBRANCH  20  21
ENDBRANCH   9  20
TORSDOF 4
ENDMDL
MODEL 6
REMARK VINA RESULT:      -6.0      1.855      4.947
REMARK  Name = 
REMARK  6 active torsions:
REMARK  status: ('A' for Active; 'I' for Inactive)
REMARK    1  A    between atoms: C_1  and  C_2
REMARK    2  A    between atoms: C_6  and  C_7
REMARK    3  A    between atoms: C_9  and  C_10
REMARK    4  A    between atoms: C_10  and  C_11
REMARK    5  A    between atoms: N_17  and  S_18
REMARK    6  A    between atoms: S_18  and  C_21
REMARK                            x       y       z     vdW  Elec       q    Type
REMARK                         _______ _______ _______ _____ _____    ______ ____
ROOT
ATOM      1  C   UNL     1       2.213   9.005  21.058  0.00  0.00    +0.000 C 
ATOM      2  C   UNL     1       1.210   8.323  20.128  0.00  0.00    +0.000 C 
ATOM      3  C   UNL     1      -0.218   8.871  20.219  0.00  0.00    +0.000 C 
ATOM      4  C   UNL     1      -0.470  10.134  19.411  0.00  0.00    +0.000 C 
ATOM      5  C   UNL     1       0.032   9.958  17.987  0.00  0.00    +0.000 C 
ATOM      6  C   UNL     1       1.504   9.523  17.939  0.00  0.00    +0.000 C 
ATOM      7  C   UNL     1       2.430  10.678  18.345  0.00  0.00    +0.000 C 
ATOM      8  N   UNL     1       1.695   8.277  18.739  0.00  0.00    +0.000 N 
ATOM      9  C   UNL     1       2.568   7.262  18.255  0.00  0.00    +0.000 C 
ATOM     10  N   UNL     1       3.454   7.625  17.353  0.00  0.00    +0.000 NA
ENDROOT
BRANCH  10  11
ATOM     11  S   UNL     1       4.489   6.584  16.666  0.00  0.00    +0.000 S 
ATOM     12  O   UNL     1       3.998   5.227  16.821  0.00  0.00    +0.000 OA
ATOM     13  O   UNL     1       4.862   7.081  15.355  0.00  0.00    +0.000 OA
BRANCH  11  14
ATOM     14  C   UNL     1       5.963   6.650  17.675  0.00  0.00    +0.000 A 
ATOM     15  C   UNL     1       6.181   5.636  18.612  0.00  0.00    +0.000 A 
ATOM     16  C   UNL     1       7.367   5.624  19.347  0.00  0.00    +0.000 A 
ATOM     17  C   UNL     1       8.328   6.615  19.142  0.00  0.00    +0.000 A 
ATOM     18  C   UNL     1       8.110   7.621  18.197  0.00  0.00    +0.000 A 
ATOM     19  C   UNL     1       6.925   7.639  17.458  0.00  0.00    +0.000 A 
ENDBRANCH  11  14
ENDBRANCH  10  11
BRANCH   9  20
ATOM     20  C   UNL     1       2.462   5.747  18.673  0.00  0.00    +0.000 C 
BRANCH  20  21
ATOM     21  C   UNL     1       2.630   5.062  20.047  0.00  0.00    +0.000 C 
ATOM     22  C   UNL     1       1.318   4.602  20.698  0.00  0.00    +0.000 C 
ATOM     23  C   UNL     1       0.817   3.177  20.411  0.00  0.00    +0.000 C 
ATOM     24  C   UNL     1       1.705   2.197  19.643  0.00  0.00    +0.000 C 
ATOM     25  C   UNL     1       2.999   2.749  19.072  0.00  0.00    +0.000 C 
ATOM     26  C   UNL     1       3.579   3.848  19.946  0.00  0.00    +0.000 C 
ENDBRANCH  20  21
ENDBRANCH   9  20
TORSDOF 4
ENDMDL
MODEL 7
REMARK VINA RESULT:      -6.0      7.541     10.899
REMARK  Name = 
REMARK  6 active torsions:
REMARK  status: ('A' for Active; 'I' for Inactive)
REMARK    1  A    between atoms: C_1  and  C_2
REMARK    2  A    between atoms: C_6  and  C_7
REMARK    3  A    between atoms: C_9  and  C_10
REMARK    4  A    between atoms: C_10  and  C_11
REMARK    5  A    between atoms: N_17  and  S_18
REMARK    6  A    between atoms: S_18  and  C_21
REMARK                            x       y       z     vdW  Elec       q    Type
REMARK                         _______ _______ _______ _____ _____    ______ ____
ROOT
ATOM      1  C   UNL     1      -5.039  12.847  22.001  0.00  0.00    +0.000 C 
ATOM      2  C   UNL     1      -4.726  13.598  20.707  0.00  0.00    +0.000 C 
ATOM      3  C   UNL     1      -5.774  14.643  20.307  0.00  0.00    +0.000 C 
ATOM      4  C   UNL     1      -5.638  15.984  21.009  0.00  0.00    +0.000 C 
ATOM      5  C   UNL     1      -4.205  16.484  20.918  0.00  0.00    +0.000 C 
ATOM      6  C   UNL     1      -3.194  15.452  21.440  0.00  0.00    +0.000 C 
ATOM      7  C   UNL     1      -3.275  15.330  22.968  0.00  0.00    +0.000 C 
ATOM      8  N   UNL     1      -3.365  14.158  20.714  0.00  0.00    +0.000 N 
ATOM      9  C   UNL     1      -2.214  13.405  20.348  0.00  0.00    +0.000 C 
ATOM     10  N   UNL     1      -1.102  13.669  21.000  0.00  0.00    +0.000 NA
ENDROOT
BRANCH  10  11
ATOM     11  S   UNL     1       0.306  12.936  20.673  0.00  0.00    +0.000 S 
ATOM     12  O   UNL     1       0.448  12.759  19.240  0.00  0.00    +0.000 OA
ATOM     13  O   UNL     1       1.361  13.572  21.440  0.00  0.00    +0.000 OA
BRANCH  11  14
ATOM     14  C   UNL     1       0.134  11.279  21.320  0.00  0.00    +0.000 A 
ATOM     15  C   UNL     1      -0.521  11.099  22.542  0.00  0.00    +0.000 A 
ATOM     16  C   UNL     1      -0.742   9.807  23.020  0.00  0.00    +0.000 A 
ATOM     17  C   UNL     1      -0.315   8.704  22.278  0.00  0.00    +0.000 A 
ATOM     18  C   UNL     1       0.330   8.888  21.052  0.00  0.00    +0.000 A 
ATOM     19  C   UNL     1       0.554  10.179  20.568  0.00  0.00    +0.000 A 
ENDBRANCH  11  14
ENDBRANCH  10  11
BRANCH   9  20
ATOM     20  C   UNL     1      -2.191  12.362  19.168  0.00  0.00    +0.000 C 
BRANCH  20  21
ATOM     21  C   UNL     1      -3.137  11.186  18.838  0.00  0.00    +0.000 C 
ATOM     22  C   UNL     1      -4.236  11.515  17.817  0.00  0.00    +0.000 C 
ATOM     23  C   UNL     1      -3.947  11.277  16.327  0.00  0.00    +0.000 C 
ATOM     24  C   UNL     1      -2.663  10.563  15.903  0.00  0.00    +0.000 C 
ATOM     25  C   UNL     1      -1.660  10.252  17.000  0.00  0.00    +0.000 C 
ATOM     26  C   UNL     1      -2.342   9.966  18.326  0.00  0.00    +0.000 C 
ENDBRANCH  20  21
ENDBRANCH   9  20
TORSDOF 4
ENDMDL
MODEL 8
REMARK VINA RESULT:      -5.9      6.944     10.102
REMARK  Name = 
REMARK  6 active torsions:
REMARK  status: ('A' for Active; 'I' for Inactive)
REMARK    1  A    between atoms: C_1  and  C_2
REMARK    2  A    between atoms: C_6  and  C_7
REMARK    3  A    between atoms: C_9  and  C_10
REMARK    4  A    between atoms: C_10  and  C_11
REMARK    5  A    between atoms: N_17  and  S_18
REMARK    6  A    between atoms: S_18  and  C_21
REMARK                            x       y       z     vdW  Elec       q    Type
REMARK                         _______ _______ _______ _____ _____    ______ ____
ROOT
ATOM      1  C   UNL     1       2.215  15.607  22.290  0.00  0.00    +0.000 C 
ATOM      2  C   UNL     1       1.084  15.654  21.262  0.00  0.00    +0.000 C 
ATOM      3  C   UNL     1       1.066  16.916  20.392  0.00  0.00    +0.000 C 
ATOM      4  C   UNL     1       2.017  16.887  19.206  0.00  0.00    +0.000 C 
ATOM      5  C   UNL     1       1.842  15.596  18.422  0.00  0.00    +0.000 C 
ATOM      6  C   UNL     1       1.986  14.351  19.311  0.00  0.00    +0.000 C 
ATOM      7  C   UNL     1       3.447  14.144  19.731  0.00  0.00    +0.000 C 
ATOM      8  N   UNL     1       1.027  14.426  20.454  0.00  0.00    +0.000 N 
ATOM      9  C   UNL     1       0.354  13.247  20.879  0.00  0.00    +0.000 C 
ATOM     10  N   UNL     1       0.890  12.099  20.525  0.00  0.00    +0.000 NA
ENDROOT
BRANCH  10  11
ATOM     11  S   UNL     1       0.225  10.666  20.887  0.00  0.00    +0.000 S 
ATOM     12  O   UNL     1       0.576  10.290  22.245  0.00  0.00    +0.000 OA
ATOM     13  O   UNL     1      -1.163  10.666  20.464  0.00  0.00    +0.000 OA
BRANCH  11  14
ATOM     14  C   UNL     1       1.073   9.479  19.855  0.00  0.00    +0.000 A 
ATOM     15  C   UNL     1       1.368   9.828  18.533  0.00  0.00    +0.000 A 
ATOM     16  C   UNL     1       2.105   8.950  17.739  0.00  0.00    +0.000 A 
ATOM     17  C   UNL     1       2.549   7.735  18.265  0.00  0.00    +0.000 A 
ATOM     18  C   UNL     1       2.262   7.395  19.589  0.00  0.00    +0.000 A 
ATOM     19  C   UNL     1       1.523   8.270  20.390  0.00  0.00    +0.000 A 
ENDBRANCH  11  14
ENDBRANCH  10  11
BRANCH   9  20
ATOM     20  C   UNL     1      -1.016  13.255  21.657  0.00  0.00    +0.000 C 
BRANCH  20  21
ATOM     21  C   UNL     1      -1.329  13.072  23.158  0.00  0.00    +0.000 C 
ATOM     22  C   UNL     1      -1.564  14.381  23.928  0.00  0.00    +0.000 C 
ATOM     23  C   UNL     1      -2.998  14.925  24.027  0.00  0.00    +0.000 C 
ATOM     24  C   UNL     1      -4.170  14.082  23.523  0.00  0.00    +0.000 C 
ATOM     25  C   UNL     1      -3.825  12.788  22.809  0.00  0.00    +0.000 C 
ATOM     26  C   UNL     1      -2.556  12.159  23.359  0.00  0.00    +0.000 C 
ENDBRANCH  20  21
ENDBRANCH   9  20
TORSDOF 4
ENDMDL
MODEL 9
REMARK VINA RESULT:      -5.9      9.210     11.060
REMARK  Name = 
REMARK  6 active torsions:
REMARK  status: ('A' for Active; 'I' for Inactive)
REMARK    1  A    between atoms: C_1  and  C_2
REMARK    2  A    between atoms: C_6  and  C_7
REMARK    3  A    between atoms: C_9  and  C_10
REMARK    4  A    between atoms: C_10  and  C_11
REMARK    5  A    between atoms: N_17  and  S_18
REMARK    6  A    between atoms: S_18  and  C_21
REMARK                            x       y       z     vdW  Elec       q    Type
REMARK                         _______ _______ _______ _____ _____    ______ ____
ROOT
ATOM      1  C   UNL     1      11.487  14.455  19.382  0.00  0.00    +0.000 C 
ATOM      2  C   UNL     1      10.231  14.051  18.610  0.00  0.00    +0.000 C 
ATOM      3  C   UNL     1      10.496  13.205  17.360  0.00  0.00    +0.000 C 
ATOM      4  C   UNL     1      10.697  11.722  17.625  0.00  0.00    +0.000 C 
ATOM      5  C   UNL     1       9.577  11.187  18.504  0.00  0.00    +0.000 C 
ATOM      6  C   UNL     1       9.423  11.992  19.803  0.00  0.00    +0.000 C 
ATOM      7  C   UNL     1      10.591  11.716  20.761  0.00  0.00    +0.000 C 
ATOM      8  N   UNL     1       9.222  13.438  19.488  0.00  0.00    +0.000 N 
ATOM      9  C   UNL     1       8.293  14.197  20.253  0.00  0.00    +0.000 C 
ATOM     10  N   UNL     1       7.961  13.713  21.431  0.00  0.00    +0.000 NA
ENDROOT
BRANCH  10  11
ATOM     11  S   UNL     1       6.882  14.429  22.406  0.00  0.00    +0.000 S 
ATOM     12  O   UNL     1       7.377  15.731  22.815  0.00  0.00    +0.000 OA
ATOM     13  O   UNL     1       5.558  14.298  21.827  0.00  0.00    +0.000 OA
BRANCH  11  14
ATOM     14  C   UNL     1       6.883  13.453  23.904  0.00  0.00    +0.000 A 
ATOM     15  C   UNL     1       5.774  13.526  24.752  0.00  0.00    +0.000 A 
ATOM     16  C   UNL     1       5.718  12.707  25.881  0.00  0.00    +0.000 A 
ATOM     17  C   UNL     1       6.761  11.819  26.154  0.00  0.00    +0.000 A 
ATOM     18  C   UNL     1       7.861  11.743  25.298  0.00  0.00    +0.000 A 
ATOM     19  C   UNL     1       7.924  12.560  24.166  0.00  0.00    +0.000 A 
ENDBRANCH  11  14
ENDBRANCH  10  11
BRANCH   9  20
ATOM     20  C   UNL     1       7.596  15.509  19.730  0.00  0.00    +0.000 C 
BRANCH  20  21
ATOM     21  C   UNL     1       6.904  15.820  18.385  0.00  0.00    +0.000 C 
ATOM     22  C   UNL     1       6.051  14.673  17.823  0.00  0.00    +0.000 C 
ATOM     23  C   UNL     1       4.563  14.612  18.203  0.00  0.00    +0.000 C 
ATOM     24  C   UNL     1       3.924  15.768  18.974  0.00  0.00    +0.000 C 
ATOM     25  C   UNL     1       4.855  16.868  19.451  0.00  0.00    +0.000 C 
ATOM     26  C   UNL     1       6.018  17.079  18.498  0.00  0.00    +0.000 C 
ENDBRANCH  20  21
ENDBRANCH   9  20
TORSDOF 4
ENDMDL
