MODEL 1
REMARK VINA RESULT:      -7.2      0.000      0.000
REMARK  Name = 
REMARK  11 active torsions:
REMARK  status: ('A' for Active; 'I' for Inactive)
REMARK    1  A    between atoms: C_1  and  C_2
REMARK    2  A    between atoms: C_2  and  N_3
REMARK    3  A    between atoms: N_3  and  C_4
REMARK    4  A    between atoms: N_3  and  C_6
REMARK    5  A    between atoms: C_4  and  C_5
REMARK    6  A    between atoms: C_6  and  C_7
REMARK    7  A    between atoms: C_7  and  N_8
REMARK    8  A    between atoms: C_9  and  C_11
REMARK    9  A    between atoms: C_14  and  N_15
REMARK   10  A    between atoms: C_25  and  O_26
REMARK   11  A    between atoms: O_26  and  C_27
REMARK                            x       y       z     vdW  Elec       q    Type
REMARK                         _______ _______ _______ _____ _____    ______ ____
ROOT
ATOM      1  N   UNL     1       2.048   7.871  19.448  0.00  0.00    +0.000 N 
ATOM      2  C   UNL     1       2.649   7.807  18.160  0.00  0.00    +0.000 C 
ATOM      3  O   UNL     1       2.352   8.554  17.221  0.00  0.00    +0.000 OA
ATOM      4  C   UNL     1       1.263   9.039  19.655  0.00  0.00    +0.000 A 
ATOM      5  N   UNL     1       1.337  10.133  18.933  0.00  0.00    +0.000 NA
ATOM      6  C   UNL     1       0.445  11.081  19.355  0.00  0.00    +0.000 A 
ATOM      7  C   UNL     1       0.282  12.343  18.759  0.00  0.00    +0.000 A 
ATOM      8  C   UNL     1      -0.664  13.226  19.271  0.00  0.00    +0.000 A 
ATOM      9  C   UNL     1      -1.454  12.882  20.368  0.00  0.00    +0.000 A 
ATOM     10  C   UNL     1      -1.300  11.630  20.987  0.00  0.00    +0.000 A 
ATOM     11  C   UNL     1      -0.334  10.743  20.457  0.00  0.00    +0.000 A 
ATOM     12  S   UNL     1       0.132   9.146  20.951  0.00  0.00    +0.000 S 
ENDROOT
BRANCH   2  13
ATOM     13  C   UNL     1       3.697   6.809  17.756  0.00  0.00    +0.000 A 
ATOM     14  C   UNL     1       3.457   5.463  17.474  0.00  0.00    +0.000 A 
ATOM     15  C   UNL     1       4.452   4.645  16.926  0.00  0.00    +0.000 A 
ATOM     16  C   UNL     1       5.705   5.183  16.607  0.00  0.00    +0.000 A 
ATOM     17  C   UNL     1       5.982   6.522  16.881  0.00  0.00    +0.000 A 
ATOM     18  C   UNL     1       4.982   7.323  17.460  0.00  0.00    +0.000 A 
BRANCH  16  19
ATOM     19  N   UNL     1       6.698   4.336  15.937  0.00  0.00    +0.000 N 
ATOM     20  O   UNL     1       6.318   3.651  14.976  0.00  0.00    +0.000 OA
ATOM     21  O   UNL     1       7.860   4.362  16.370  0.00  0.00    +0.000 OA
ENDBRANCH  16  19
ENDBRANCH   2  13
BRANCH   9  22
ATOM     22  O   UNL     1      -2.330  13.872  20.711  0.00  0.00    +0.000 OA
ATOM     23  C   UNL     1      -1.878  15.214  20.731  0.00  0.00    +0.000 C 
ENDBRANCH   9  22
BRANCH   1  24
ATOM     24  C   UNL     1       2.234   6.875  20.522  0.00  0.00    +0.000 C 
BRANCH  24  25
ATOM     25  C   UNL     1       1.234   5.693  20.413  0.00  0.00    +0.000 C 
BRANCH  25  26
ATOM     26  N   UNL     1       1.836   4.347  20.234  0.00  0.00    +0.000 NA
BRANCH  26  28
ATOM     27  C   UNL     1       1.615   2.501  21.984  0.00  0.00    +0.000 C 
ATOM     28  C   UNL     1       2.288   3.795  21.527  0.00  0.00    +0.000 C 
ENDBRANCH  26  28
BRANCH  26  29
ATOM     29  C   UNL     1       0.902   3.457  19.510  0.00  0.00    +0.000 C 
ATOM     30  C   UNL     1       1.516   2.617  18.392  0.00  0.00    +0.000 C 
ENDBRANCH  26  29
ENDBRANCH  25  26
ENDBRANCH  24  25
ENDBRANCH   1  24
TORSDOF 8
ENDMDL
MODEL 2
REMARK VINA RESULT:      -7.1      1.155      1.532
REMARK  Name = 
REMARK  11 active torsions:
REMARK  status: ('A' for Active; 'I' for Inactive)
REMARK    1  A    between atoms: C_1  and  C_2
REMARK    2  A    between atoms: C_2  and  N_3
REMARK    3  A    between atoms: N_3  and  C_4
REMARK    4  A    between atoms: N_3  and  C_6
REMARK    5  A    between atoms: C_4  and  C_5
REMARK    6  A    between atoms: C_6  and  C_7
REMARK    7  A    between atoms: C_7  and  N_8
REMARK    8  A    between atoms: C_9  and  C_11
REMARK    9  A    between atoms: C_14  and  N_15
REMARK   10  A    between atoms: C_25  and  O_26
REMARK   11  A    between atoms: O_26  and  C_27
REMARK                            x       y       z     vdW  Elec       q    Type
REMARK                         _______ _______ _______ _____ _____    ______ ____
ROOT
ATOM      1  N   UNL     1       2.188   7.261  19.773  0.00  0.00    +0.000 N 
ATOM      2  C   UNL     1       2.682   7.384  18.444  0.00  0.00    +0.000 C 
ATOM      3  O   UNL     1       2.299   8.244  17.642  0.00  0.00    +0.000 OA
ATOM      4  C   UNL     1       1.408   8.372  20.198  0.00  0.00    +0.000 A 
ATOM      5  N   UNL     1       1.409   9.555  19.628  0.00  0.00    +0.000 NA
ATOM      6  C   UNL     1       0.543  10.416  20.245  0.00  0.00    +0.000 A 
ATOM      7  C   UNL     1       0.316  11.742  19.841  0.00  0.00    +0.000 A 
ATOM      8  C   UNL     1      -0.595  12.526  20.542  0.00  0.00    +0.000 A 
ATOM      9  C   UNL     1      -1.288  12.019  21.641  0.00  0.00    +0.000 A 
ATOM     10  C   UNL     1      -1.068  10.700  22.070  0.00  0.00    +0.000 A 
ATOM     11  C   UNL     1      -0.138   9.915  21.350  0.00  0.00    +0.000 A 
ATOM     12  S   UNL     1       0.387   8.277  21.583  0.00  0.00    +0.000 S 
ENDROOT
BRANCH   2  13
ATOM     13  C   UNL     1       3.706   6.474  17.826  0.00  0.00    +0.000 A 
ATOM     14  C   UNL     1       3.461   5.173  17.386  0.00  0.00    +0.000 A 
ATOM     15  C   UNL     1       4.417   4.459  16.654  0.00  0.00    +0.000 A 
ATOM     16  C   UNL     1       5.631   5.065  16.310  0.00  0.00    +0.000 A 
ATOM     17  C   UNL     1       5.913   6.362  16.738  0.00  0.00    +0.000 A 
ATOM     18  C   UNL     1       4.955   7.055  17.498  0.00  0.00    +0.000 A 
BRANCH  16  19
ATOM     19  N   UNL     1       6.576   4.338  15.454  0.00  0.00    +0.000 N 
ATOM     20  O   UNL     1       6.108   3.580  14.592  0.00  0.00    +0.000 OA
ATOM     21  O   UNL     1       7.786   4.534  15.641  0.00  0.00    +0.000 OA
ENDBRANCH  16  19
ENDBRANCH   2  13
BRANCH   9  22
ATOM     22  O   UNL     1      -2.145  12.934  22.184  0.00  0.00    +0.000 OA
ATOM     23  C   UNL     1      -3.163  12.487  23.061  0.00  0.00    +0.000 C 
ENDBRANCH   9  22
BRANCH   1  24
ATOM     24  C   UNL     1       2.474   6.134  20.683  0.00  0.00    +0.000 C 
BRANCH  24  25
ATOM     25  C   UNL     1       1.591   4.894  20.386  0.00  0.00    +0.000 C 
BRANCH  25  26
ATOM     26  N   UNL     1       2.188   3.575  20.719  0.00  0.00    +0.000 NA
BRANCH  26  28
ATOM     27  C   UNL     1       0.822   2.843  18.690  0.00  0.00    +0.000 C 
ATOM     28  C   UNL     1       1.479   2.483  20.022  0.00  0.00    +0.000 C 
ENDBRANCH  26  28
BRANCH  26  29
ATOM     29  C   UNL     1       3.645   3.589  20.459  0.00  0.00    +0.000 C 
ATOM     30  C   UNL     1       4.219   2.321  19.827  0.00  0.00    +0.000 C 
ENDBRANCH  26  29
ENDBRANCH  25  26
ENDBRANCH  24  25
ENDBRANCH   1  24
TORSDOF 8
ENDMDL
MODEL 3
REMARK VINA RESULT:      -7.0      1.271      1.578
REMARK  Name = 
REMARK  11 active torsions:
REMARK  status: ('A' for Active; 'I' for Inactive)
REMARK    1  A    between atoms: C_1  and  C_2
REMARK    2  A    between atoms: C_2  and  N_3
REMARK    3  A    between atoms: N_3  and  C_4
REMARK    4  A    between atoms: N_3  and  C_6
REMARK    5  A    between atoms: C_4  and  C_5
REMARK    6  A    between atoms: C_6  and  C_7
REMARK    7  A    between atoms: C_7  and  N_8
REMARK    8  A    between atoms: C_9  and  C_11
REMARK    9  A    between atoms: C_14  and  N_15
REMARK   10  A    between atoms: C_25  and  O_26
REMARK   11  A    between atoms: O_26  and  C_27
REMARK                            x       y       z     vdW  Elec       q    Type
REMARK                         _______ _______ _______ _____ _____    ______ ____
ROOT
ATOM      1  N   UNL     1       2.220   7.355  19.787  0.00  0.00    +0.000 N 
ATOM      2  C   UNL     1       2.808   7.593  18.514  0.00  0.00    +0.000 C 
ATOM      3  O   UNL     1       2.502   8.537  17.776  0.00  0.00    +0.000 OA
ATOM      4  C   UNL     1       1.438   8.442  20.267  0.00  0.00    +0.000 A 
ATOM      5  N   UNL     1       1.505   9.674  19.818  0.00  0.00    +0.000 NA
ATOM      6  C   UNL     1       0.618  10.497  20.458  0.00  0.00    +0.000 A 
ATOM      7  C   UNL     1       0.450  11.862  20.173  0.00  0.00    +0.000 A 
ATOM      8  C   UNL     1      -0.490  12.600  20.885  0.00  0.00    +0.000 A 
ATOM      9  C   UNL     1      -1.269  12.010  21.880  0.00  0.00    +0.000 A 
ATOM     10  C   UNL     1      -1.110  10.649  22.190  0.00  0.00    +0.000 A 
ATOM     11  C   UNL     1      -0.150   9.910  21.459  0.00  0.00    +0.000 A 
ATOM     12  S   UNL     1       0.320   8.243  21.564  0.00  0.00    +0.000 S 
ENDROOT
BRANCH   2  13
ATOM     13  C   UNL     1       3.851   6.717  17.879  0.00  0.00    +0.000 A 
ATOM     14  C   UNL     1       4.160   6.695  16.518  0.00  0.00    +0.000 A 
ATOM     15  C   UNL     1       5.268   5.990  16.034  0.00  0.00    +0.000 A 
ATOM     16  C   UNL     1       6.121   5.326  16.925  0.00  0.00    +0.000 A 
ATOM     17  C   UNL     1       5.839   5.322  18.291  0.00  0.00    +0.000 A 
ATOM     18  C   UNL     1       4.705   6.009  18.758  0.00  0.00    +0.000 A 
BRANCH  16  19
ATOM     19  N   UNL     1       7.334   4.682  16.409  0.00  0.00    +0.000 N 
ATOM     20  O   UNL     1       8.120   4.191  17.231  0.00  0.00    +0.000 OA
ATOM     21  O   UNL     1       7.494   4.664  15.179  0.00  0.00    +0.000 OA
ENDBRANCH  16  19
ENDBRANCH   2  13
BRANCH   9  22
ATOM     22  O   UNL     1      -2.141  12.892  22.452  0.00  0.00    +0.000 OA
ATOM     23  C   UNL     1      -3.057  12.422  23.424  0.00  0.00    +0.000 C 
ENDBRANCH   9  22
BRANCH   1  24
ATOM     24  C   UNL     1       2.415   6.137  20.599  0.00  0.00    +0.000 C 
BRANCH  24  25
ATOM     25  C   UNL     1       1.520   4.961  20.127  0.00  0.00    +0.000 C 
BRANCH  25  26
ATOM     26  N   UNL     1       2.223   3.838  19.456  0.00  0.00    +0.000 NA
BRANCH  26  28
ATOM     27  C   UNL     1       1.341   2.694  21.562  0.00  0.00    +0.000 C 
ATOM     28  C   UNL     1       2.178   2.616  20.284  0.00  0.00    +0.000 C 
ENDBRANCH  26  28
BRANCH  26  29
ATOM     29  C   UNL     1       1.691   3.640  18.089  0.00  0.00    +0.000 C 
ATOM     30  C   UNL     1       2.697   3.150  17.049  0.00  0.00    +0.000 C 
ENDBRANCH  26  29
ENDBRANCH  25  26
ENDBRANCH  24  25
ENDBRANCH   1  24
TORSDOF 8
ENDMDL
MODEL 4
REMARK VINA RESULT:      -7.0      1.356      1.614
REMARK  Name = 
REMARK  11 active torsions:
REMARK  status: ('A' for Active; 'I' for Inactive)
REMARK    1  A    between atoms: C_1  and  C_2
REMARK    2  A    between atoms: C_2  and  N_3
REMARK    3  A    between atoms: N_3  and  C_4
REMARK    4  A    between atoms: N_3  and  C_6
REMARK    5  A    between atoms: C_4  and  C_5
REMARK    6  A    between atoms: C_6  and  C_7
REMARK    7  A    between atoms: C_7  and  N_8
REMARK    8  A    between atoms: C_9  and  C_11
REMARK    9  A    between atoms: C_14  and  N_15
REMARK   10  A    between atoms: C_25  and  O_26
REMARK   11  A    between atoms: O_26  and  C_27
REMARK                            x       y       z     vdW  Elec       q    Type
REMARK                         _______ _______ _______ _____ _____    ______ ____
ROOT
ATOM      1  N   UNL     1       2.489   6.983  19.614  0.00  0.00    +0.000 N 
ATOM      2  C   UNL     1       2.911   7.263  18.284  0.00  0.00    +0.000 C 
ATOM      3  O   UNL     1       2.459   8.186  17.595  0.00  0.00    +0.000 OA
ATOM      4  C   UNL     1       1.693   8.013  20.189  0.00  0.00    +0.000 A 
ATOM      5  N   UNL     1       1.625   9.247  19.747  0.00  0.00    +0.000 NA
ATOM      6  C   UNL     1       0.762  10.006  20.490  0.00  0.00    +0.000 A 
ATOM      7  C   UNL     1       0.469  11.356  20.239  0.00  0.00    +0.000 A 
ATOM      8  C   UNL     1      -0.432  12.027  21.060  0.00  0.00    +0.000 A 
ATOM      9  C   UNL     1      -1.051  11.382  22.131  0.00  0.00    +0.000 A 
ATOM     10  C   UNL     1      -0.765  10.035  22.408  0.00  0.00    +0.000 A 
ATOM     11  C   UNL     1       0.154   9.366  21.567  0.00  0.00    +0.000 A 
ATOM     12  S   UNL     1       0.746   7.735  21.602  0.00  0.00    +0.000 S 
ENDROOT
BRANCH   2  13
ATOM     13  C   UNL     1       3.933   6.463  17.527  0.00  0.00    +0.000 A 
ATOM     14  C   UNL     1       3.730   5.181  17.016  0.00  0.00    +0.000 A 
ATOM     15  C   UNL     1       4.664   4.579  16.165  0.00  0.00    +0.000 A 
ATOM     16  C   UNL     1       5.810   5.282  15.772  0.00  0.00    +0.000 A 
ATOM     17  C   UNL     1       6.048   6.564  16.269  0.00  0.00    +0.000 A 
ATOM     18  C   UNL     1       5.116   7.142  17.147  0.00  0.00    +0.000 A 
BRANCH  16  19
ATOM     19  N   UNL     1       6.723   4.675  14.798  0.00  0.00    +0.000 N 
ATOM     20  O   UNL     1       7.794   5.256  14.571  0.00  0.00    +0.000 OA
ATOM     21  O   UNL     1       6.369   3.612  14.266  0.00  0.00    +0.000 OA
ENDBRANCH  16  19
ENDBRANCH   2  13
BRANCH   9  22
ATOM     22  O   UNL     1      -1.911  12.201  22.806  0.00  0.00    +0.000 OA
ATOM     23  C   UNL     1      -2.818  13.004  22.071  0.00  0.00    +0.000 C 
ENDBRANCH   9  22
BRANCH   1  24
ATOM     24  C   UNL     1       2.858   5.780  20.386  0.00  0.00    +0.000 C 
BRANCH  24  25
ATOM     25  C   UNL     1       2.053   4.528  19.953  0.00  0.00    +0.000 C 
BRANCH  25  26
ATOM     26  N   UNL     1       2.769   3.230  20.047  0.00  0.00    +0.000 NA
BRANCH  26  28
ATOM     27  C   UNL     1       1.251   2.565  21.991  0.00  0.00    +0.000 C 
ATOM     28  C   UNL     1       2.661   2.665  21.407  0.00  0.00    +0.000 C 
ENDBRANCH  26  28
BRANCH  26  29
ATOM     29  C   UNL     1       2.302   2.306  18.990  0.00  0.00    +0.000 C 
ATOM     30  C   UNL     1       3.386   1.750  18.067  0.00  0.00    +0.000 C 
ENDBRANCH  26  29
ENDBRANCH  25  26
ENDBRANCH  24  25
ENDBRANCH   1  24
TORSDOF 8
ENDMDL
MODEL 5
REMARK VINA RESULT:      -7.0      1.025      1.246
REMARK  Name = 
REMARK  11 active torsions:
REMARK  status: ('A' for Active; 'I' for Inactive)
REMARK    1  A    between atoms: C_1  and  C_2
REMARK    2  A    between atoms: C_2  and  N_3
REMARK    3  A    between atoms: N_3  and  C_4
REMARK    4  A    between atoms: N_3  and  C_6
REMARK    5  A    between atoms: C_4  and  C_5
REMARK    6  A    between atoms: C_6  and  C_7
REMARK    7  A    between atoms: C_7  and  N_8
REMARK    8  A    between atoms: C_9  and  C_11
REMARK    9  A    between atoms: C_14  and  N_15
REMARK   10  A    between atoms: C_25  and  O_26
REMARK   11  A    between atoms: O_26  and  C_27
REMARK                            x       y       z     vdW  Elec       q    Type
REMARK                         _______ _______ _______ _____ _____    ______ ____
ROOT
ATOM      1  N   UNL     1       2.206   7.353  19.771  0.00  0.00    +0.000 N 
ATOM      2  C   UNL     1       2.669   7.430  18.428  0.00  0.00    +0.000 C 
ATOM      3  O   UNL     1       2.257   8.253  17.601  0.00  0.00    +0.000 OA
ATOM      4  C   UNL     1       1.422   8.471  20.170  0.00  0.00    +0.000 A 
ATOM      5  N   UNL     1       1.395   9.630  19.554  0.00  0.00    +0.000 NA
ATOM      6  C   UNL     1       0.532  10.505  20.156  0.00  0.00    +0.000 A 
ATOM      7  C   UNL     1       0.278  11.811  19.705  0.00  0.00    +0.000 A 
ATOM      8  C   UNL     1      -0.627  12.611  20.395  0.00  0.00    +0.000 A 
ATOM      9  C   UNL     1      -1.289  12.140  21.529  0.00  0.00    +0.000 A 
ATOM     10  C   UNL     1      -1.042  10.842  22.005  0.00  0.00    +0.000 A 
ATOM     11  C   UNL     1      -0.118  10.040  21.295  0.00  0.00    +0.000 A 
ATOM     12  S   UNL     1       0.432   8.419  21.581  0.00  0.00    +0.000 S 
ENDROOT
BRANCH   2  13
ATOM     13  C   UNL     1       3.690   6.509  17.823  0.00  0.00    +0.000 A 
ATOM     14  C   UNL     1       3.452   5.188  17.441  0.00  0.00    +0.000 A 
ATOM     15  C   UNL     1       4.401   4.457  16.717  0.00  0.00    +0.000 A 
ATOM     16  C   UNL     1       5.600   5.063  16.320  0.00  0.00    +0.000 A 
ATOM     17  C   UNL     1       5.873   6.380  16.690  0.00  0.00    +0.000 A 
ATOM     18  C   UNL     1       4.924   7.090  17.443  0.00  0.00    +0.000 A 
BRANCH  16  19
ATOM     19  N   UNL     1       6.534   4.314  15.472  0.00  0.00    +0.000 N 
ATOM     20  O   UNL     1       7.745   4.428  15.707  0.00  0.00    +0.000 OA
ATOM     21  O   UNL     1       6.052   3.606  14.575  0.00  0.00    +0.000 OA
ENDBRANCH  16  19
ENDBRANCH   2  13
BRANCH   9  22
ATOM     22  O   UNL     1      -2.145  13.065  22.055  0.00  0.00    +0.000 OA
ATOM     23  C   UNL     1      -1.813  13.691  23.281  0.00  0.00    +0.000 C 
ENDBRANCH   9  22
BRANCH   1  24
ATOM     24  C   UNL     1       2.527   6.267  20.719  0.00  0.00    +0.000 C 
BRANCH  24  25
ATOM     25  C   UNL     1       1.477   5.125  20.688  0.00  0.00    +0.000 C 
BRANCH  25  26
ATOM     26  N   UNL     1       1.910   3.861  20.040  0.00  0.00    +0.000 NA
BRANCH  26  28
ATOM     27  C   UNL     1       4.079   2.522  20.201  0.00  0.00    +0.000 C 
ATOM     28  C   UNL     1       2.861   3.127  20.899  0.00  0.00    +0.000 C 
ENDBRANCH  26  28
BRANCH  26  29
ATOM     29  C   UNL     1       0.734   3.055  19.644  0.00  0.00    +0.000 C 
ATOM     30  C   UNL     1       0.945   2.107  18.465  0.00  0.00    +0.000 C 
ENDBRANCH  26  29
ENDBRANCH  25  26
ENDBRANCH  24  25
ENDBRANCH   1  24
TORSDOF 8
ENDMDL
MODEL 6
REMARK VINA RESULT:      -6.9      1.529      2.088
REMARK  Name = 
REMARK  11 active torsions:
REMARK  status: ('A' for Active; 'I' for Inactive)
REMARK    1  A    between atoms: C_1  and  C_2
REMARK    2  A    between atoms: C_2  and  N_3
REMARK    3  A    between atoms: N_3  and  C_4
REMARK    4  A    between atoms: N_3  and  C_6
REMARK    5  A    between atoms: C_4  and  C_5
REMARK    6  A    between atoms: C_6  and  C_7
REMARK    7  A    between atoms: C_7  and  N_8
REMARK    8  A    between atoms: C_9  and  C_11
REMARK    9  A    between atoms: C_14  and  N_15
REMARK   10  A    between atoms: C_25  and  O_26
REMARK   11  A    between atoms: O_26  and  C_27
REMARK                            x       y       z     vdW  Elec       q    Type
REMARK                         _______ _______ _______ _____ _____    ______ ____
ROOT
ATOM      1  N   UNL     1       2.214   7.162  19.818  0.00  0.00    +0.000 N 
ATOM      2  C   UNL     1       2.839   7.579  18.610  0.00  0.00    +0.000 C 
ATOM      3  O   UNL     1       2.595   8.648  18.038  0.00  0.00    +0.000 OA
ATOM      4  C   UNL     1       1.476   8.193  20.464  0.00  0.00    +0.000 A 
ATOM      5  N   UNL     1       1.613   9.478  20.229  0.00  0.00    +0.000 NA
ATOM      6  C   UNL     1       0.754  10.226  20.987  0.00  0.00    +0.000 A 
ATOM      7  C   UNL     1       0.658  11.627  20.933  0.00  0.00    +0.000 A 
ATOM      8  C   UNL     1      -0.259  12.283  21.747  0.00  0.00    +0.000 A 
ATOM      9  C   UNL     1      -1.087  11.576  22.619  0.00  0.00    +0.000 A 
ATOM     10  C   UNL     1      -1.001  10.176  22.698  0.00  0.00    +0.000 A 
ATOM     11  C   UNL     1      -0.063   9.521  21.866  0.00  0.00    +0.000 A 
ATOM     12  S   UNL     1       0.323   7.838  21.695  0.00  0.00    +0.000 S 
ENDROOT
BRANCH   2  13
ATOM     13  C   UNL     1       3.852   6.770  17.850  0.00  0.00    +0.000 A 
ATOM     14  C   UNL     1       4.145   6.920  16.494  0.00  0.00    +0.000 A 
ATOM     15  C   UNL     1       5.228   6.258  15.905  0.00  0.00    +0.000 A 
ATOM     16  C   UNL     1       6.072   5.460  16.688  0.00  0.00    +0.000 A 
ATOM     17  C   UNL     1       5.805   5.283  18.046  0.00  0.00    +0.000 A 
ATOM     18  C   UNL     1       4.696   5.930  18.616  0.00  0.00    +0.000 A 
BRANCH  16  19
ATOM     19  N   UNL     1       7.262   4.860  16.074  0.00  0.00    +0.000 N 
ATOM     20  O   UNL     1       8.002   4.177  16.797  0.00  0.00    +0.000 OA
ATOM     21  O   UNL     1       7.450   5.068  14.866  0.00  0.00    +0.000 OA
ENDBRANCH  16  19
ENDBRANCH   2  13
BRANCH   9  22
ATOM     22  O   UNL     1      -1.926  12.394  23.321  0.00  0.00    +0.000 OA
ATOM     23  C   UNL     1      -2.342  13.616  22.738  0.00  0.00    +0.000 C 
ENDBRANCH   9  22
BRANCH   1  24
ATOM     24  C   UNL     1       2.333   5.818  20.416  0.00  0.00    +0.000 C 
BRANCH  24  25
ATOM     25  C   UNL     1       1.352   4.798  19.781  0.00  0.00    +0.000 C 
BRANCH  25  26
ATOM     26  N   UNL     1       1.729   3.367  19.906  0.00  0.00    +0.000 NA
BRANCH  26  28
ATOM     27  C   UNL     1       1.981   3.660  17.382  0.00  0.00    +0.000 C 
ATOM     28  C   UNL     1       1.811   2.724  18.579  0.00  0.00    +0.000 C 
ENDBRANCH  26  28
BRANCH  26  29
ATOM     29  C   UNL     1       2.969   3.229  20.702  0.00  0.00    +0.000 C 
ATOM     30  C   UNL     1       4.109   2.466  20.029  0.00  0.00    +0.000 C 
ENDBRANCH  26  29
ENDBRANCH  25  26
ENDBRANCH  24  25
ENDBRANCH   1  24
TORSDOF 8
ENDMDL
MODEL 7
REMARK VINA RESULT:      -6.8      1.598      2.117
REMARK  Name = 
REMARK  11 active torsions:
REMARK  status: ('A' for Active; 'I' for Inactive)
REMARK    1  A    between atoms: C_1  and  C_2
REMARK    2  A    between atoms: C_2  and  N_3
REMARK    3  A    between atoms: N_3  and  C_4
REMARK    4  A    between atoms: N_3  and  C_6
REMARK    5  A    between atoms: C_4  and  C_5
REMARK    6  A    between atoms: C_6  and  C_7
REMARK    7  A    between atoms: C_7  and  N_8
REMARK    8  A    between atoms: C_9  and  C_11
REMARK    9  A    between atoms: C_14  and  N_15
REMARK   10  A    between atoms: C_25  and  O_26
REMARK   11  A    between atoms: O_26  and  C_27
REMARK                            x       y       z     vdW  Elec       q    Type
REMARK                         _______ _______ _______ _____ _____    ______ ____
ROOT
ATOM      1  N   UNL     1       2.383   6.801  19.519  0.00  0.00    +0.000 N 
ATOM      2  C   UNL     1       3.030   7.264  18.339  0.00  0.00    +0.000 C 
ATOM      3  O   UNL     1       2.812   8.364  17.817  0.00  0.00    +0.000 OA
ATOM      4  C   UNL     1       1.655   7.813  20.205  0.00  0.00    +0.000 A 
ATOM      5  N   UNL     1       1.818   9.105  20.034  0.00  0.00    +0.000 NA
ATOM      6  C   UNL     1       0.963   9.832  20.817  0.00  0.00    +0.000 A 
ATOM      7  C   UNL     1       0.892  11.235  20.830  0.00  0.00    +0.000 A 
ATOM      8  C   UNL     1      -0.023  11.868  21.665  0.00  0.00    +0.000 A 
ATOM      9  C   UNL     1      -0.874  11.135  22.492  0.00  0.00    +0.000 A 
ATOM     10  C   UNL     1      -0.814   9.732  22.504  0.00  0.00    +0.000 A 
ATOM     11  C   UNL     1       0.123   9.101  21.652  0.00  0.00    +0.000 A 
ATOM     12  S   UNL     1       0.481   7.420  21.405  0.00  0.00    +0.000 S 
ENDROOT
BRANCH   2  13
ATOM     13  C   UNL     1       4.037   6.474  17.553  0.00  0.00    +0.000 A 
ATOM     14  C   UNL     1       3.818   5.204  17.016  0.00  0.00    +0.000 A 
ATOM     15  C   UNL     1       4.738   4.615  16.141  0.00  0.00    +0.000 A 
ATOM     16  C   UNL     1       5.884   5.318  15.751  0.00  0.00    +0.000 A 
ATOM     17  C   UNL     1       6.139   6.586  16.273  0.00  0.00    +0.000 A 
ATOM     18  C   UNL     1       5.221   7.152  17.174  0.00  0.00    +0.000 A 
BRANCH  16  19
ATOM     19  N   UNL     1       6.782   4.726  14.752  0.00  0.00    +0.000 N 
ATOM     20  O   UNL     1       6.445   3.649  14.240  0.00  0.00    +0.000 OA
ATOM     21  O   UNL     1       7.820   5.345  14.477  0.00  0.00    +0.000 OA
ENDBRANCH  16  19
ENDBRANCH   2  13
BRANCH   9  22
ATOM     22  O   UNL     1      -1.707  11.933  23.222  0.00  0.00    +0.000 OA
ATOM     23  C   UNL     1      -2.911  12.392  22.634  0.00  0.00    +0.000 C 
ENDBRANCH   9  22
BRANCH   1  24
ATOM     24  C   UNL     1       2.470   5.427  20.053  0.00  0.00    +0.000 C 
BRANCH  24  25
ATOM     25  C   UNL     1       1.470   4.460  19.366  0.00  0.00    +0.000 C 
BRANCH  25  26
ATOM     26  N   UNL     1       1.695   3.013  19.609  0.00  0.00    +0.000 NA
BRANCH  26  28
ATOM     27  C   UNL     1       3.484   1.694  18.349  0.00  0.00    +0.000 C 
ATOM     28  C   UNL     1       2.090   2.324  18.363  0.00  0.00    +0.000 C 
ENDBRANCH  26  28
BRANCH  26  29
ATOM     29  C   UNL     1       2.657   2.819  20.716  0.00  0.00    +0.000 C 
ATOM     30  C   UNL     1       2.044   2.518  22.083  0.00  0.00    +0.000 C 
ENDBRANCH  26  29
ENDBRANCH  25  26
ENDBRANCH  24  25
ENDBRANCH   1  24
TORSDOF 8
ENDMDL
MODEL 8
REMARK VINA RESULT:      -6.7      1.257      1.805
REMARK  Name = 
REMARK  11 active torsions:
REMARK  status: ('A' for Active; 'I' for Inactive)
REMARK    1  A    between atoms: C_1  and  C_2
REMARK    2  A    between atoms: C_2  and  N_3
REMARK    3  A    between atoms: N_3  and  C_4
REMARK    4  A    between atoms: N_3  and  C_6
REMARK    5  A    between atoms: C_4  and  C_5
REMARK    6  A    between atoms: C_6  and  C_7
REMARK    7  A    between atoms: C_7  and  N_8
REMARK    8  A    between atoms: C_9  and  C_11
REMARK    9  A    between atoms: C_14  and  N_15
REMARK   10  A    between atoms: C_25  and  O_26
REMARK   11  A    between atoms: O_26  and  C_27
REMARK                            x       y       z     vdW  Elec       q    Type
REMARK                         _______ _______ _______ _____ _____    ______ ____
ROOT
ATOM      1  N   UNL     1       2.113   7.533  19.782  0.00  0.00    +0.000 N 
ATOM      2  C   UNL     1       2.429   7.752  18.412  0.00  0.00    +0.000 C 
ATOM      3  O   UNL     1       1.905   8.628  17.714  0.00  0.00    +0.000 OA
ATOM      4  C   UNL     1       1.338   8.575  20.364  0.00  0.00    +0.000 A 
ATOM      5  N   UNL     1       1.208   9.783  19.867  0.00  0.00    +0.000 NA
ATOM      6  C   UNL     1       0.385  10.561  20.634  0.00  0.00    +0.000 A 
ATOM      7  C   UNL     1       0.042  11.891  20.338  0.00  0.00    +0.000 A 
ATOM      8  C   UNL     1      -0.811  12.585  21.190  0.00  0.00    +0.000 A 
ATOM      9  C   UNL     1      -1.334  11.985  22.335  0.00  0.00    +0.000 A 
ATOM     10  C   UNL     1      -0.996  10.660  22.657  0.00  0.00    +0.000 A 
ATOM     11  C   UNL     1      -0.126   9.966  21.784  0.00  0.00    +0.000 A 
ATOM     12  S   UNL     1       0.505   8.351  21.856  0.00  0.00    +0.000 S 
ENDROOT
BRANCH   2  13
ATOM     13  C   UNL     1       3.411   6.934  17.622  0.00  0.00    +0.000 A 
ATOM     14  C   UNL     1       4.637   7.397  17.141  0.00  0.00    +0.000 A 
ATOM     15  C   UNL     1       5.574   6.524  16.577  0.00  0.00    +0.000 A 
ATOM     16  C   UNL     1       5.311   5.150  16.527  0.00  0.00    +0.000 A 
ATOM     17  C   UNL     1       4.093   4.653  16.992  0.00  0.00    +0.000 A 
ATOM     18  C   UNL     1       3.150   5.546  17.528  0.00  0.00    +0.000 A 
BRANCH  16  19
ATOM     19  N   UNL     1       6.349   4.240  16.028  0.00  0.00    +0.000 N 
ATOM     20  O   UNL     1       5.990   3.286  15.323  0.00  0.00    +0.000 OA
ATOM     21  O   UNL     1       7.524   4.488  16.337  0.00  0.00    +0.000 OA
ENDBRANCH  16  19
ENDBRANCH   2  13
BRANCH   9  22
ATOM     22  O   UNL     1      -2.160  12.820  23.032  0.00  0.00    +0.000 OA
ATOM     23  C   UNL     1      -1.612  13.966  23.658  0.00  0.00    +0.000 C 
ENDBRANCH   9  22
BRANCH   1  24
ATOM     24  C   UNL     1       2.567   6.379  20.584  0.00  0.00    +0.000 C 
BRANCH  24  25
ATOM     25  C   UNL     1       1.599   5.171  20.484  0.00  0.00    +0.000 C 
BRANCH  25  26
ATOM     26  N   UNL     1       2.153   3.858  20.902  0.00  0.00    +0.000 NA
BRANCH  26  28
ATOM     27  C   UNL     1       0.774   2.870  18.993  0.00  0.00    +0.000 C 
ATOM     28  C   UNL     1       1.304   2.749  20.422  0.00  0.00    +0.000 C 
ENDBRANCH  26  28
BRANCH  26  29
ATOM     29  C   UNL     1       3.567   3.737  20.483  0.00  0.00    +0.000 C 
ATOM     30  C   UNL     1       4.055   2.319  20.190  0.00  0.00    +0.000 C 
ENDBRANCH  26  29
ENDBRANCH  25  26
ENDBRANCH  24  25
ENDBRANCH   1  24
TORSDOF 8
ENDMDL
MODEL 9
REMARK VINA RESULT:      -6.7      0.675      1.269
REMARK  Name = 
REMARK  11 active torsions:
REMARK  status: ('A' for Active; 'I' for Inactive)
REMARK    1  A    between atoms: C_1  and  C_2
REMARK    2  A    between atoms: C_2  and  N_3
REMARK    3  A    between atoms: N_3  and  C_4
REMARK    4  A    between atoms: N_3  and  C_6
REMARK    5  A    between atoms: C_4  and  C_5
REMARK    6  A    between atoms: C_6  and  C_7
REMARK    7  A    between atoms: C_7  and  N_8
REMARK    8  A    between atoms: C_9  and  C_11
REMARK    9  A    between atoms: C_14  and  N_15
REMARK   10  A    between atoms: C_25  and  O_26
REMARK   11  A    between atoms: O_26  and  C_27
REMARK                            x       y       z     vdW  Elec       q    Type
REMARK                         _______ _______ _______ _____ _____    ______ ____
ROOT
ATOM      1  N   UNL     1       2.073   7.810  19.590  0.00  0.00    +0.000 N 
ATOM      2  C   UNL     1       2.497   7.966  18.240  0.00  0.00    +0.000 C 
ATOM      3  O   UNL     1       2.053   8.826  17.471  0.00  0.00    +0.000 OA
ATOM      4  C   UNL     1       1.287   8.895  20.070  0.00  0.00    +0.000 A 
ATOM      5  N   UNL     1       1.229  10.085  19.518  0.00  0.00    +0.000 NA
ATOM      6  C   UNL     1       0.373  10.915  20.190  0.00  0.00    +0.000 A 
ATOM      7  C   UNL     1       0.092  12.240  19.818  0.00  0.00    +0.000 A 
ATOM      8  C   UNL     1      -0.803  12.989  20.575  0.00  0.00    +0.000 A 
ATOM      9  C   UNL     1      -1.427  12.449  21.699  0.00  0.00    +0.000 A 
ATOM     10  C   UNL     1      -1.153  11.130  22.097  0.00  0.00    +0.000 A 
ATOM     11  C   UNL     1      -0.239  10.380  21.320  0.00  0.00    +0.000 A 
ATOM     12  S   UNL     1       0.338   8.753  21.502  0.00  0.00    +0.000 S 
ENDROOT
BRANCH   2  13
ATOM     13  C   UNL     1       3.512   7.092  17.559  0.00  0.00    +0.000 A 
ATOM     14  C   UNL     1       4.771   7.511  17.127  0.00  0.00    +0.000 A 
ATOM     15  C   UNL     1       5.727   6.595  16.672  0.00  0.00    +0.000 A 
ATOM     16  C   UNL     1       5.446   5.224  16.686  0.00  0.00    +0.000 A 
ATOM     17  C   UNL     1       4.196   4.769  17.105  0.00  0.00    +0.000 A 
ATOM     18  C   UNL     1       3.236   5.703  17.531  0.00  0.00    +0.000 A 
BRANCH  16  19
ATOM     19  N   UNL     1       6.498   4.275  16.304  0.00  0.00    +0.000 N 
ATOM     20  O   UNL     1       7.615   4.411  16.824  0.00  0.00    +0.000 OA
ATOM     21  O   UNL     1       6.202   3.388  15.489  0.00  0.00    +0.000 OA
ENDBRANCH  16  19
ENDBRANCH   2  13
BRANCH   9  22
ATOM     22  O   UNL     1      -2.279  13.333  22.298  0.00  0.00    +0.000 OA
ATOM     23  C   UNL     1      -2.559  14.563  21.653  0.00  0.00    +0.000 C 
ENDBRANCH   9  22
BRANCH   1  24
ATOM     24  C   UNL     1       2.432   6.679  20.468  0.00  0.00    +0.000 C 
BRANCH  24  25
ATOM     25  C   UNL     1       1.355   5.563  20.467  0.00  0.00    +0.000 C 
BRANCH  25  26
ATOM     26  N   UNL     1       1.858   4.173  20.324  0.00  0.00    +0.000 NA
BRANCH  26  28
ATOM     27  C   UNL     1       1.532   2.314  22.044  0.00  0.00    +0.000 C 
ATOM     28  C   UNL     1       2.234   3.610  21.636  0.00  0.00    +0.000 C 
ENDBRANCH  26  28
BRANCH  26  29
ATOM     29  C   UNL     1       0.879   3.344  19.588  0.00  0.00    +0.000 C 
ATOM     30  C   UNL     1       1.437   2.541  18.413  0.00  0.00    +0.000 C 
ENDBRANCH  26  29
ENDBRANCH  25  26
ENDBRANCH  24  25
ENDBRANCH   1  24
TORSDOF 8
ENDMDL
