MODEL 1
REMARK VINA RESULT:      -7.2      0.000      0.000
REMARK  Name = 
REMARK  5 active torsions:
REMARK  status: ('A' for Active; 'I' for Inactive)
REMARK    1  A    between atoms: C_4  and  C_5
REMARK    2  A    between atoms: C_5  and  C_6
REMARK    3  A    between atoms: C_6  and  O_7
REMARK    4  A    between atoms: O_7  and  C_8
REMARK    5  A    between atoms: C_11  and  N_12
REMARK                            x       y       z     vdW  Elec       q    Type
REMARK                         _______ _______ _______ _____ _____    ______ ____
ROOT
ATOM      1  C   UNL     1       6.867   7.009  17.602  0.00  0.00    +0.000 A 
ATOM      2  C   UNL     1       7.304   6.091  18.527  0.00  0.00    +0.000 A 
ATOM      3  S   UNL     1       6.128   4.902  18.863  0.00  0.00    +0.000 S 
ATOM      4  C   UNL     1       4.996   5.593  17.762  0.00  0.00    +0.000 A 
ATOM      5  C   UNL     1       5.538   6.720  17.167  0.00  0.00    +0.000 A 
ENDROOT
BRANCH   4   6
ATOM      6  N   UNL     1       3.772   5.028  17.545  0.00  0.00    +0.000 N 
ATOM      7  C   UNL     1       2.542   5.547  18.150  0.00  0.00    +0.000 C 
ATOM      8  C   UNL     1       1.926   4.506  19.095  0.00  0.00    +0.000 C 
ATOM      9  O   UNL     1       1.732   3.242  18.438  0.00  0.00    +0.000 OA
ATOM     10  C   UNL     1       2.989   2.733  17.960  0.00  0.00    +0.000 C 
ATOM     11  C   UNL     1       3.638   3.691  16.946  0.00  0.00    +0.000 C 
ENDBRANCH   4   6
BRANCH   1  12
ATOM     12  O   UNL     1       7.560   8.096  17.167  0.00  0.00    +0.000 OA
BRANCH  12  13
ATOM     13  C   UNL     1       8.429   8.677  18.150  0.00  0.00    +0.000 C 
BRANCH  13  14
ATOM     14  C   UNL     1       8.321  10.202  18.078  0.00  0.00    +0.000 C 
BRANCH  14  18
ATOM     15  C   UNL     1      11.732  12.221  19.797  0.00  0.00    +0.000 A 
ATOM     16  C   UNL     1      10.690  11.782  20.610  0.00  0.00    +0.000 A 
ATOM     17  C   UNL     1       9.594  11.129  20.047  0.00  0.00    +0.000 A 
ATOM     18  C   UNL     1       9.524  10.900  18.668  0.00  0.00    +0.000 A 
ATOM     19  C   UNL     1      10.579  11.339  17.859  0.00  0.00    +0.000 A 
ATOM     20  C   UNL     1      11.681  11.998  18.426  0.00  0.00    +0.000 A 
ENDBRANCH  14  18
ENDBRANCH  13  14
ENDBRANCH  12  13
ENDBRANCH   1  12
TORSDOF 5
ENDMDL
MODEL 2
REMARK VINA RESULT:      -7.0      0.761      1.317
REMARK  Name = 
REMARK  5 active torsions:
REMARK  status: ('A' for Active; 'I' for Inactive)
REMARK    1  A    between atoms: C_4  and  C_5
REMARK    2  A    between atoms: C_5  and  C_6
REMARK    3  A    between atoms: C_6  and  O_7
REMARK    4  A    between atoms: O_7  and  C_8
REMARK    5  A    between atoms: C_11  and  N_12
REMARK                            x       y       z     vdW  Elec       q    Type
REMARK                         _______ _______ _______ _____ _____    ______ ____
ROOT
ATOM      1  C   UNL     1       6.861   6.760  17.307  0.00  0.00    +0.000 A 
ATOM      2  C   UNL     1       7.282   5.489  17.625  0.00  0.00    +0.000 A 
ATOM      3  S   UNL     1       5.985   4.466  18.049  0.00  0.00    +0.000 S 
ATOM      4  C   UNL     1       4.817   5.711  17.809  0.00  0.00    +0.000 A 
ATOM      5  C   UNL     1       5.444   6.882  17.418  0.00  0.00    +0.000 A 
ENDROOT
BRANCH   4   6
ATOM      6  N   UNL     1       3.481   5.480  17.975  0.00  0.00    +0.000 N 
ATOM      7  C   UNL     1       2.644   6.285  18.870  0.00  0.00    +0.000 C 
ATOM      8  C   UNL     1       2.083   5.418  20.005  0.00  0.00    +0.000 C 
ATOM      9  O   UNL     1       1.400   4.258  19.500  0.00  0.00    +0.000 OA
ATOM     10  C   UNL     1       2.301   3.454  18.717  0.00  0.00    +0.000 C 
ATOM     11  C   UNL     1       2.853   4.234  17.512  0.00  0.00    +0.000 C 
ENDBRANCH   4   6
BRANCH   1  12
ATOM     12  O   UNL     1       7.664   7.806  16.974  0.00  0.00    +0.000 OA
BRANCH  12  13
ATOM     13  C   UNL     1       8.136   8.570  18.094  0.00  0.00    +0.000 C 
BRANCH  13  14
ATOM     14  C   UNL     1       8.332  10.025  17.663  0.00  0.00    +0.000 C 
BRANCH  14  18
ATOM     15  C   UNL     1      11.450  12.020  19.892  0.00  0.00    +0.000 A 
ATOM     16  C   UNL     1      11.500  11.970  18.500  0.00  0.00    +0.000 A 
ATOM     17  C   UNL     1      10.488  11.326  17.789  0.00  0.00    +0.000 A 
ATOM     18  C   UNL     1       9.411  10.728  18.453  0.00  0.00    +0.000 A 
ATOM     19  C   UNL     1       9.365  10.789  19.851  0.00  0.00    +0.000 A 
ATOM     20  C   UNL     1      10.384  11.436  20.567  0.00  0.00    +0.000 A 
ENDBRANCH  14  18
ENDBRANCH  13  14
ENDBRANCH  12  13
ENDBRANCH   1  12
TORSDOF 5
ENDMDL
MODEL 3
REMARK VINA RESULT:      -6.9      1.307      1.686
REMARK  Name = 
REMARK  5 active torsions:
REMARK  status: ('A' for Active; 'I' for Inactive)
REMARK    1  A    between atoms: C_4  and  C_5
REMARK    2  A    between atoms: C_5  and  C_6
REMARK    3  A    between atoms: C_6  and  O_7
REMARK    4  A    between atoms: O_7  and  C_8
REMARK    5  A    between atoms: C_11  and  N_12
REMARK                            x       y       z     vdW  Elec       q    Type
REMARK                         _______ _______ _______ _____ _____    ______ ____
ROOT
ATOM      1  C   UNL     1       7.043   6.268  16.783  0.00  0.00    +0.000 A 
ATOM      2  C   UNL     1       6.957   5.272  15.838  0.00  0.00    +0.000 A 
ATOM      3  S   UNL     1       5.767   4.114  16.226  0.00  0.00    +0.000 S 
ATOM      4  C   UNL     1       5.329   4.930  17.680  0.00  0.00    +0.000 A 
ATOM      5  C   UNL     1       6.107   6.064  17.841  0.00  0.00    +0.000 A 
ENDROOT
BRANCH   4   6
ATOM      6  N   UNL     1       4.327   4.470  18.485  0.00  0.00    +0.000 N 
ATOM      7  C   UNL     1       3.459   3.351  18.106  0.00  0.00    +0.000 C 
ATOM      8  C   UNL     1       2.003   3.820  17.973  0.00  0.00    +0.000 C 
ATOM      9  O   UNL     1       1.553   4.496  19.161  0.00  0.00    +0.000 OA
ATOM     10  C   UNL     1       2.379   5.645  19.420  0.00  0.00    +0.000 C 
ATOM     11  C   UNL     1       3.849   5.248  19.638  0.00  0.00    +0.000 C 
ENDBRANCH   4   6
BRANCH   1  12
ATOM     12  O   UNL     1       7.926   7.303  16.773  0.00  0.00    +0.000 OA
BRANCH  12  13
ATOM     13  C   UNL     1       8.007   8.023  18.012  0.00  0.00    +0.000 C 
BRANCH  13  14
ATOM     14  C   UNL     1       7.949   9.525  17.725  0.00  0.00    +0.000 C 
BRANCH  14  18
ATOM     15  C   UNL     1      11.077  11.736  19.723  0.00  0.00    +0.000 A 
ATOM     16  C   UNL     1      10.124  11.039  20.462  0.00  0.00    +0.000 A 
ATOM     17  C   UNL     1       9.119  10.326  19.809  0.00  0.00    +0.000 A 
ATOM     18  C   UNL     1       9.053  10.294  18.411  0.00  0.00    +0.000 A 
ATOM     19  C   UNL     1      10.019  10.992  17.676  0.00  0.00    +0.000 A 
ATOM     20  C   UNL     1      11.029  11.711  18.334  0.00  0.00    +0.000 A 
ENDBRANCH  14  18
ENDBRANCH  13  14
ENDBRANCH  12  13
ENDBRANCH   1  12
TORSDOF 5
ENDMDL
MODEL 4
REMARK VINA RESULT:      -6.9      4.712      7.538
REMARK  Name = 
REMARK  5 active torsions:
REMARK  status: ('A' for Active; 'I' for Inactive)
REMARK    1  A    between atoms: C_4  and  C_5
REMARK    2  A    between atoms: C_5  and  C_6
REMARK    3  A    between atoms: C_6  and  O_7
REMARK    4  A    between atoms: O_7  and  C_8
REMARK    5  A    between atoms: C_11  and  N_12
REMARK                            x       y       z     vdW  Elec       q    Type
REMARK                         _______ _______ _______ _____ _____    ______ ____
ROOT
ATOM      1  C   UNL     1       5.567   5.178  16.247  0.00  0.00    +0.000 A 
ATOM      2  C   UNL     1       5.910   5.873  17.383  0.00  0.00    +0.000 A 
ATOM      3  S   UNL     1       5.232   5.186  18.789  0.00  0.00    +0.000 S 
ATOM      4  C   UNL     1       4.460   3.926  17.902  0.00  0.00    +0.000 A 
ATOM      5  C   UNL     1       4.731   4.062  16.551  0.00  0.00    +0.000 A 
ENDROOT
BRANCH   4   6
ATOM      6  N   UNL     1       3.729   2.956  18.525  0.00  0.00    +0.000 N 
ATOM      7  C   UNL     1       2.505   2.393  17.947  0.00  0.00    +0.000 C 
ATOM      8  C   UNL     1       1.295   2.706  18.839  0.00  0.00    +0.000 C 
ATOM      9  O   UNL     1       1.514   2.283  20.197  0.00  0.00    +0.000 OA
ATOM     10  C   UNL     1       2.666   2.950  20.743  0.00  0.00    +0.000 C 
ATOM     11  C   UNL     1       3.939   2.627  19.943  0.00  0.00    +0.000 C 
ENDBRANCH   4   6
BRANCH   1  12
ATOM     12  O   UNL     1       5.917   5.507  14.974  0.00  0.00    +0.000 OA
BRANCH  12  13
ATOM     13  C   UNL     1       7.106   4.858  14.501  0.00  0.00    +0.000 C 
BRANCH  13  14
ATOM     14  C   UNL     1       7.178   4.990  12.977  0.00  0.00    +0.000 C 
BRANCH  14  18
ATOM     15  C   UNL     1       5.817   1.420  10.959  0.00  0.00    +0.000 A 
ATOM     16  C   UNL     1       4.899   2.312  11.510  0.00  0.00    +0.000 A 
ATOM     17  C   UNL     1       5.347   3.463  12.158  0.00  0.00    +0.000 A 
ATOM     18  C   UNL     1       6.715   3.743  12.261  0.00  0.00    +0.000 A 
ATOM     19  C   UNL     1       7.630   2.845  11.698  0.00  0.00    +0.000 A 
ATOM     20  C   UNL     1       7.179   1.686  11.048  0.00  0.00    +0.000 A 
ENDBRANCH  14  18
ENDBRANCH  13  14
ENDBRANCH  12  13
ENDBRANCH   1  12
TORSDOF 5
ENDMDL
MODEL 5
REMARK VINA RESULT:      -6.8      4.286      8.197
REMARK  Name = 
REMARK  5 active torsions:
REMARK  status: ('A' for Active; 'I' for Inactive)
REMARK    1  A    between atoms: C_4  and  C_5
REMARK    2  A    between atoms: C_5  and  C_6
REMARK    3  A    between atoms: C_6  and  O_7
REMARK    4  A    between atoms: O_7  and  C_8
REMARK    5  A    between atoms: C_11  and  N_12
REMARK                            x       y       z     vdW  Elec       q    Type
REMARK                         _______ _______ _______ _____ _____    ______ ____
ROOT
ATOM      1  C   UNL     1       2.795   6.198  19.638  0.00  0.00    +0.000 A 
ATOM      2  C   UNL     1       2.313   7.301  18.971  0.00  0.00    +0.000 A 
ATOM      3  S   UNL     1       3.301   7.740  17.652  0.00  0.00    +0.000 S 
ATOM      4  C   UNL     1       4.405   6.448  17.942  0.00  0.00    +0.000 A 
ATOM      5  C   UNL     1       3.998   5.714  19.043  0.00  0.00    +0.000 A 
ENDROOT
BRANCH   4   6
ATOM      6  N   UNL     1       5.483   6.232  17.132  0.00  0.00    +0.000 N 
ATOM      7  C   UNL     1       5.366   5.624  15.804  0.00  0.00    +0.000 C 
ATOM      8  C   UNL     1       6.118   4.286  15.757  0.00  0.00    +0.000 C 
ATOM      9  O   UNL     1       7.484   4.430  16.184  0.00  0.00    +0.000 OA
ATOM     10  C   UNL     1       7.531   4.931  17.532  0.00  0.00    +0.000 C 
ATOM     11  C   UNL     1       6.859   6.309  17.647  0.00  0.00    +0.000 C 
ENDBRANCH   4   6
BRANCH   1  12
ATOM     12  O   UNL     1       2.251   5.640  20.753  0.00  0.00    +0.000 OA
BRANCH  12  13
ATOM     13  C   UNL     1       0.946   5.077  20.557  0.00  0.00    +0.000 C 
BRANCH  13  14
ATOM     14  C   UNL     1       1.011   3.565  20.786  0.00  0.00    +0.000 C 
BRANCH  14  18
ATOM     15  C   UNL     1       3.741   1.570  18.094  0.00  0.00    +0.000 A 
ATOM     16  C   UNL     1       2.501   2.016  17.639  0.00  0.00    +0.000 A 
ATOM     17  C   UNL     1       1.628   2.661  18.514  0.00  0.00    +0.000 A 
ATOM     18  C   UNL     1       1.979   2.875  19.852  0.00  0.00    +0.000 A 
ATOM     19  C   UNL     1       3.229   2.429  20.299  0.00  0.00    +0.000 A 
ATOM     20  C   UNL     1       4.107   1.779  19.419  0.00  0.00    +0.000 A 
ENDBRANCH  14  18
ENDBRANCH  13  14
ENDBRANCH  12  13
ENDBRANCH   1  12
TORSDOF 5
ENDMDL
MODEL 6
REMARK VINA RESULT:      -6.8      5.555      8.402
REMARK  Name = 
REMARK  5 active torsions:
REMARK  status: ('A' for Active; 'I' for Inactive)
REMARK    1  A    between atoms: C_4  and  C_5
REMARK    2  A    between atoms: C_5  and  C_6
REMARK    3  A    between atoms: C_6  and  O_7
REMARK    4  A    between atoms: O_7  and  C_8
REMARK    5  A    between atoms: C_11  and  N_12
REMARK                            x       y       z     vdW  Elec       q    Type
REMARK                         _______ _______ _______ _____ _____    ______ ____
ROOT
ATOM      1  C   UNL     1       3.571   6.396  18.395  0.00  0.00    +0.000 A 
ATOM      2  C   UNL     1       3.561   7.359  17.413  0.00  0.00    +0.000 A 
ATOM      3  S   UNL     1       2.489   8.636  17.772  0.00  0.00    +0.000 S 
ATOM      4  C   UNL     1       2.012   7.925  19.268  0.00  0.00    +0.000 A 
ATOM      5  C   UNL     1       2.678   6.726  19.457  0.00  0.00    +0.000 A 
ENDROOT
BRANCH   4   6
ATOM      6  N   UNL     1       1.124   8.541  20.102  0.00  0.00    +0.000 N 
ATOM      7  C   UNL     1       0.491   9.823  19.777  0.00  0.00    +0.000 C 
ATOM      8  C   UNL     1       0.906  10.900  20.789  0.00  0.00    +0.000 C 
ATOM      9  O   UNL     1       0.654  10.482  22.142  0.00  0.00    +0.000 OA
ATOM     10  C   UNL     1       1.385   9.278  22.434  0.00  0.00    +0.000 C 
ATOM     11  C   UNL     1       0.970   8.125  21.505  0.00  0.00    +0.000 C 
ENDBRANCH   4   6
BRANCH   1  12
ATOM     12  O   UNL     1       4.289   5.241  18.371  0.00  0.00    +0.000 OA
BRANCH  12  13
ATOM     13  C   UNL     1       3.994   4.383  17.259  0.00  0.00    +0.000 C 
BRANCH  13  14
ATOM     14  C   UNL     1       3.726   2.967  17.773  0.00  0.00    +0.000 C 
BRANCH  14  18
ATOM     15  C   UNL     1       1.290   2.884  21.342  0.00  0.00    +0.000 A 
ATOM     16  C   UNL     1       2.657   2.627  21.415  0.00  0.00    +0.000 A 
ATOM     17  C   UNL     1       3.436   2.658  20.259  0.00  0.00    +0.000 A 
ATOM     18  C   UNL     1       2.865   2.951  19.015  0.00  0.00    +0.000 A 
ATOM     19  C   UNL     1       1.491   3.215  18.951  0.00  0.00    +0.000 A 
ATOM     20  C   UNL     1       0.707   3.182  20.114  0.00  0.00    +0.000 A 
ENDBRANCH  14  18
ENDBRANCH  13  14
ENDBRANCH  12  13
ENDBRANCH   1  12
TORSDOF 5
ENDMDL
MODEL 7
REMARK VINA RESULT:      -6.7      1.312      1.706
REMARK  Name = 
REMARK  5 active torsions:
REMARK  status: ('A' for Active; 'I' for Inactive)
REMARK    1  A    between atoms: C_4  and  C_5
REMARK    2  A    between atoms: C_5  and  C_6
REMARK    3  A    between atoms: C_6  and  O_7
REMARK    4  A    between atoms: O_7  and  C_8
REMARK    5  A    between atoms: C_11  and  N_12
REMARK                            x       y       z     vdW  Elec       q    Type
REMARK                         _______ _______ _______ _____ _____    ______ ____
ROOT
ATOM      1  C   UNL     1       6.459   6.715  17.305  0.00  0.00    +0.000 A 
ATOM      2  C   UNL     1       5.216   7.298  17.227  0.00  0.00    +0.000 A 
ATOM      3  S   UNL     1       3.963   6.194  17.574  0.00  0.00    +0.000 S 
ATOM      4  C   UNL     1       5.067   4.898  17.844  0.00  0.00    +0.000 A 
ATOM      5  C   UNL     1       6.368   5.335  17.657  0.00  0.00    +0.000 A 
ENDROOT
BRANCH   4   6
ATOM      6  N   UNL     1       4.637   3.657  18.217  0.00  0.00    +0.000 N 
ATOM      7  C   UNL     1       3.915   2.764  17.306  0.00  0.00    +0.000 C 
ATOM      8  C   UNL     1       2.496   2.496  17.828  0.00  0.00    +0.000 C 
ATOM      9  O   UNL     1       2.511   2.015  19.183  0.00  0.00    +0.000 OA
ATOM     10  C   UNL     1       3.137   2.981  20.045  0.00  0.00    +0.000 C 
ATOM     11  C   UNL     1       4.593   3.250  19.630  0.00  0.00    +0.000 C 
ENDBRANCH   4   6
BRANCH   1  12
ATOM     12  O   UNL     1       7.645   7.327  17.040  0.00  0.00    +0.000 OA
BRANCH  12  13
ATOM     13  C   UNL     1       8.196   8.056  18.147  0.00  0.00    +0.000 C 
BRANCH  13  14
ATOM     14  C   UNL     1       8.069   9.557  17.874  0.00  0.00    +0.000 C 
BRANCH  14  18
ATOM     15  C   UNL     1      11.154  11.883  19.809  0.00  0.00    +0.000 A 
ATOM     16  C   UNL     1      10.160  11.263  20.563  0.00  0.00    +0.000 A 
ATOM     17  C   UNL     1       9.170  10.512  19.931  0.00  0.00    +0.000 A 
ATOM     18  C   UNL     1       9.159  10.364  18.539  0.00  0.00    +0.000 A 
ATOM     19  C   UNL     1      10.166  10.985  17.788  0.00  0.00    +0.000 A 
ATOM     20  C   UNL     1      11.161  11.742  18.425  0.00  0.00    +0.000 A 
ENDBRANCH  14  18
ENDBRANCH  13  14
ENDBRANCH  12  13
ENDBRANCH   1  12
TORSDOF 5
ENDMDL
MODEL 8
REMARK VINA RESULT:      -6.7      4.791      6.507
REMARK  Name = 
REMARK  5 active torsions:
REMARK  status: ('A' for Active; 'I' for Inactive)
REMARK    1  A    between atoms: C_4  and  C_5
REMARK    2  A    between atoms: C_5  and  C_6
REMARK    3  A    between atoms: C_6  and  O_7
REMARK    4  A    between atoms: O_7  and  C_8
REMARK    5  A    between atoms: C_11  and  N_12
REMARK                            x       y       z     vdW  Elec       q    Type
REMARK                         _______ _______ _______ _____ _____    ______ ____
ROOT
ATOM      1  C   UNL     1       5.410   5.821  18.074  0.00  0.00    +0.000 A 
ATOM      2  C   UNL     1       4.695   6.890  17.586  0.00  0.00    +0.000 A 
ATOM      3  S   UNL     1       3.042   6.801  17.997  0.00  0.00    +0.000 S 
ATOM      4  C   UNL     1       3.248   5.318  18.851  0.00  0.00    +0.000 A 
ATOM      5  C   UNL     1       4.573   4.920  18.798  0.00  0.00    +0.000 A 
ENDROOT
BRANCH   4   6
ATOM      6  N   UNL     1       2.205   4.707  19.486  0.00  0.00    +0.000 N 
ATOM      7  C   UNL     1       1.969   4.841  20.927  0.00  0.00    +0.000 C 
ATOM      8  C   UNL     1       2.101   3.479  21.623  0.00  0.00    +0.000 C 
ATOM      9  O   UNL     1       1.258   2.487  21.011  0.00  0.00    +0.000 OA
ATOM     10  C   UNL     1       1.609   2.325  19.626  0.00  0.00    +0.000 C 
ATOM     11  C   UNL     1       1.432   3.636  18.840  0.00  0.00    +0.000 C 
ENDBRANCH   4   6
BRANCH   1  12
ATOM     12  O   UNL     1       6.736   5.590  17.874  0.00  0.00    +0.000 OA
BRANCH  12  13
ATOM     13  C   UNL     1       7.021   4.651  16.826  0.00  0.00    +0.000 C 
BRANCH  13  14
ATOM     14  C   UNL     1       7.356   5.416  15.543  0.00  0.00    +0.000 C 
BRANCH  14  18
ATOM     15  C   UNL     1       5.869   3.497  11.968  0.00  0.00    +0.000 A 
ATOM     16  C   UNL     1       7.094   4.159  11.956  0.00  0.00    +0.000 A 
ATOM     17  C   UNL     1       7.568   4.774  13.114  0.00  0.00    +0.000 A 
ATOM     18  C   UNL     1       6.829   4.733  14.303  0.00  0.00    +0.000 A 
ATOM     19  C   UNL     1       5.601   4.060  14.309  0.00  0.00    +0.000 A 
ATOM     20  C   UNL     1       5.125   3.443  13.142  0.00  0.00    +0.000 A 
ENDBRANCH  14  18
ENDBRANCH  13  14
ENDBRANCH  12  13
ENDBRANCH   1  12
TORSDOF 5
ENDMDL
MODEL 9
REMARK VINA RESULT:      -6.7      5.917      8.673
REMARK  Name = 
REMARK  5 active torsions:
REMARK  status: ('A' for Active; 'I' for Inactive)
REMARK    1  A    between atoms: C_4  and  C_5
REMARK    2  A    between atoms: C_5  and  C_6
REMARK    3  A    between atoms: C_6  and  O_7
REMARK    4  A    between atoms: O_7  and  C_8
REMARK    5  A    between atoms: C_11  and  N_12
REMARK                            x       y       z     vdW  Elec       q    Type
REMARK                         _______ _______ _______ _____ _____    ______ ____
ROOT
ATOM      1  C   UNL     1       2.688   7.358  18.963  0.00  0.00    +0.000 A 
ATOM      2  C   UNL     1       2.573   8.257  17.929  0.00  0.00    +0.000 A 
ATOM      3  S   UNL     1       1.415   9.467  18.251  0.00  0.00    +0.000 S 
ATOM      4  C   UNL     1       1.040   8.812  19.801  0.00  0.00    +0.000 A 
ATOM      5  C   UNL     1       1.803   7.680  20.035  0.00  0.00    +0.000 A 
ENDROOT
BRANCH   4   6
ATOM      6  N   UNL     1       0.131   9.406  20.628  0.00  0.00    +0.000 N 
ATOM      7  C   UNL     1      -0.234  10.821  20.517  0.00  0.00    +0.000 C 
ATOM      8  C   UNL     1       0.169  11.582  21.788  0.00  0.00    +0.000 C 
ATOM      9  O   UNL     1      -0.366  10.961  22.970  0.00  0.00    +0.000 OA
ATOM     10  C   UNL     1       0.112   9.609  23.079  0.00  0.00    +0.000 C 
ATOM     11  C   UNL     1      -0.315   8.758  21.872  0.00  0.00    +0.000 C 
ENDBRANCH   4   6
BRANCH   1  12
ATOM     12  O   UNL     1       3.493   6.261  18.981  0.00  0.00    +0.000 OA
BRANCH  12  13
ATOM     13  C   UNL     1       3.821   5.747  17.682  0.00  0.00    +0.000 C 
BRANCH  13  14
ATOM     14  C   UNL     1       3.341   4.297  17.580  0.00  0.00    +0.000 C 
BRANCH  14  18
ATOM     15  C   UNL     1       1.525   2.854  21.226  0.00  0.00    +0.000 A 
ATOM     16  C   UNL     1       2.902   2.754  21.036  0.00  0.00    +0.000 A 
ATOM     17  C   UNL     1       3.480   3.224  19.858  0.00  0.00    +0.000 A 
ATOM     18  C   UNL     1       2.695   3.805  18.854  0.00  0.00    +0.000 A 
ATOM     19  C   UNL     1       1.314   3.908  19.056  0.00  0.00    +0.000 A 
ATOM     20  C   UNL     1       0.732   3.433  20.241  0.00  0.00    +0.000 A 
ENDBRANCH  14  18
ENDBRANCH  13  14
ENDBRANCH  12  13
ENDBRANCH   1  12
TORSDOF 5
ENDMDL
