MODEL 1
REMARK VINA RESULT:      -5.6      0.000      0.000
REMARK  Name = 
REMARK  3 active torsions:
REMARK  status: ('A' for Active; 'I' for Inactive)
REMARK    1  A    between atoms: N_1  and  C_2
REMARK    2  A    between atoms: C_2  and  C_3
REMARK    3  A    between atoms: N_6  and  C_7
REMARK                            x       y       z     vdW  Elec       q    Type
REMARK                         _______ _______ _______ _____ _____    ______ ____
ROOT
ATOM      1  C   UNL     1       1.606   3.721  19.922  0.00  0.00    +0.000 C 
ATOM      2  C   UNL     1       1.171   3.015  18.638  0.00  0.00    +0.000 C 
ATOM      3  C   UNL     1       2.462   2.436  18.102  0.00  0.00    +0.000 C 
ATOM      4  N   UNL     1       3.481   3.435  18.410  0.00  0.00    +0.000 NA
ATOM      5  C   UNL     1       3.109   3.997  19.723  0.00  0.00    +0.000 C 
ENDROOT
BRANCH   4   6
ATOM      6  C   UNL     1       3.834   4.422  17.386  0.00  0.00    +0.000 C 
ATOM      7  C   UNL     1       4.233   5.817  17.888  0.00  0.00    +0.000 C 
ATOM      8  C   UNL     1       4.769   6.532  16.655  0.00  0.00    +0.000 C 
ATOM      9  C   UNL     1       5.315   5.439  15.741  0.00  0.00    +0.000 C 
ATOM     10  C   UNL     1       4.958   4.101  16.392  0.00  0.00    +0.000 C 
ENDBRANCH   4   6
BRANCH   1  11
ATOM     11  C   UNL     1       1.320   2.838  21.146  0.00  0.00    +0.000 C 
BRANCH  11  12
ATOM     12  N   UNL     1       2.492   2.698  22.003  0.00  0.00    +0.000 NA
ATOM     13  H   UNL     1       3.336   2.725  21.427  0.00  0.00    +0.000 HD
ATOM     14  H   UNL     1       2.485   1.783  22.450  0.00  0.00    +0.000 HD
ENDBRANCH  11  12
ENDBRANCH   1  11
TORSDOF 3
ENDMDL
MODEL 2
REMARK VINA RESULT:      -5.6      2.595      4.799
REMARK  Name = 
REMARK  3 active torsions:
REMARK  status: ('A' for Active; 'I' for Inactive)
REMARK    1  A    between atoms: N_1  and  C_2
REMARK    2  A    between atoms: C_2  and  C_3
REMARK    3  A    between atoms: N_6  and  C_7
REMARK                            x       y       z     vdW  Elec       q    Type
REMARK                         _______ _______ _______ _____ _____    ______ ____
ROOT
ATOM      1  C   UNL     1       6.999   5.127  18.396  0.00  0.00    +0.000 C 
ATOM      2  C   UNL     1       6.747   5.837  17.066  0.00  0.00    +0.000 C 
ATOM      3  C   UNL     1       5.542   6.703  17.354  0.00  0.00    +0.000 C 
ATOM      4  N   UNL     1       4.706   5.905  18.247  0.00  0.00    +0.000 NA
ATOM      5  C   UNL     1       5.642   5.173  19.124  0.00  0.00    +0.000 C 
ENDROOT
BRANCH   4   6
ATOM      6  C   UNL     1       3.629   5.096  17.671  0.00  0.00    +0.000 C 
ATOM      7  C   UNL     1       3.782   3.573  17.782  0.00  0.00    +0.000 C 
ATOM      8  C   UNL     1       2.436   3.017  17.333  0.00  0.00    +0.000 C 
ATOM      9  C   UNL     1       1.408   4.097  17.656  0.00  0.00    +0.000 C 
ATOM     10  C   UNL     1       2.188   5.315  18.153  0.00  0.00    +0.000 C 
ENDBRANCH   4   6
BRANCH   1  11
ATOM     11  C   UNL     1       8.118   5.831  19.179  0.00  0.00    +0.000 C 
BRANCH  11  12
ATOM     12  N   UNL     1       8.132   5.437  20.583  0.00  0.00    +0.000 NA
ATOM     13  H   UNL     1       7.191   5.529  20.969  0.00  0.00    +0.000 HD
ATOM     14  H   UNL     1       8.719   6.077  21.116  0.00  0.00    +0.000 HD
ENDBRANCH  11  12
ENDBRANCH   1  11
TORSDOF 3
ENDMDL
MODEL 3
REMARK VINA RESULT:      -5.6      2.075      4.614
REMARK  Name = 
REMARK  3 active torsions:
REMARK  status: ('A' for Active; 'I' for Inactive)
REMARK    1  A    between atoms: N_1  and  C_2
REMARK    2  A    between atoms: C_2  and  C_3
REMARK    3  A    between atoms: N_6  and  C_7
REMARK                            x       y       z     vdW  Elec       q    Type
REMARK                         _______ _______ _______ _____ _____    ______ ____
ROOT
ATOM      1  C   UNL     1       5.619   4.709  19.078  0.00  0.00    +0.000 C 
ATOM      2  C   UNL     1       5.252   4.092  17.729  0.00  0.00    +0.000 C 
ATOM      3  C   UNL     1       4.170   5.010  17.206  0.00  0.00    +0.000 C 
ATOM      4  N   UNL     1       3.398   5.394  18.385  0.00  0.00    +0.000 NA
ATOM      5  C   UNL     1       4.378   5.529  19.481  0.00  0.00    +0.000 C 
ENDROOT
BRANCH   4   6
ATOM      6  C   UNL     1       2.191   4.632  18.719  0.00  0.00    +0.000 C 
ATOM      7  C   UNL     1       2.014   3.283  18.006  0.00  0.00    +0.000 C 
ATOM      8  C   UNL     1       0.836   2.625  18.714  0.00  0.00    +0.000 C 
ATOM      9  C   UNL     1       0.835   3.186  20.133  0.00  0.00    +0.000 C 
ATOM     10  C   UNL     1       1.919   4.263  20.183  0.00  0.00    +0.000 C 
ENDBRANCH   4   6
BRANCH   1  11
ATOM     11  C   UNL     1       6.885   5.570  18.950  0.00  0.00    +0.000 C 
BRANCH  11  12
ATOM     12  N   UNL     1       7.718   5.498  20.145  0.00  0.00    +0.000 NA
ATOM     13  H   UNL     1       8.361   6.291  20.157  0.00  0.00    +0.000 HD
ATOM     14  H   UNL     1       8.300   4.663  20.111  0.00  0.00    +0.000 HD
ENDBRANCH  11  12
ENDBRANCH   1  11
TORSDOF 3
ENDMDL
MODEL 4
REMARK VINA RESULT:      -5.5      1.908      4.851
REMARK  Name = 
REMARK  3 active torsions:
REMARK  status: ('A' for Active; 'I' for Inactive)
REMARK    1  A    between atoms: N_1  and  C_2
REMARK    2  A    between atoms: C_2  and  C_3
REMARK    3  A    between atoms: N_6  and  C_7
REMARK                            x       y       z     vdW  Elec       q    Type
REMARK                         _______ _______ _______ _____ _____    ______ ____
ROOT
ATOM      1  C   UNL     1       5.584   4.202  17.594  0.00  0.00    +0.000 C 
ATOM      2  C   UNL     1       4.367   4.921  17.014  0.00  0.00    +0.000 C 
ATOM      3  C   UNL     1       4.039   5.958  18.065  0.00  0.00    +0.000 C 
ATOM      4  N   UNL     1       4.311   5.303  19.341  0.00  0.00    +0.000 NA
ATOM      5  C   UNL     1       5.499   4.456  19.112  0.00  0.00    +0.000 C 
ENDROOT
BRANCH   4   6
ATOM      6  C   UNL     1       3.208   4.651  20.051  0.00  0.00    +0.000 C 
ATOM      7  C   UNL     1       1.792   4.941  19.531  0.00  0.00    +0.000 C 
ATOM      8  C   UNL     1       0.898   3.962  20.282  0.00  0.00    +0.000 C 
ATOM      9  C   UNL     1       1.779   2.761  20.616  0.00  0.00    +0.000 C 
ATOM     10  C   UNL     1       3.200   3.122  20.181  0.00  0.00    +0.000 C 
ENDBRANCH   4   6
BRANCH   1  11
ATOM     11  C   UNL     1       6.879   4.747  16.973  0.00  0.00    +0.000 C 
BRANCH  11  12
ATOM     12  N   UNL     1       8.067   4.168  17.591  0.00  0.00    +0.000 NA
ATOM     13  H   UNL     1       7.979   3.150  17.602  0.00  0.00    +0.000 HD
ATOM     14  H   UNL     1       8.125   4.457  18.565  0.00  0.00    +0.000 HD
ENDBRANCH  11  12
ENDBRANCH   1  11
TORSDOF 3
ENDMDL
MODEL 5
REMARK VINA RESULT:      -5.5      1.773      4.925
REMARK  Name = 
REMARK  3 active torsions:
REMARK  status: ('A' for Active; 'I' for Inactive)
REMARK    1  A    between atoms: N_1  and  C_2
REMARK    2  A    between atoms: C_2  and  C_3
REMARK    3  A    between atoms: N_6  and  C_7
REMARK                            x       y       z     vdW  Elec       q    Type
REMARK                         _______ _______ _______ _____ _____    ______ ____
ROOT
ATOM      1  C   UNL     1       5.560   4.342  16.934  0.00  0.00    +0.000 C 
ATOM      2  C   UNL     1       4.774   5.584  16.514  0.00  0.00    +0.000 C 
ATOM      3  C   UNL     1       4.461   6.261  17.830  0.00  0.00    +0.000 C 
ATOM      4  N   UNL     1       4.202   5.170  18.765  0.00  0.00    +0.000 NA
ATOM      5  C   UNL     1       5.142   4.093  18.396  0.00  0.00    +0.000 C 
ENDROOT
BRANCH   4   6
ATOM      6  C   UNL     1       2.818   4.741  18.984  0.00  0.00    +0.000 C 
ATOM      7  C   UNL     1       2.478   3.297  18.592  0.00  0.00    +0.000 C 
ATOM      8  C   UNL     1       1.077   3.066  19.147  0.00  0.00    +0.000 C 
ATOM      9  C   UNL     1       0.947   3.993  20.352  0.00  0.00    +0.000 C 
ATOM     10  C   UNL     1       2.215   4.847  20.392  0.00  0.00    +0.000 C 
ENDBRANCH   4   6
BRANCH   1  11
ATOM     11  C   UNL     1       7.070   4.581  16.780  0.00  0.00    +0.000 C 
BRANCH  11  12
ATOM     12  N   UNL     1       7.792   4.326  18.021  0.00  0.00    +0.000 NA
ATOM     13  H   UNL     1       7.193   4.561  18.814  0.00  0.00    +0.000 HD
ATOM     14  H   UNL     1       8.599   4.944  18.085  0.00  0.00    +0.000 HD
ENDBRANCH  11  12
ENDBRANCH   1  11
TORSDOF 3
ENDMDL
MODEL 6
REMARK VINA RESULT:      -5.5      1.970      4.821
REMARK  Name = 
REMARK  3 active torsions:
REMARK  status: ('A' for Active; 'I' for Inactive)
REMARK    1  A    between atoms: N_1  and  C_2
REMARK    2  A    between atoms: C_2  and  C_3
REMARK    3  A    between atoms: N_6  and  C_7
REMARK                            x       y       z     vdW  Elec       q    Type
REMARK                         _______ _______ _______ _____ _____    ______ ____
ROOT
ATOM      1  C   UNL     1       5.754   4.406  18.531  0.00  0.00    +0.000 C 
ATOM      2  C   UNL     1       4.921   3.967  17.327  0.00  0.00    +0.000 C 
ATOM      3  C   UNL     1       3.882   5.059  17.203  0.00  0.00    +0.000 C 
ATOM      4  N   UNL     1       3.553   5.428  18.577  0.00  0.00    +0.000 NA
ATOM      5  C   UNL     1       4.820   5.336  19.331  0.00  0.00    +0.000 C 
ENDROOT
BRANCH   4   6
ATOM      6  C   UNL     1       2.398   4.797  19.221  0.00  0.00    +0.000 C 
ATOM      7  C   UNL     1       1.711   3.667  18.440  0.00  0.00    +0.000 C 
ATOM      8  C   UNL     1       0.730   3.054  19.432  0.00  0.00    +0.000 C 
ATOM      9  C   UNL     1       1.325   3.302  20.816  0.00  0.00    +0.000 C 
ATOM     10  C   UNL     1       2.564   4.175  20.614  0.00  0.00    +0.000 C 
ENDBRANCH   4   6
BRANCH   1  11
ATOM     11  C   UNL     1       7.040   5.108  18.070  0.00  0.00    +0.000 C 
BRANCH  11  12
ATOM     12  N   UNL     1       7.871   4.239  17.245  0.00  0.00    +0.000 NA
ATOM     13  H   UNL     1       7.717   4.461  16.260  0.00  0.00    +0.000 HD
ATOM     14  H   UNL     1       7.581   3.270  17.363  0.00  0.00    +0.000 HD
ENDBRANCH  11  12
ENDBRANCH   1  11
TORSDOF 3
ENDMDL
MODEL 7
REMARK VINA RESULT:      -5.5      2.085      5.043
REMARK  Name = 
REMARK  3 active torsions:
REMARK  status: ('A' for Active; 'I' for Inactive)
REMARK    1  A    between atoms: N_1  and  C_2
REMARK    2  A    between atoms: C_2  and  C_3
REMARK    3  A    between atoms: N_6  and  C_7
REMARK                            x       y       z     vdW  Elec       q    Type
REMARK                         _______ _______ _______ _____ _____    ______ ____
ROOT
ATOM      1  C   UNL     1       6.114   4.860  17.944  0.00  0.00    +0.000 C 
ATOM      2  C   UNL     1       5.034   4.863  16.862  0.00  0.00    +0.000 C 
ATOM      3  C   UNL     1       3.935   5.708  17.467  0.00  0.00    +0.000 C 
ATOM      4  N   UNL     1       3.939   5.374  18.888  0.00  0.00    +0.000 NA
ATOM      5  C   UNL     1       5.357   5.173  19.249  0.00  0.00    +0.000 C 
ENDROOT
BRANCH   4   6
ATOM      6  C   UNL     1       3.020   4.341  19.374  0.00  0.00    +0.000 C 
ATOM      7  C   UNL     1       2.312   4.625  20.706  0.00  0.00    +0.000 C 
ATOM      8  C   UNL     1       1.267   3.524  20.830  0.00  0.00    +0.000 C 
ATOM      9  C   UNL     1       0.913   3.120  19.401  0.00  0.00    +0.000 C 
ATOM     10  C   UNL     1       1.859   3.890  18.478  0.00  0.00    +0.000 C 
ENDBRANCH   4   6
BRANCH   1  11
ATOM     11  C   UNL     1       7.201   5.898  17.623  0.00  0.00    +0.000 C 
BRANCH  11  12
ATOM     12  N   UNL     1       7.378   6.077  16.186  0.00  0.00    +0.000 NA
ATOM     13  H   UNL     1       7.508   7.070  15.984  0.00  0.00    +0.000 HD
ATOM     14  H   UNL     1       6.530   5.798  15.697  0.00  0.00    +0.000 HD
ENDBRANCH  11  12
ENDBRANCH   1  11
TORSDOF 3
ENDMDL
MODEL 8
REMARK VINA RESULT:      -5.5      0.498      1.260
REMARK  Name = 
REMARK  3 active torsions:
REMARK  status: ('A' for Active; 'I' for Inactive)
REMARK    1  A    between atoms: N_1  and  C_2
REMARK    2  A    between atoms: C_2  and  C_3
REMARK    3  A    between atoms: N_6  and  C_7
REMARK                            x       y       z     vdW  Elec       q    Type
REMARK                         _______ _______ _______ _____ _____    ______ ____
ROOT
ATOM      1  C   UNL     1       1.869   4.040  19.711  0.00  0.00    +0.000 C 
ATOM      2  C   UNL     1       1.551   3.614  18.278  0.00  0.00    +0.000 C 
ATOM      3  C   UNL     1       2.765   2.809  17.875  0.00  0.00    +0.000 C 
ATOM      4  N   UNL     1       3.896   3.490  18.498  0.00  0.00    +0.000 NA
ATOM      5  C   UNL     1       3.405   3.968  19.806  0.00  0.00    +0.000 C 
ENDROOT
BRANCH   4   6
ATOM      6  C   UNL     1       4.646   4.476  17.716  0.00  0.00    +0.000 C 
ATOM      7  C   UNL     1       4.832   4.168  16.223  0.00  0.00    +0.000 C 
ATOM      8  C   UNL     1       5.414   5.448  15.635  0.00  0.00    +0.000 C 
ATOM      9  C   UNL     1       4.911   6.583  16.523  0.00  0.00    +0.000 C 
ATOM     10  C   UNL     1       4.165   5.934  17.690  0.00  0.00    +0.000 C 
ENDBRANCH   4   6
BRANCH   1  11
ATOM     11  C   UNL     1       1.167   3.115  20.717  0.00  0.00    +0.000 C 
BRANCH  11  12
ATOM     12  N   UNL     1       1.955   2.928  21.930  0.00  0.00    +0.000 NA
ATOM     13  H   UNL     1       2.949   2.945  21.692  0.00  0.00    +0.000 HD
ATOM     14  H   UNL     1       1.775   2.006  22.321  0.00  0.00    +0.000 HD
ENDBRANCH  11  12
ENDBRANCH   1  11
TORSDOF 3
ENDMDL
MODEL 9
REMARK VINA RESULT:      -5.5      1.477      4.996
REMARK  Name = 
REMARK  3 active torsions:
REMARK  status: ('A' for Active; 'I' for Inactive)
REMARK    1  A    between atoms: N_1  and  C_2
REMARK    2  A    between atoms: C_2  and  C_3
REMARK    3  A    between atoms: N_6  and  C_7
REMARK                            x       y       z     vdW  Elec       q    Type
REMARK                         _______ _______ _______ _____ _____    ______ ____
ROOT
ATOM      1  C   UNL     1       4.431   5.006  16.880  0.00  0.00    +0.000 C 
ATOM      2  C   UNL     1       4.904   5.912  18.017  0.00  0.00    +0.000 C 
ATOM      3  C   UNL     1       5.309   4.935  19.098  0.00  0.00    +0.000 C 
ATOM      4  N   UNL     1       4.338   3.849  19.011  0.00  0.00    +0.000 NA
ATOM      5  C   UNL     1       4.050   3.682  17.572  0.00  0.00    +0.000 C 
ENDROOT
BRANCH   4   6
ATOM      6  C   UNL     1       3.160   3.882  19.882  0.00  0.00    +0.000 C 
ATOM      7  C   UNL     1       1.794   3.957  19.185  0.00  0.00    +0.000 C 
ATOM      8  C   UNL     1       0.780   3.733  20.300  0.00  0.00    +0.000 C 
ATOM      9  C   UNL     1       1.492   2.885  21.349  0.00  0.00    +0.000 C 
ATOM     10  C   UNL     1       2.946   2.750  20.896  0.00  0.00    +0.000 C 
ENDBRANCH   4   6
BRANCH   1  11
ATOM     11  C   UNL     1       5.541   4.831  15.832  0.00  0.00    +0.000 C 
BRANCH  11  12
ATOM     12  N   UNL     1       6.043   3.462  15.792  0.00  0.00    +0.000 NA
ATOM     13  H   UNL     1       5.258   2.819  15.673  0.00  0.00    +0.000 HD
ATOM     14  H   UNL     1       6.470   3.225  16.685  0.00  0.00    +0.000 HD
ENDBRANCH  11  12
ENDBRANCH   1  11
TORSDOF 3
ENDMDL
