MODEL 1
REMARK VINA RESULT:      -7.8      0.000      0.000
REMARK  Name = 
REMARK  12 active torsions:
REMARK  status: ('A' for Active; 'I' for Inactive)
REMARK    1  A    between atoms: C_1  and  C_2
REMARK    2  A    between atoms: C_4  and  S_5
REMARK    3  A    between atoms: S_5  and  C_6
REMARK    4  A    between atoms: C_6  and  C_7
REMARK    5  A    between atoms: C_10  and  O_11
REMARK    6  A    between atoms: O_11  and  C_12
REMARK    7  A    between atoms: C_12  and  C_13
REMARK    8  A    between atoms: C_16  and  C_17
REMARK    9  A    between atoms: C_27  and  O_28
REMARK   10  A    between atoms: O_28  and  C_29
REMARK   11  A    between atoms: C_29  and  C_30
REMARK   12  A    between atoms: C_30  and  O_32
REMARK                            x       y       z     vdW  Elec       q    Type
REMARK                         _______ _______ _______ _____ _____    ______ ____
ROOT
ATOM      1  C   UNL     1       5.503   4.477  17.558  0.00  0.00    +0.000 A 
ATOM      2  C   UNL     1       6.100   5.045  18.685  0.00  0.00    +0.000 A 
ATOM      3  C   UNL     1       6.888   6.201  18.560  0.00  0.00    +0.000 A 
ATOM      4  C   UNL     1       7.155   6.761  17.305  0.00  0.00    +0.000 A 
ATOM      5  C   UNL     1       6.727   6.092  16.168  0.00  0.00    +0.000 A 
ATOM      6  C   UNL     1       5.886   4.980  16.298  0.00  0.00    +0.000 A 
ENDROOT
BRANCH   1   7
ATOM      7  C   UNL     1       4.431   3.403  17.575  0.00  0.00    +0.000 C 
BRANCH   7   8
ATOM      8  S   UNL     1       2.665   3.829  17.725  0.00  0.00    +0.000 S 
BRANCH   8  12
ATOM      9  C   UNL     1       2.107   8.985  17.845  0.00  0.00    +0.000 C 
ATOM     10  C   UNL     1       2.193   7.749  18.701  0.00  0.00    +0.000 A 
ATOM     11  C   UNL     1       2.560   6.533  18.078  0.00  0.00    +0.000 A 
ATOM     12  C   UNL     1       2.511   5.296  18.748  0.00  0.00    +0.000 A 
ATOM     13  C   UNL     1       2.170   5.310  20.094  0.00  0.00    +0.000 A 
ATOM     14  C   UNL     1       1.811   6.512  20.733  0.00  0.00    +0.000 A 
ATOM     15  C   UNL     1       1.802   7.735  20.048  0.00  0.00    +0.000 A 
BRANCH  15  16
ATOM     16  O   UNL     1       1.400   8.930  20.606  0.00  0.00    +0.000 OA
BRANCH  16  17
ATOM     17  C   UNL     1       0.682   8.826  21.840  0.00  0.00    +0.000 C 
BRANCH  17  18
ATOM     18  C   UNL     1      -0.048  10.104  22.203  0.00  0.00    +0.000 C 
ATOM     19  O   UNL     1      -0.189  10.502  23.360  0.00  0.00    +0.000 OA
BRANCH  18  20
ATOM     20  O   UNL     1      -0.566  10.761  21.139  0.00  0.00    +0.000 OA
ATOM     21  H   UNL     1      -1.396  11.214  21.402  0.00  0.00    +0.000 HD
ENDBRANCH  18  20
ENDBRANCH  17  18
ENDBRANCH  16  17
ENDBRANCH  15  16
ENDBRANCH   8  12
ENDBRANCH   7   8
ENDBRANCH   1   7
BRANCH   4  22
ATOM     22  O   UNL     1       7.658   8.034  17.294  0.00  0.00    +0.000 OA
BRANCH  22  23
ATOM     23  C   UNL     1       8.463   8.464  18.396  0.00  0.00    +0.000 C 
BRANCH  23  24
ATOM     24  C   UNL     1       8.836   9.931  18.514  0.00  0.00    +0.000 A 
ATOM     25  C   UNL     1       8.496  10.908  17.570  0.00  0.00    +0.000 A 
ATOM     26  C   UNL     1       8.767  12.269  17.813  0.00  0.00    +0.000 A 
ATOM     27  C   UNL     1       9.370  12.681  19.014  0.00  0.00    +0.000 A 
ATOM     28  C   UNL     1       9.727  11.700  19.945  0.00  0.00    +0.000 A 
ATOM     29  C   UNL     1       9.465  10.351  19.704  0.00  0.00    +0.000 A 
BRANCH  27  30
ATOM     30  C   UNL     1       9.604  14.137  19.340  0.00  0.00    +0.000 C 
ATOM     31  F   UNL     1       9.333  14.984  18.311  0.00  0.00    +0.000 F 
ATOM     32  F   UNL     1       8.837  14.561  20.384  0.00  0.00    +0.000 F 
ATOM     33  F   UNL     1      10.894  14.391  19.703  0.00  0.00    +0.000 F 
ENDBRANCH  27  30
ENDBRANCH  23  24
ENDBRANCH  22  23
ENDBRANCH   4  22
TORSDOF 11
ENDMDL
MODEL 2
REMARK VINA RESULT:      -7.7      1.464      2.402
REMARK  Name = 
REMARK  12 active torsions:
REMARK  status: ('A' for Active; 'I' for Inactive)
REMARK    1  A    between atoms: C_1  and  C_2
REMARK    2  A    between atoms: C_4  and  S_5
REMARK    3  A    between atoms: S_5  and  C_6
REMARK    4  A    between atoms: C_6  and  C_7
REMARK    5  A    between atoms: C_10  and  O_11
REMARK    6  A    between atoms: O_11  and  C_12
REMARK    7  A    between atoms: C_12  and  C_13
REMARK    8  A    between atoms: C_16  and  C_17
REMARK    9  A    between atoms: C_27  and  O_28
REMARK   10  A    between atoms: O_28  and  C_29
REMARK   11  A    between atoms: C_29  and  C_30
REMARK   12  A    between atoms: C_30  and  O_32
REMARK                            x       y       z     vdW  Elec       q    Type
REMARK                         _______ _______ _______ _____ _____    ______ ____
ROOT
ATOM      1  C   UNL     1       5.425   5.220  18.240  0.00  0.00    +0.000 A 
ATOM      2  C   UNL     1       6.517   5.018  19.085  0.00  0.00    +0.000 A 
ATOM      3  C   UNL     1       7.583   5.934  19.095  0.00  0.00    +0.000 A 
ATOM      4  C   UNL     1       7.611   7.018  18.209  0.00  0.00    +0.000 A 
ATOM      5  C   UNL     1       6.626   7.114  17.237  0.00  0.00    +0.000 A 
ATOM      6  C   UNL     1       5.533   6.241  17.274  0.00  0.00    +0.000 A 
ENDROOT
BRANCH   1   7
ATOM      7  C   UNL     1       4.106   4.472  18.310  0.00  0.00    +0.000 C 
BRANCH   7   8
ATOM      8  S   UNL     1       2.923   4.762  19.666  0.00  0.00    +0.000 S 
BRANCH   8  12
ATOM      9  C   UNL     1       0.915   8.913  22.043  0.00  0.00    +0.000 C 
ATOM     10  C   UNL     1       1.325   8.354  20.706  0.00  0.00    +0.000 A 
ATOM     11  C   UNL     1       1.670   6.984  20.635  0.00  0.00    +0.000 A 
ATOM     12  C   UNL     1       2.220   6.403  19.477  0.00  0.00    +0.000 A 
ATOM     13  C   UNL     1       2.336   7.206  18.350  0.00  0.00    +0.000 A 
ATOM     14  C   UNL     1       1.989   8.569  18.400  0.00  0.00    +0.000 A 
ATOM     15  C   UNL     1       1.497   9.161  19.572  0.00  0.00    +0.000 A 
BRANCH  15  16
ATOM     16  O   UNL     1       1.200  10.502  19.694  0.00  0.00    +0.000 OA
BRANCH  16  17
ATOM     17  C   UNL     1       0.380  11.052  18.658  0.00  0.00    +0.000 C 
BRANCH  17  18
ATOM     18  C   UNL     1      -0.841  11.770  19.197  0.00  0.00    +0.000 C 
ATOM     19  O   UNL     1      -1.417  12.679  18.596  0.00  0.00    +0.000 OA
BRANCH  18  20
ATOM     20  O   UNL     1      -1.232  11.346  20.421  0.00  0.00    +0.000 OA
ATOM     21  H   UNL     1      -0.538  11.560  21.083  0.00  0.00    +0.000 HD
ENDBRANCH  18  20
ENDBRANCH  17  18
ENDBRANCH  16  17
ENDBRANCH  15  16
ENDBRANCH   8  12
ENDBRANCH   7   8
ENDBRANCH   1   7
BRANCH   4  22
ATOM     22  O   UNL     1       8.505   8.016  18.487  0.00  0.00    +0.000 OA
BRANCH  22  23
ATOM     23  C   UNL     1       8.297   9.306  17.904  0.00  0.00    +0.000 C 
BRANCH  23  24
ATOM     24  C   UNL     1       8.907  10.527  18.569  0.00  0.00    +0.000 A 
ATOM     25  C   UNL     1       9.577  10.502  19.800  0.00  0.00    +0.000 A 
ATOM     26  C   UNL     1      10.226  11.651  20.289  0.00  0.00    +0.000 A 
ATOM     27  C   UNL     1      10.231  12.847  19.551  0.00  0.00    +0.000 A 
ATOM     28  C   UNL     1       9.543  12.875  18.333  0.00  0.00    +0.000 A 
ATOM     29  C   UNL     1       8.895  11.738  17.848  0.00  0.00    +0.000 A 
BRANCH  27  30
ATOM     30  C   UNL     1      10.981  14.075  20.009  0.00  0.00    +0.000 C 
ATOM     31  F   UNL     1      10.730  14.425  21.299  0.00  0.00    +0.000 F 
ATOM     32  F   UNL     1      12.332  13.917  19.920  0.00  0.00    +0.000 F 
ATOM     33  F   UNL     1      10.689  15.177  19.260  0.00  0.00    +0.000 F 
ENDBRANCH  27  30
ENDBRANCH  23  24
ENDBRANCH  22  23
ENDBRANCH   4  22
TORSDOF 11
ENDMDL
MODEL 3
REMARK VINA RESULT:      -7.6      5.861      8.577
REMARK  Name = 
REMARK  12 active torsions:
REMARK  status: ('A' for Active; 'I' for Inactive)
REMARK    1  A    between atoms: C_1  and  C_2
REMARK    2  A    between atoms: C_4  and  S_5
REMARK    3  A    between atoms: S_5  and  C_6
REMARK    4  A    between atoms: C_6  and  C_7
REMARK    5  A    between atoms: C_10  and  O_11
REMARK    6  A    between atoms: O_11  and  C_12
REMARK    7  A    between atoms: C_12  and  C_13
REMARK    8  A    between atoms: C_16  and  C_17
REMARK    9  A    between atoms: C_27  and  O_28
REMARK   10  A    between atoms: O_28  and  C_29
REMARK   11  A    between atoms: C_29  and  C_30
REMARK   12  A    between atoms: C_30  and  O_32
REMARK                            x       y       z     vdW  Elec       q    Type
REMARK                         _______ _______ _______ _____ _____    ______ ____
ROOT
ATOM      1  C   UNL     1       1.233  10.060  19.750  0.00  0.00    +0.000 A 
ATOM      2  C   UNL     1       1.810   9.302  18.730  0.00  0.00    +0.000 A 
ATOM      3  C   UNL     1       2.023   7.924  18.907  0.00  0.00    +0.000 A 
ATOM      4  C   UNL     1       1.738   7.300  20.127  0.00  0.00    +0.000 A 
ATOM      5  C   UNL     1       1.350   8.082  21.204  0.00  0.00    +0.000 A 
ATOM      6  C   UNL     1       1.073   9.440  21.007  0.00  0.00    +0.000 A 
ENDROOT
BRANCH   1   7
ATOM      7  C   UNL     1       0.710  11.477  19.608  0.00  0.00    +0.000 C 
BRANCH   7   8
ATOM      8  S   UNL     1      -1.057  11.862  19.839  0.00  0.00    +0.000 S 
BRANCH   8  12
ATOM      9  C   UNL     1      -5.301  12.123  16.867  0.00  0.00    +0.000 C 
ATOM     10  C   UNL     1      -4.014  11.373  17.090  0.00  0.00    +0.000 A 
ATOM     11  C   UNL     1      -3.275  11.654  18.263  0.00  0.00    +0.000 A 
ATOM     12  C   UNL     1      -1.987  11.134  18.488  0.00  0.00    +0.000 A 
ATOM     13  C   UNL     1      -1.483  10.245  17.547  0.00  0.00    +0.000 A 
ATOM     14  C   UNL     1      -2.208   9.947  16.378  0.00  0.00    +0.000 A 
ATOM     15  C   UNL     1      -3.466  10.513  16.128  0.00  0.00    +0.000 A 
BRANCH  15  16
ATOM     16  O   UNL     1      -4.191  10.305  14.973  0.00  0.00    +0.000 OA
BRANCH  16  17
ATOM     17  C   UNL     1      -3.570   9.463  13.996  0.00  0.00    +0.000 C 
BRANCH  17  18
ATOM     18  C   UNL     1      -4.041   9.756  12.586  0.00  0.00    +0.000 C 
ATOM     19  O   UNL     1      -5.211  10.019  12.300  0.00  0.00    +0.000 OA
BRANCH  18  20
ATOM     20  O   UNL     1      -3.065   9.673  11.652  0.00  0.00    +0.000 OA
ATOM     21  H   UNL     1      -3.467   9.578  10.761  0.00  0.00    +0.000 HD
ENDBRANCH  18  20
ENDBRANCH  17  18
ENDBRANCH  16  17
ENDBRANCH  15  16
ENDBRANCH   8  12
ENDBRANCH   7   8
ENDBRANCH   1   7
BRANCH   4  22
ATOM     22  O   UNL     1       1.680   5.933  20.120  0.00  0.00    +0.000 OA
BRANCH  22  23
ATOM     23  C   UNL     1       2.886   5.193  20.335  0.00  0.00    +0.000 C 
BRANCH  23  24
ATOM     24  C   UNL     1       3.759   4.836  19.145  0.00  0.00    +0.000 A 
ATOM     25  C   UNL     1       3.295   4.185  17.995  0.00  0.00    +0.000 A 
ATOM     26  C   UNL     1       4.137   4.003  16.882  0.00  0.00    +0.000 A 
ATOM     27  C   UNL     1       5.459   4.481  16.891  0.00  0.00    +0.000 A 
ATOM     28  C   UNL     1       5.926   5.111  18.049  0.00  0.00    +0.000 A 
ATOM     29  C   UNL     1       5.094   5.289  19.155  0.00  0.00    +0.000 A 
BRANCH  27  30
ATOM     30  C   UNL     1       6.365   4.371  15.687  0.00  0.00    +0.000 C 
ATOM     31  F   UNL     1       7.691   4.414  15.990  0.00  0.00    +0.000 F 
ATOM     32  F   UNL     1       6.175   3.208  15.003  0.00  0.00    +0.000 F 
ATOM     33  F   UNL     1       6.156   5.370  14.783  0.00  0.00    +0.000 F 
ENDBRANCH  27  30
ENDBRANCH  23  24
ENDBRANCH  22  23
ENDBRANCH   4  22
TORSDOF 11
ENDMDL
MODEL 4
REMARK VINA RESULT:      -7.4      4.296      6.598
REMARK  Name = 
REMARK  12 active torsions:
REMARK  status: ('A' for Active; 'I' for Inactive)
REMARK    1  A    between atoms: C_1  and  C_2
REMARK    2  A    between atoms: C_4  and  S_5
REMARK    3  A    between atoms: S_5  and  C_6
REMARK    4  A    between atoms: C_6  and  C_7
REMARK    5  A    between atoms: C_10  and  O_11
REMARK    6  A    between atoms: O_11  and  C_12
REMARK    7  A    between atoms: C_12  and  C_13
REMARK    8  A    between atoms: C_16  and  C_17
REMARK    9  A    between atoms: C_27  and  O_28
REMARK   10  A    between atoms: O_28  and  C_29
REMARK   11  A    between atoms: C_29  and  C_30
REMARK   12  A    between atoms: C_30  and  O_32
REMARK                            x       y       z     vdW  Elec       q    Type
REMARK                         _______ _______ _______ _____ _____    ______ ____
ROOT
ATOM      1  C   UNL     1       1.399   5.379  20.333  0.00  0.00    +0.000 A 
ATOM      2  C   UNL     1       1.440   4.117  20.927  0.00  0.00    +0.000 A 
ATOM      3  C   UNL     1       1.669   2.974  20.143  0.00  0.00    +0.000 A 
ATOM      4  C   UNL     1       1.782   3.064  18.750  0.00  0.00    +0.000 A 
ATOM      5  C   UNL     1       1.548   4.286  18.137  0.00  0.00    +0.000 A 
ATOM      6  C   UNL     1       1.388   5.433  18.924  0.00  0.00    +0.000 A 
ENDROOT
BRANCH   1   7
ATOM      7  C   UNL     1       1.422   6.703  21.074  0.00  0.00    +0.000 C 
BRANCH   7   8
ATOM      8  S   UNL     1       1.651   8.280  20.188  0.00  0.00    +0.000 S 
BRANCH   8  12
ATOM      9  C   UNL     1      -1.304  12.505  19.605  0.00  0.00    +0.000 C 
ATOM     10  C   UNL     1      -0.770  11.521  20.613  0.00  0.00    +0.000 A 
ATOM     11  C   UNL     1       0.220  10.605  20.188  0.00  0.00    +0.000 A 
ATOM     12  C   UNL     1       0.666   9.544  20.999  0.00  0.00    +0.000 A 
ATOM     13  C   UNL     1       0.162   9.470  22.290  0.00  0.00    +0.000 A 
ATOM     14  C   UNL     1      -0.817  10.379  22.734  0.00  0.00    +0.000 A 
ATOM     15  C   UNL     1      -1.303  11.399  21.905  0.00  0.00    +0.000 A 
BRANCH  15  16
ATOM     16  O   UNL     1      -2.304  12.277  22.265  0.00  0.00    +0.000 OA
BRANCH  16  17
ATOM     17  C   UNL     1      -2.584  12.355  23.667  0.00  0.00    +0.000 C 
BRANCH  17  18
ATOM     18  C   UNL     1      -4.066  12.465  23.963  0.00  0.00    +0.000 C 
ATOM     19  O   UNL     1      -4.939  12.430  23.094  0.00  0.00    +0.000 OA
BRANCH  18  20
ATOM     20  O   UNL     1      -4.352  12.638  25.275  0.00  0.00    +0.000 OA
ATOM     21  H   UNL     1      -3.520  12.752  25.783  0.00  0.00    +0.000 HD
ENDBRANCH  18  20
ENDBRANCH  17  18
ENDBRANCH  16  17
ENDBRANCH  15  16
ENDBRANCH   8  12
ENDBRANCH   7   8
ENDBRANCH   1   7
BRANCH   4  22
ATOM     22  O   UNL     1       2.305   1.977  18.104  0.00  0.00    +0.000 OA
BRANCH  22  23
ATOM     23  C   UNL     1       3.708   1.953  17.824  0.00  0.00    +0.000 C 
BRANCH  23  24
ATOM     24  C   UNL     1       4.493   3.252  17.862  0.00  0.00    +0.000 A 
ATOM     25  C   UNL     1       5.018   3.822  19.029  0.00  0.00    +0.000 A 
ATOM     26  C   UNL     1       5.843   4.961  18.966  0.00  0.00    +0.000 A 
ATOM     27  C   UNL     1       6.173   5.545  17.732  0.00  0.00    +0.000 A 
ATOM     28  C   UNL     1       5.630   4.987  16.569  0.00  0.00    +0.000 A 
ATOM     29  C   UNL     1       4.808   3.862  16.630  0.00  0.00    +0.000 A 
BRANCH  27  30
ATOM     30  C   UNL     1       7.117   6.720  17.621  0.00  0.00    +0.000 C 
ATOM     31  F   UNL     1       7.981   6.832  18.666  0.00  0.00    +0.000 F 
ATOM     32  F   UNL     1       7.890   6.656  16.501  0.00  0.00    +0.000 F 
ATOM     33  F   UNL     1       6.461   7.913  17.550  0.00  0.00    +0.000 F 
ENDBRANCH  27  30
ENDBRANCH  23  24
ENDBRANCH  22  23
ENDBRANCH   4  22
TORSDOF 11
ENDMDL
MODEL 5
REMARK VINA RESULT:      -7.4      6.469      9.862
REMARK  Name = 
REMARK  12 active torsions:
REMARK  status: ('A' for Active; 'I' for Inactive)
REMARK    1  A    between atoms: C_1  and  C_2
REMARK    2  A    between atoms: C_4  and  S_5
REMARK    3  A    between atoms: S_5  and  C_6
REMARK    4  A    between atoms: C_6  and  C_7
REMARK    5  A    between atoms: C_10  and  O_11
REMARK    6  A    between atoms: O_11  and  C_12
REMARK    7  A    between atoms: C_12  and  C_13
REMARK    8  A    between atoms: C_16  and  C_17
REMARK    9  A    between atoms: C_27  and  O_28
REMARK   10  A    between atoms: O_28  and  C_29
REMARK   11  A    between atoms: C_29  and  C_30
REMARK   12  A    between atoms: C_30  and  O_32
REMARK                            x       y       z     vdW  Elec       q    Type
REMARK                         _______ _______ _______ _____ _____    ______ ____
ROOT
ATOM      1  C   UNL     1      -0.966  11.445  22.290  0.00  0.00    +0.000 A 
ATOM      2  C   UNL     1       0.057  11.456  21.340  0.00  0.00    +0.000 A 
ATOM      3  C   UNL     1       0.962  10.384  21.262  0.00  0.00    +0.000 A 
ATOM      4  C   UNL     1       0.908   9.326  22.177  0.00  0.00    +0.000 A 
ATOM      5  C   UNL     1       0.020   9.404  23.240  0.00  0.00    +0.000 A 
ATOM      6  C   UNL     1      -0.923  10.438  23.276  0.00  0.00    +0.000 A 
ENDROOT
BRANCH   1   7
ATOM      7  C   UNL     1      -2.153  12.389  22.319  0.00  0.00    +0.000 C 
BRANCH   7   8
ATOM      8  S   UNL     1      -2.559  13.445  20.889  0.00  0.00    +0.000 S 
BRANCH   8  12
ATOM      9  C   UNL     1      -6.150  11.562  17.652  0.00  0.00    +0.000 C 
ATOM     10  C   UNL     1      -4.674  11.591  17.951  0.00  0.00    +0.000 A 
ATOM     11  C   UNL     1      -4.253  12.169  19.172  0.00  0.00    +0.000 A 
ATOM     12  C   UNL     1      -2.897  12.394  19.474  0.00  0.00    +0.000 A 
ATOM     13  C   UNL     1      -1.955  11.942  18.560  0.00  0.00    +0.000 A 
ATOM     14  C   UNL     1      -2.354  11.356  17.345  0.00  0.00    +0.000 A 
ATOM     15  C   UNL     1      -3.707  11.187  17.018  0.00  0.00    +0.000 A 
BRANCH  15  16
ATOM     16  O   UNL     1      -4.155  10.678  15.818  0.00  0.00    +0.000 OA
BRANCH  16  17
ATOM     17  C   UNL     1      -3.193  10.655  14.758  0.00  0.00    +0.000 C 
BRANCH  17  18
ATOM     18  C   UNL     1      -3.633   9.801  13.586  0.00  0.00    +0.000 C 
ATOM     19  O   UNL     1      -2.851   9.308  12.771  0.00  0.00    +0.000 OA
BRANCH  18  20
ATOM     20  O   UNL     1      -4.974   9.650  13.489  0.00  0.00    +0.000 OA
ATOM     21  H   UNL     1      -5.398   9.907  14.337  0.00  0.00    +0.000 HD
ENDBRANCH  18  20
ENDBRANCH  17  18
ENDBRANCH  16  17
ENDBRANCH  15  16
ENDBRANCH   8  12
ENDBRANCH   7   8
ENDBRANCH   1   7
BRANCH   4  22
ATOM     22  O   UNL     1       1.606   8.195  21.851  0.00  0.00    +0.000 OA
BRANCH  22  23
ATOM     23  C   UNL     1       1.423   7.627  20.550  0.00  0.00    +0.000 C 
BRANCH  23  24
ATOM     24  C   UNL     1       2.034   6.271  20.241  0.00  0.00    +0.000 A 
ATOM     25  C   UNL     1       1.488   5.049  20.654  0.00  0.00    +0.000 A 
ATOM     26  C   UNL     1       2.043   3.830  20.219  0.00  0.00    +0.000 A 
ATOM     27  C   UNL     1       3.147   3.809  19.350  0.00  0.00    +0.000 A 
ATOM     28  C   UNL     1       3.703   5.031  18.958  0.00  0.00    +0.000 A 
ATOM     29  C   UNL     1       3.158   6.240  19.391  0.00  0.00    +0.000 A 
BRANCH  27  30
ATOM     30  C   UNL     1       3.719   2.522  18.804  0.00  0.00    +0.000 C 
ATOM     31  F   UNL     1       4.453   2.683  17.669  0.00  0.00    +0.000 F 
ATOM     32  F   UNL     1       4.543   1.903  19.696  0.00  0.00    +0.000 F 
ATOM     33  F   UNL     1       2.754   1.609  18.497  0.00  0.00    +0.000 F 
ENDBRANCH  27  30
ENDBRANCH  23  24
ENDBRANCH  22  23
ENDBRANCH   4  22
TORSDOF 11
ENDMDL
MODEL 6
REMARK VINA RESULT:      -7.4      5.657      8.803
REMARK  Name = 
REMARK  12 active torsions:
REMARK  status: ('A' for Active; 'I' for Inactive)
REMARK    1  A    between atoms: C_1  and  C_2
REMARK    2  A    between atoms: C_4  and  S_5
REMARK    3  A    between atoms: S_5  and  C_6
REMARK    4  A    between atoms: C_6  and  C_7
REMARK    5  A    between atoms: C_10  and  O_11
REMARK    6  A    between atoms: O_11  and  C_12
REMARK    7  A    between atoms: C_12  and  C_13
REMARK    8  A    between atoms: C_16  and  C_17
REMARK    9  A    between atoms: C_27  and  O_28
REMARK   10  A    between atoms: O_28  and  C_29
REMARK   11  A    between atoms: C_29  and  C_30
REMARK   12  A    between atoms: C_30  and  O_32
REMARK                            x       y       z     vdW  Elec       q    Type
REMARK                         _______ _______ _______ _____ _____    ______ ____
ROOT
ATOM      1  C   UNL     1      -0.329  10.091  21.721  0.00  0.00    +0.000 A 
ATOM      2  C   UNL     1      -0.166   8.753  22.085  0.00  0.00    +0.000 A 
ATOM      3  C   UNL     1       0.747   7.939  21.394  0.00  0.00    +0.000 A 
ATOM      4  C   UNL     1       1.449   8.422  20.283  0.00  0.00    +0.000 A 
ATOM      5  C   UNL     1       1.146   9.686  19.798  0.00  0.00    +0.000 A 
ATOM      6  C   UNL     1       0.289  10.518  20.528  0.00  0.00    +0.000 A 
ENDROOT
BRANCH   1   7
ATOM      7  C   UNL     1      -1.069  11.141  22.529  0.00  0.00    +0.000 C 
BRANCH   7   8
ATOM      8  S   UNL     1      -1.211  12.861  21.942  0.00  0.00    +0.000 S 
BRANCH   8  12
ATOM      9  C   UNL     1      -3.948  11.227  17.849  0.00  0.00    +0.000 C 
ATOM     10  C   UNL     1      -3.974  12.141  19.046  0.00  0.00    +0.000 A 
ATOM     11  C   UNL     1      -2.772  12.325  19.769  0.00  0.00    +0.000 A 
ATOM     12  C   UNL     1      -2.724  13.022  20.991  0.00  0.00    +0.000 A 
ATOM     13  C   UNL     1      -3.899  13.616  21.435  0.00  0.00    +0.000 A 
ATOM     14  C   UNL     1      -5.102  13.451  20.724  0.00  0.00    +0.000 A 
ATOM     15  C   UNL     1      -5.160  12.706  19.538  0.00  0.00    +0.000 A 
BRANCH  15  16
ATOM     16  O   UNL     1      -6.321  12.460  18.836  0.00  0.00    +0.000 OA
BRANCH  16  17
ATOM     17  C   UNL     1      -7.436  12.020  19.618  0.00  0.00    +0.000 C 
BRANCH  17  18
ATOM     18  C   UNL     1      -7.347  10.555  19.993  0.00  0.00    +0.000 C 
ATOM     19  O   UNL     1      -7.298  10.152  21.157  0.00  0.00    +0.000 OA
BRANCH  18  20
ATOM     20  O   UNL     1      -7.292   9.718  18.931  0.00  0.00    +0.000 OA
ATOM     21  H   UNL     1      -6.938   8.847  19.213  0.00  0.00    +0.000 HD
ENDBRANCH  18  20
ENDBRANCH  17  18
ENDBRANCH  16  17
ENDBRANCH  15  16
ENDBRANCH   8  12
ENDBRANCH   7   8
ENDBRANCH   1   7
BRANCH   4  22
ATOM     22  O   UNL     1       2.523   7.685  19.866  0.00  0.00    +0.000 OA
BRANCH  22  23
ATOM     23  C   UNL     1       2.286   6.434  19.213  0.00  0.00    +0.000 C 
BRANCH  23  24
ATOM     24  C   UNL     1       3.206   6.000  18.086  0.00  0.00    +0.000 A 
ATOM     25  C   UNL     1       4.046   6.869  17.376  0.00  0.00    +0.000 A 
ATOM     26  C   UNL     1       4.963   6.370  16.431  0.00  0.00    +0.000 A 
ATOM     27  C   UNL     1       5.069   4.990  16.187  0.00  0.00    +0.000 A 
ATOM     28  C   UNL     1       4.214   4.128  16.881  0.00  0.00    +0.000 A 
ATOM     29  C   UNL     1       3.301   4.620  17.814  0.00  0.00    +0.000 A 
BRANCH  27  30
ATOM     30  C   UNL     1       6.094   4.416  15.238  0.00  0.00    +0.000 C 
ATOM     31  F   UNL     1       5.877   4.735  13.933  0.00  0.00    +0.000 F 
ATOM     32  F   UNL     1       7.357   4.843  15.522  0.00  0.00    +0.000 F 
ATOM     33  F   UNL     1       6.145   3.054  15.285  0.00  0.00    +0.000 F 
ENDBRANCH  27  30
ENDBRANCH  23  24
ENDBRANCH  22  23
ENDBRANCH   4  22
TORSDOF 11
ENDMDL
MODEL 7
REMARK VINA RESULT:      -7.3      5.766      7.548
REMARK  Name = 
REMARK  12 active torsions:
REMARK  status: ('A' for Active; 'I' for Inactive)
REMARK    1  A    between atoms: C_1  and  C_2
REMARK    2  A    between atoms: C_4  and  S_5
REMARK    3  A    between atoms: S_5  and  C_6
REMARK    4  A    between atoms: C_6  and  C_7
REMARK    5  A    between atoms: C_10  and  O_11
REMARK    6  A    between atoms: O_11  and  C_12
REMARK    7  A    between atoms: C_12  and  C_13
REMARK    8  A    between atoms: C_16  and  C_17
REMARK    9  A    between atoms: C_27  and  O_28
REMARK   10  A    between atoms: O_28  and  C_29
REMARK   11  A    between atoms: C_29  and  C_30
REMARK   12  A    between atoms: C_30  and  O_32
REMARK                            x       y       z     vdW  Elec       q    Type
REMARK                         _______ _______ _______ _____ _____    ______ ____
ROOT
ATOM      1  C   UNL     1       3.797   6.063  18.563  0.00  0.00    +0.000 A 
ATOM      2  C   UNL     1       4.003   6.950  17.505  0.00  0.00    +0.000 A 
ATOM      3  C   UNL     1       5.261   7.032  16.885  0.00  0.00    +0.000 A 
ATOM      4  C   UNL     1       6.350   6.292  17.361  0.00  0.00    +0.000 A 
ATOM      5  C   UNL     1       6.202   5.559  18.529  0.00  0.00    +0.000 A 
ATOM      6  C   UNL     1       4.932   5.425  19.104  0.00  0.00    +0.000 A 
ENDROOT
BRANCH   1   7
ATOM      7  C   UNL     1       2.449   5.682  19.145  0.00  0.00    +0.000 C 
BRANCH   7   8
ATOM      8  S   UNL     1       1.892   6.335  20.753  0.00  0.00    +0.000 S 
BRANCH   8  12
ATOM      9  C   UNL     1      -0.630  10.337  22.884  0.00  0.00    +0.000 C 
ATOM     10  C   UNL     1       0.008   9.835  21.615  0.00  0.00    +0.000 A 
ATOM     11  C   UNL     1       0.415   8.481  21.566  0.00  0.00    +0.000 A 
ATOM     12  C   UNL     1       1.164   7.955  20.496  0.00  0.00    +0.000 A 
ATOM     13  C   UNL     1       1.425   8.798  19.423  0.00  0.00    +0.000 A 
ATOM     14  C   UNL     1       1.020  10.145  19.451  0.00  0.00    +0.000 A 
ATOM     15  C   UNL     1       0.325  10.683  20.544  0.00  0.00    +0.000 A 
BRANCH  15  16
ATOM     16  O   UNL     1      -0.039  12.008  20.651  0.00  0.00    +0.000 OA
BRANCH  16  17
ATOM     17  C   UNL     1      -1.068  12.441  19.755  0.00  0.00    +0.000 C 
BRANCH  17  18
ATOM     18  C   UNL     1      -0.518  13.109  18.511  0.00  0.00    +0.000 C 
ATOM     19  O   UNL     1       0.423  13.905  18.525  0.00  0.00    +0.000 OA
BRANCH  18  20
ATOM     20  O   UNL     1      -1.173  12.778  17.374  0.00  0.00    +0.000 OA
ATOM     21  H   UNL     1      -0.706  12.040  16.925  0.00  0.00    +0.000 HD
ENDBRANCH  18  20
ENDBRANCH  17  18
ENDBRANCH  16  17
ENDBRANCH  15  16
ENDBRANCH   8  12
ENDBRANCH   7   8
ENDBRANCH   1   7
BRANCH   4  22
ATOM     22  O   UNL     1       7.434   6.191  16.533  0.00  0.00    +0.000 OA
BRANCH  22  23
ATOM     23  C   UNL     1       7.674   4.948  15.864  0.00  0.00    +0.000 C 
BRANCH  23  24
ATOM     24  C   UNL     1       6.861   4.601  14.630  0.00  0.00    +0.000 A 
ATOM     25  C   UNL     1       7.372   4.592  13.326  0.00  0.00    +0.000 A 
ATOM     26  C   UNL     1       6.589   4.135  12.249  0.00  0.00    +0.000 A 
ATOM     27  C   UNL     1       5.281   3.664  12.457  0.00  0.00    +0.000 A 
ATOM     28  C   UNL     1       4.766   3.695  13.757  0.00  0.00    +0.000 A 
ATOM     29  C   UNL     1       5.539   4.151  14.825  0.00  0.00    +0.000 A 
BRANCH  27  30
ATOM     30  C   UNL     1       4.441   3.096  11.337  0.00  0.00    +0.000 C 
ATOM     31  F   UNL     1       3.149   2.852  11.687  0.00  0.00    +0.000 F 
ATOM     32  F   UNL     1       4.386   3.929  10.260  0.00  0.00    +0.000 F 
ATOM     33  F   UNL     1       4.929   1.913  10.865  0.00  0.00    +0.000 F 
ENDBRANCH  27  30
ENDBRANCH  23  24
ENDBRANCH  22  23
ENDBRANCH   4  22
TORSDOF 11
ENDMDL
MODEL 8
REMARK VINA RESULT:      -7.3      5.848      7.659
REMARK  Name = 
REMARK  12 active torsions:
REMARK  status: ('A' for Active; 'I' for Inactive)
REMARK    1  A    between atoms: C_1  and  C_2
REMARK    2  A    between atoms: C_4  and  S_5
REMARK    3  A    between atoms: S_5  and  C_6
REMARK    4  A    between atoms: C_6  and  C_7
REMARK    5  A    between atoms: C_10  and  O_11
REMARK    6  A    between atoms: O_11  and  C_12
REMARK    7  A    between atoms: C_12  and  C_13
REMARK    8  A    between atoms: C_16  and  C_17
REMARK    9  A    between atoms: C_27  and  O_28
REMARK   10  A    between atoms: O_28  and  C_29
REMARK   11  A    between atoms: C_29  and  C_30
REMARK   12  A    between atoms: C_30  and  O_32
REMARK                            x       y       z     vdW  Elec       q    Type
REMARK                         _______ _______ _______ _____ _____    ______ ____
ROOT
ATOM      1  C   UNL     1       2.266   7.280  19.402  0.00  0.00    +0.000 A 
ATOM      2  C   UNL     1       2.259   6.030  20.024  0.00  0.00    +0.000 A 
ATOM      3  C   UNL     1       3.202   5.054  19.660  0.00  0.00    +0.000 A 
ATOM      4  C   UNL     1       4.112   5.281  18.620  0.00  0.00    +0.000 A 
ATOM      5  C   UNL     1       3.996   6.442  17.871  0.00  0.00    +0.000 A 
ATOM      6  C   UNL     1       3.102   7.440  18.278  0.00  0.00    +0.000 A 
ENDROOT
BRANCH   1   7
ATOM      7  C   UNL     1       1.493   8.500  19.866  0.00  0.00    +0.000 C 
BRANCH   7   8
ATOM      8  S   UNL     1       0.799   8.598  21.549  0.00  0.00    +0.000 S 
BRANCH   8  12
ATOM      9  C   UNL     1      -2.080  12.157  19.108  0.00  0.00    +0.000 C 
ATOM     10  C   UNL     1      -1.549  11.733  20.452  0.00  0.00    +0.000 A 
ATOM     11  C   UNL     1      -0.585  10.698  20.490  0.00  0.00    +0.000 A 
ATOM     12  C   UNL     1      -0.147  10.117  21.694  0.00  0.00    +0.000 A 
ATOM     13  C   UNL     1      -0.631  10.658  22.878  0.00  0.00    +0.000 A 
ATOM     14  C   UNL     1      -1.583  11.693  22.860  0.00  0.00    +0.000 A 
ATOM     15  C   UNL     1      -2.064  12.231  21.658  0.00  0.00    +0.000 A 
BRANCH  15  16
ATOM     16  O   UNL     1      -3.041  13.200  21.581  0.00  0.00    +0.000 OA
BRANCH  16  17
ATOM     17  C   UNL     1      -4.352  12.791  21.984  0.00  0.00    +0.000 C 
BRANCH  17  18
ATOM     18  C   UNL     1      -4.725  13.295  23.364  0.00  0.00    +0.000 C 
ATOM     19  O   UNL     1      -4.617  14.472  23.711  0.00  0.00    +0.000 OA
BRANCH  18  20
ATOM     20  O   UNL     1      -5.161  12.327  24.202  0.00  0.00    +0.000 OA
ATOM     21  H   UNL     1      -4.553  11.557  24.165  0.00  0.00    +0.000 HD
ENDBRANCH  18  20
ENDBRANCH  17  18
ENDBRANCH  16  17
ENDBRANCH  15  16
ENDBRANCH   8  12
ENDBRANCH   7   8
ENDBRANCH   1   7
BRANCH   4  22
ATOM     22  O   UNL     1       5.176   4.425  18.537  0.00  0.00    +0.000 OA
BRANCH  22  23
ATOM     23  C   UNL     1       6.334   4.839  17.804  0.00  0.00    +0.000 C 
BRANCH  23  24
ATOM     24  C   UNL     1       6.354   4.676  16.295  0.00  0.00    +0.000 A 
ATOM     25  C   UNL     1       7.255   5.330  15.444  0.00  0.00    +0.000 A 
ATOM     26  C   UNL     1       7.292   5.029  14.069  0.00  0.00    +0.000 A 
ATOM     27  C   UNL     1       6.439   4.057  13.519  0.00  0.00    +0.000 A 
ATOM     28  C   UNL     1       5.526   3.423  14.367  0.00  0.00    +0.000 A 
ATOM     29  C   UNL     1       5.483   3.722  15.729  0.00  0.00    +0.000 A 
BRANCH  27  30
ATOM     30  C   UNL     1       6.506   3.655  12.064  0.00  0.00    +0.000 C 
ATOM     31  F   UNL     1       7.011   2.409  11.860  0.00  0.00    +0.000 F 
ATOM     32  F   UNL     1       5.279   3.663  11.470  0.00  0.00    +0.000 F 
ATOM     33  F   UNL     1       7.281   4.498  11.323  0.00  0.00    +0.000 F 
ENDBRANCH  27  30
ENDBRANCH  23  24
ENDBRANCH  22  23
ENDBRANCH   4  22
TORSDOF 11
ENDMDL
MODEL 9
REMARK VINA RESULT:      -7.3      4.495      6.684
REMARK  Name = 
REMARK  12 active torsions:
REMARK  status: ('A' for Active; 'I' for Inactive)
REMARK    1  A    between atoms: C_1  and  C_2
REMARK    2  A    between atoms: C_4  and  S_5
REMARK    3  A    between atoms: S_5  and  C_6
REMARK    4  A    between atoms: C_6  and  C_7
REMARK    5  A    between atoms: C_10  and  O_11
REMARK    6  A    between atoms: O_11  and  C_12
REMARK    7  A    between atoms: C_12  and  C_13
REMARK    8  A    between atoms: C_16  and  C_17
REMARK    9  A    between atoms: C_27  and  O_28
REMARK   10  A    between atoms: O_28  and  C_29
REMARK   11  A    between atoms: C_29  and  C_30
REMARK   12  A    between atoms: C_30  and  O_32
REMARK                            x       y       z     vdW  Elec       q    Type
REMARK                         _______ _______ _______ _____ _____    ______ ____
ROOT
ATOM      1  C   UNL     1       1.865   6.377  19.439  0.00  0.00    +0.000 A 
ATOM      2  C   UNL     1       1.795   5.485  20.510  0.00  0.00    +0.000 A 
ATOM      3  C   UNL     1       1.806   4.099  20.277  0.00  0.00    +0.000 A 
ATOM      4  C   UNL     1       1.808   3.585  18.975  0.00  0.00    +0.000 A 
ATOM      5  C   UNL     1       1.680   4.463  17.909  0.00  0.00    +0.000 A 
ATOM      6  C   UNL     1       1.738   5.843  18.140  0.00  0.00    +0.000 A 
ENDROOT
BRANCH   1   7
ATOM      7  C   UNL     1       2.124   7.868  19.549  0.00  0.00    +0.000 C 
BRANCH   7   8
ATOM      8  S   UNL     1       1.893   8.978  18.121  0.00  0.00    +0.000 S 
BRANCH   8  12
ATOM      9  C   UNL     1      -3.132  10.055  17.409  0.00  0.00    +0.000 C 
ATOM     10  C   UNL     1      -1.880  10.497  18.120  0.00  0.00    +0.000 A 
ATOM     11  C   UNL     1      -0.659   9.877  17.764  0.00  0.00    +0.000 A 
ATOM     12  C   UNL     1       0.536  10.098  18.475  0.00  0.00    +0.000 A 
ATOM     13  C   UNL     1       0.505  11.030  19.504  0.00  0.00    +0.000 A 
ATOM     14  C   UNL     1      -0.698  11.664  19.865  0.00  0.00    +0.000 A 
ATOM     15  C   UNL     1      -1.900  11.398  19.194  0.00  0.00    +0.000 A 
BRANCH  15  16
ATOM     16  O   UNL     1      -3.118  11.942  19.546  0.00  0.00    +0.000 OA
BRANCH  16  17
ATOM     17  C   UNL     1      -3.059  13.116  20.363  0.00  0.00    +0.000 C 
BRANCH  17  18
ATOM     18  C   UNL     1      -4.431  13.649  20.723  0.00  0.00    +0.000 C 
ATOM     19  O   UNL     1      -5.437  13.458  20.037  0.00  0.00    +0.000 OA
BRANCH  18  20
ATOM     20  O   UNL     1      -4.453  14.387  21.856  0.00  0.00    +0.000 OA
ATOM     21  H   UNL     1      -4.978  15.204  21.709  0.00  0.00    +0.000 HD
ENDBRANCH  18  20
ENDBRANCH  17  18
ENDBRANCH  16  17
ENDBRANCH  15  16
ENDBRANCH   8  12
ENDBRANCH   7   8
ENDBRANCH   1   7
BRANCH   4  22
ATOM     22  O   UNL     1       2.127   2.262  18.836  0.00  0.00    +0.000 OA
BRANCH  22  23
ATOM     23  C   UNL     1       3.434   1.916  18.368  0.00  0.00    +0.000 C 
BRANCH  23  24
ATOM     24  C   UNL     1       4.433   3.022  18.075  0.00  0.00    +0.000 A 
ATOM     25  C   UNL     1       4.714   3.510  16.792  0.00  0.00    +0.000 A 
ATOM     26  C   UNL     1       5.558   4.623  16.615  0.00  0.00    +0.000 A 
ATOM     27  C   UNL     1       6.126   5.281  17.719  0.00  0.00    +0.000 A 
ATOM     28  C   UNL     1       5.860   4.779  18.997  0.00  0.00    +0.000 A 
ATOM     29  C   UNL     1       5.029   3.673  19.175  0.00  0.00    +0.000 A 
BRANCH  27  30
ATOM     30  C   UNL     1       6.972   6.524  17.569  0.00  0.00    +0.000 C 
ATOM     31  F   UNL     1       7.852   6.717  18.589  0.00  0.00    +0.000 F 
ATOM     32  F   UNL     1       7.718   6.506  16.429  0.00  0.00    +0.000 F 
ATOM     33  F   UNL     1       6.223   7.662  17.503  0.00  0.00    +0.000 F 
ENDBRANCH  27  30
ENDBRANCH  23  24
ENDBRANCH  22  23
ENDBRANCH   4  22
TORSDOF 11
ENDMDL
