MODEL 1
REMARK VINA RESULT:      -7.5      0.000      0.000
REMARK  Name = 
REMARK  13 active torsions:
REMARK  status: ('A' for Active; 'I' for Inactive)
REMARK    1  A    between atoms: C_1  and  N_2
REMARK    2  A    between atoms: C_9  and  N_10
REMARK    3  A    between atoms: N_10  and  C_11
REMARK    4  A    between atoms: C_11  and  C_12
REMARK    5  A    between atoms: C_12  and  C_13
REMARK    6  A    between atoms: C_13  and  N_14
REMARK    7  A    between atoms: C_25  and  O_26
REMARK    8  A    between atoms: O_26  and  C_27
REMARK    9  A    between atoms: C_27  and  C_28
REMARK   10  A    between atoms: C_28  and  N_29
REMARK   11  A    between atoms: N_29  and  C_30
REMARK   12  A    between atoms: N_29  and  C_31
REMARK   13  A    between atoms: N_29  and  C_32
REMARK                            x       y       z     vdW  Elec       q    Type
REMARK                         _______ _______ _______ _____ _____    ______ ____
ROOT
ATOM      1  C   UNL     1      -0.324   9.420  22.848  0.00  0.00    +0.000 C 
ATOM      2  N   UNL     1      -0.603  10.466  21.851  0.00  0.00    +0.000 N 
ATOM      3  C   UNL     1      -1.404  11.556  22.108  0.00  0.00    +0.000 A 
ATOM      4  C   UNL     1      -2.058  11.735  23.344  0.00  0.00    +0.000 A 
ATOM      5  C   UNL     1      -2.884  12.828  23.616  0.00  0.00    +0.000 A 
ATOM      6  C   UNL     1      -3.083  13.783  22.641  0.00  0.00    +0.000 A 
ATOM      7  C   UNL     1      -2.448  13.643  21.406  0.00  0.00    +0.000 A 
ATOM      8  C   UNL     1      -1.596  12.558  21.105  0.00  0.00    +0.000 A 
ATOM      9  C   UNL     1      -0.966  12.463  19.830  0.00  0.00    +0.000 A 
ATOM     10  C   UNL     1      -0.212  11.306  19.639  0.00  0.00    +0.000 A 
ATOM     11  O   UNL     1       0.457  10.988  18.496  0.00  0.00    +0.000 OA
ATOM     12  C   UNL     1       1.103   9.816  18.706  0.00  0.00    +0.000 A 
ATOM     13  C   UNL     1       1.901   9.170  17.773  0.00  0.00    +0.000 A 
ATOM     14  C   UNL     1       2.512   7.980  18.183  0.00  0.00    +0.000 A 
ATOM     15  C   UNL     1       2.323   7.477  19.475  0.00  0.00    +0.000 A 
ATOM     16  C   UNL     1       1.479   8.141  20.379  0.00  0.00    +0.000 A 
ATOM     17  C   UNL     1       0.862   9.354  19.994  0.00  0.00    +0.000 A 
ATOM     18  C   UNL     1      -0.008  10.329  20.592  0.00  0.00    +0.000 A 
ENDROOT
BRANCH   9  19
ATOM     19  N   UNL     1      -1.144  13.433  18.864  0.00  0.00    +0.000 N 
ATOM     20  H   UNL     1      -2.023  13.468  18.356  0.00  0.00    +0.000 HD
BRANCH  19  21
ATOM     21  C   UNL     1      -0.122  14.383  18.436  0.00  0.00    +0.000 C 
BRANCH  21  22
ATOM     22  C   UNL     1      -0.468  15.769  19.000  0.00  0.00    +0.000 C 
BRANCH  22  23
ATOM     23  C   UNL     1       0.686  16.298  19.862  0.00  0.00    +0.000 C 
BRANCH  23  24
ATOM     24  N   UNL     1       1.280  17.570  19.441  0.00  0.00    +0.000 NA
ATOM     25  C   UNL     1       1.629  17.653  18.004  0.00  0.00    +0.000 C 
ATOM     26  C   UNL     1       2.832  16.788  17.588  0.00  0.00    +0.000 C 
ATOM     27  O   UNL     1       3.990  17.063  18.385  0.00  0.00    +0.000 OA
ATOM     28  C   UNL     1       3.711  16.932  19.781  0.00  0.00    +0.000 C 
ATOM     29  C   UNL     1       2.529  17.824  20.210  0.00  0.00    +0.000 C 
ENDBRANCH  23  24
ENDBRANCH  22  23
ENDBRANCH  21  22
ENDBRANCH  19  21
ENDBRANCH   9  19
BRANCH  15  30
ATOM     30  O   UNL     1       2.889   6.325  19.962  0.00  0.00    +0.000 OA
BRANCH  30  31
ATOM     31  C   UNL     1       1.983   5.464  20.656  0.00  0.00    +0.000 C 
BRANCH  31  32
ATOM     32  C   UNL     1       1.491   4.363  19.700  0.00  0.00    +0.000 C 
BRANCH  32  33
ATOM     33  N   UNL     1       2.044   2.957  20.032  0.00  0.00    +0.000 N 
ATOM     34  C   UNL     1       1.502   1.900  19.073  0.00  0.00    +0.000 C 
ATOM     35  C   UNL     1       3.570   2.942  20.009  0.00  0.00    +0.000 C 
ATOM     36  C   UNL     1       1.586   2.585  21.448  0.00  0.00    +0.000 C 
ENDBRANCH  32  33
ENDBRANCH  31  32
ENDBRANCH  30  31
ENDBRANCH  15  30
TORSDOF 9
ENDMDL
MODEL 2
REMARK VINA RESULT:      -7.4      0.830      1.119
REMARK  Name = 
REMARK  13 active torsions:
REMARK  status: ('A' for Active; 'I' for Inactive)
REMARK    1  A    between atoms: C_1  and  N_2
REMARK    2  A    between atoms: C_9  and  N_10
REMARK    3  A    between atoms: N_10  and  C_11
REMARK    4  A    between atoms: C_11  and  C_12
REMARK    5  A    between atoms: C_12  and  C_13
REMARK    6  A    between atoms: C_13  and  N_14
REMARK    7  A    between atoms: C_25  and  O_26
REMARK    8  A    between atoms: O_26  and  C_27
REMARK    9  A    between atoms: C_27  and  C_28
REMARK   10  A    between atoms: C_28  and  N_29
REMARK   11  A    between atoms: N_29  and  C_30
REMARK   12  A    between atoms: N_29  and  C_31
REMARK   13  A    between atoms: N_29  and  C_32
REMARK                            x       y       z     vdW  Elec       q    Type
REMARK                         _______ _______ _______ _____ _____    ______ ____
ROOT
ATOM      1  C   UNL     1      -0.115   9.265  22.836  0.00  0.00    +0.000 C 
ATOM      2  N   UNL     1      -0.452  10.272  21.818  0.00  0.00    +0.000 N 
ATOM      3  C   UNL     1      -1.281  11.342  22.063  0.00  0.00    +0.000 A 
ATOM      4  C   UNL     1      -1.911  11.537  23.310  0.00  0.00    +0.000 A 
ATOM      5  C   UNL     1      -2.765  12.611  23.570  0.00  0.00    +0.000 A 
ATOM      6  C   UNL     1      -3.019  13.530  22.574  0.00  0.00    +0.000 A 
ATOM      7  C   UNL     1      -2.410  13.373  21.327  0.00  0.00    +0.000 A 
ATOM      8  C   UNL     1      -1.531  12.307  21.037  0.00  0.00    +0.000 A 
ATOM      9  C   UNL     1      -0.929  12.195  19.750  0.00  0.00    +0.000 A 
ATOM     10  C   UNL     1      -0.142  11.058  19.573  0.00  0.00    +0.000 A 
ATOM     11  O   UNL     1       0.509  10.727  18.423  0.00  0.00    +0.000 OA
ATOM     12  C   UNL     1       1.197   9.583  18.650  0.00  0.00    +0.000 A 
ATOM     13  C   UNL     1       1.993   8.935  17.717  0.00  0.00    +0.000 A 
ATOM     14  C   UNL     1       2.653   7.779  18.145  0.00  0.00    +0.000 A 
ATOM     15  C   UNL     1       2.512   7.308  19.455  0.00  0.00    +0.000 A 
ATOM     16  C   UNL     1       1.669   7.972  20.361  0.00  0.00    +0.000 A 
ATOM     17  C   UNL     1       1.003   9.152  19.957  0.00  0.00    +0.000 A 
ATOM     18  C   UNL     1       0.117  10.116  20.548  0.00  0.00    +0.000 A 
ENDROOT
BRANCH   9  19
ATOM     19  N   UNL     1      -1.162  13.130  18.760  0.00  0.00    +0.000 N 
ATOM     20  H   UNL     1      -2.077  13.165  18.320  0.00  0.00    +0.000 HD
BRANCH  19  21
ATOM     21  C   UNL     1      -0.157  14.038  18.216  0.00  0.00    +0.000 C 
BRANCH  21  22
ATOM     22  C   UNL     1       0.043  15.200  19.200  0.00  0.00    +0.000 C 
BRANCH  22  23
ATOM     23  C   UNL     1       1.435  15.121  19.841  0.00  0.00    +0.000 C 
BRANCH  23  24
ATOM     24  N   UNL     1       2.310  16.280  19.637  0.00  0.00    +0.000 NA
ATOM     25  C   UNL     1       2.544  16.645  18.222  0.00  0.00    +0.000 C 
ATOM     26  C   UNL     1       3.431  15.657  17.445  0.00  0.00    +0.000 C 
ATOM     27  O   UNL     1       4.685  15.432  18.100  0.00  0.00    +0.000 OA
ATOM     28  C   UNL     1       4.502  15.015  19.456  0.00  0.00    +0.000 C 
ATOM     29  C   UNL     1       3.642  16.021  20.249  0.00  0.00    +0.000 C 
ENDBRANCH  23  24
ENDBRANCH  22  23
ENDBRANCH  21  22
ENDBRANCH  19  21
ENDBRANCH   9  19
BRANCH  15  30
ATOM     30  O   UNL     1       3.127   6.190  19.961  0.00  0.00    +0.000 OA
BRANCH  30  31
ATOM     31  C   UNL     1       3.109   5.055  19.091  0.00  0.00    +0.000 C 
BRANCH  31  32
ATOM     32  C   UNL     1       1.721   4.395  19.141  0.00  0.00    +0.000 C 
BRANCH  32  33
ATOM     33  N   UNL     1       1.742   2.936  19.653  0.00  0.00    +0.000 N 
ATOM     34  C   UNL     1       3.109   2.287  19.443  0.00  0.00    +0.000 C 
ATOM     35  C   UNL     1       1.356   2.860  21.127  0.00  0.00    +0.000 C 
ATOM     36  C   UNL     1       0.713   2.132  18.848  0.00  0.00    +0.000 C 
ENDBRANCH  32  33
ENDBRANCH  31  32
ENDBRANCH  30  31
ENDBRANCH  15  30
TORSDOF 9
ENDMDL
MODEL 3
REMARK VINA RESULT:      -7.4      1.422      1.860
REMARK  Name = 
REMARK  13 active torsions:
REMARK  status: ('A' for Active; 'I' for Inactive)
REMARK    1  A    between atoms: C_1  and  N_2
REMARK    2  A    between atoms: C_9  and  N_10
REMARK    3  A    between atoms: N_10  and  C_11
REMARK    4  A    between atoms: C_11  and  C_12
REMARK    5  A    between atoms: C_12  and  C_13
REMARK    6  A    between atoms: C_13  and  N_14
REMARK    7  A    between atoms: C_25  and  O_26
REMARK    8  A    between atoms: O_26  and  C_27
REMARK    9  A    between atoms: C_27  and  C_28
REMARK   10  A    between atoms: C_28  and  N_29
REMARK   11  A    between atoms: N_29  and  C_30
REMARK   12  A    between atoms: N_29  and  C_31
REMARK   13  A    between atoms: N_29  and  C_32
REMARK                            x       y       z     vdW  Elec       q    Type
REMARK                         _______ _______ _______ _____ _____    ______ ____
ROOT
ATOM      1  C   UNL     1      -0.436   9.511  22.924  0.00  0.00    +0.000 C 
ATOM      2  N   UNL     1      -0.708  10.539  21.906  0.00  0.00    +0.000 N 
ATOM      3  C   UNL     1      -1.509  11.634  22.137  0.00  0.00    +0.000 A 
ATOM      4  C   UNL     1      -2.171  11.837  23.366  0.00  0.00    +0.000 A 
ATOM      5  C   UNL     1      -2.997  12.935  23.611  0.00  0.00    +0.000 A 
ATOM      6  C   UNL     1      -3.189  13.872  22.618  0.00  0.00    +0.000 A 
ATOM      7  C   UNL     1      -2.547  13.708  21.389  0.00  0.00    +0.000 A 
ATOM      8  C   UNL     1      -1.695  12.616  21.114  0.00  0.00    +0.000 A 
ATOM      9  C   UNL     1      -1.057  12.497  19.845  0.00  0.00    +0.000 A 
ATOM     10  C   UNL     1      -0.303  11.336  19.680  0.00  0.00    +0.000 A 
ATOM     11  O   UNL     1       0.372  10.996  18.547  0.00  0.00    +0.000 OA
ATOM     12  C   UNL     1       1.016   9.827  18.783  0.00  0.00    +0.000 A 
ATOM     13  C   UNL     1       1.819   9.163  17.868  0.00  0.00    +0.000 A 
ATOM     14  C   UNL     1       2.426   7.981  18.304  0.00  0.00    +0.000 A 
ATOM     15  C   UNL     1       2.230   7.502  19.604  0.00  0.00    +0.000 A 
ATOM     16  C   UNL     1       1.381   8.184  20.491  0.00  0.00    +0.000 A 
ATOM     17  C   UNL     1       0.767   9.390  20.079  0.00  0.00    +0.000 A 
ATOM     18  C   UNL     1      -0.106  10.377  20.653  0.00  0.00    +0.000 A 
ENDROOT
BRANCH   9  19
ATOM     19  N   UNL     1      -1.229  13.448  18.859  0.00  0.00    +0.000 N 
ATOM     20  H   UNL     1      -2.133  13.531  18.405  0.00  0.00    +0.000 HD
BRANCH  19  21
ATOM     21  C   UNL     1      -0.173  14.311  18.338  0.00  0.00    +0.000 C 
BRANCH  21  22
ATOM     22  C   UNL     1       0.000  15.508  19.285  0.00  0.00    +0.000 C 
BRANCH  22  23
ATOM     23  C   UNL     1       1.401  15.492  19.913  0.00  0.00    +0.000 C 
BRANCH  23  24
ATOM     24  N   UNL     1       2.242  14.334  19.593  0.00  0.00    +0.000 NA
ATOM     25  C   UNL     1       2.746  13.584  20.766  0.00  0.00    +0.000 C 
ATOM     26  C   UNL     1       3.823  14.323  21.581  0.00  0.00    +0.000 C 
ATOM     27  O   UNL     1       4.922  14.740  20.763  0.00  0.00    +0.000 OA
ATOM     28  C   UNL     1       4.482  15.522  19.649  0.00  0.00    +0.000 C 
ATOM     29  C   UNL     1       3.428  14.772  18.809  0.00  0.00    +0.000 C 
ENDBRANCH  23  24
ENDBRANCH  22  23
ENDBRANCH  21  22
ENDBRANCH  19  21
ENDBRANCH   9  19
BRANCH  15  30
ATOM     30  O   UNL     1       2.791   6.359  20.117  0.00  0.00    +0.000 OA
BRANCH  30  31
ATOM     31  C   UNL     1       3.476   5.550  19.158  0.00  0.00    +0.000 C 
BRANCH  31  32
ATOM     32  C   UNL     1       3.457   4.083  19.620  0.00  0.00    +0.000 C 
BRANCH  32  33
ATOM     33  N   UNL     1       2.309   3.250  19.006  0.00  0.00    +0.000 N 
ATOM     34  C   UNL     1       1.327   2.772  20.073  0.00  0.00    +0.000 C 
ATOM     35  C   UNL     1       1.563   4.040  17.934  0.00  0.00    +0.000 C 
ATOM     36  C   UNL     1       2.920   2.009  18.343  0.00  0.00    +0.000 C 
ENDBRANCH  32  33
ENDBRANCH  31  32
ENDBRANCH  30  31
ENDBRANCH  15  30
TORSDOF 9
ENDMDL
MODEL 4
REMARK VINA RESULT:      -7.4      1.180      1.502
REMARK  Name = 
REMARK  13 active torsions:
REMARK  status: ('A' for Active; 'I' for Inactive)
REMARK    1  A    between atoms: C_1  and  N_2
REMARK    2  A    between atoms: C_9  and  N_10
REMARK    3  A    between atoms: N_10  and  C_11
REMARK    4  A    between atoms: C_11  and  C_12
REMARK    5  A    between atoms: C_12  and  C_13
REMARK    6  A    between atoms: C_13  and  N_14
REMARK    7  A    between atoms: C_25  and  O_26
REMARK    8  A    between atoms: O_26  and  C_27
REMARK    9  A    between atoms: C_27  and  C_28
REMARK   10  A    between atoms: C_28  and  N_29
REMARK   11  A    between atoms: N_29  and  C_30
REMARK   12  A    between atoms: N_29  and  C_31
REMARK   13  A    between atoms: N_29  and  C_32
REMARK                            x       y       z     vdW  Elec       q    Type
REMARK                         _______ _______ _______ _____ _____    ______ ____
ROOT
ATOM      1  C   UNL     1      -0.331   9.383  22.877  0.00  0.00    +0.000 C 
ATOM      2  N   UNL     1      -0.550  10.405  21.842  0.00  0.00    +0.000 N 
ATOM      3  C   UNL     1      -1.313  11.532  22.047  0.00  0.00    +0.000 A 
ATOM      4  C   UNL     1      -1.984  11.776  23.263  0.00  0.00    +0.000 A 
ATOM      5  C   UNL     1      -2.773  12.908  23.481  0.00  0.00    +0.000 A 
ATOM      6  C   UNL     1      -2.916  13.837  22.473  0.00  0.00    +0.000 A 
ATOM      7  C   UNL     1      -2.262  13.633  21.256  0.00  0.00    +0.000 A 
ATOM      8  C   UNL     1      -1.447  12.507  21.008  0.00  0.00    +0.000 A 
ATOM      9  C   UNL     1      -0.796  12.347  19.751  0.00  0.00    +0.000 A 
ATOM     10  C   UNL     1      -0.083  11.157  19.613  0.00  0.00    +0.000 A 
ATOM     11  O   UNL     1       0.596  10.776  18.495  0.00  0.00    +0.000 OA
ATOM     12  C   UNL     1       1.192   9.588  18.756  0.00  0.00    +0.000 A 
ATOM     13  C   UNL     1       1.983   8.882  17.862  0.00  0.00    +0.000 A 
ATOM     14  C   UNL     1       2.540   7.685  18.322  0.00  0.00    +0.000 A 
ATOM     15  C   UNL     1       2.307   7.232  19.625  0.00  0.00    +0.000 A 
ATOM     16  C   UNL     1       1.471   7.956  20.490  0.00  0.00    +0.000 A 
ATOM     17  C   UNL     1       0.908   9.178  20.053  0.00  0.00    +0.000 A 
ATOM     18  C   UNL     1       0.065  10.205  20.601  0.00  0.00    +0.000 A 
ENDROOT
BRANCH   9  19
ATOM     19  N   UNL     1      -0.918  13.290  18.750  0.00  0.00    +0.000 N 
ATOM     20  H   UNL     1      -1.569  13.122  17.990  0.00  0.00    +0.000 HD
BRANCH  19  21
ATOM     21  C   UNL     1      -0.109  14.500  18.640  0.00  0.00    +0.000 C 
BRANCH  21  22
ATOM     22  C   UNL     1       1.376  14.107  18.669  0.00  0.00    +0.000 C 
BRANCH  22  23
ATOM     23  C   UNL     1       2.184  15.137  19.470  0.00  0.00    +0.000 C 
BRANCH  23  24
ATOM     24  N   UNL     1       2.890  16.157  18.689  0.00  0.00    +0.000 NA
ATOM     25  C   UNL     1       3.660  15.641  17.535  0.00  0.00    +0.000 C 
ATOM     26  C   UNL     1       4.925  14.850  17.914  0.00  0.00    +0.000 C 
ATOM     27  O   UNL     1       5.788  15.601  18.776  0.00  0.00    +0.000 OA
ATOM     28  C   UNL     1       5.096  16.067  19.937  0.00  0.00    +0.000 C 
ATOM     29  C   UNL     1       3.847  16.890  19.562  0.00  0.00    +0.000 C 
ENDBRANCH  23  24
ENDBRANCH  22  23
ENDBRANCH  21  22
ENDBRANCH  19  21
ENDBRANCH   9  19
BRANCH  15  30
ATOM     30  O   UNL     1       2.818   6.076  20.161  0.00  0.00    +0.000 OA
BRANCH  30  31
ATOM     31  C   UNL     1       3.749   5.390  19.320  0.00  0.00    +0.000 C 
BRANCH  31  32
ATOM     32  C   UNL     1       3.697   3.883  19.623  0.00  0.00    +0.000 C 
BRANCH  32  33
ATOM     33  N   UNL     1       2.630   3.119  18.805  0.00  0.00    +0.000 N 
ATOM     34  C   UNL     1       1.399   2.795  19.649  0.00  0.00    +0.000 C 
ATOM     35  C   UNL     1       2.214   3.905  17.566  0.00  0.00    +0.000 C 
ATOM     36  C   UNL     1       3.243   1.790  18.342  0.00  0.00    +0.000 C 
ENDBRANCH  32  33
ENDBRANCH  31  32
ENDBRANCH  30  31
ENDBRANCH  15  30
TORSDOF 9
ENDMDL
MODEL 5
REMARK VINA RESULT:      -7.4      3.450      5.272
REMARK  Name = 
REMARK  13 active torsions:
REMARK  status: ('A' for Active; 'I' for Inactive)
REMARK    1  A    between atoms: C_1  and  N_2
REMARK    2  A    between atoms: C_9  and  N_10
REMARK    3  A    between atoms: N_10  and  C_11
REMARK    4  A    between atoms: C_11  and  C_12
REMARK    5  A    between atoms: C_12  and  C_13
REMARK    6  A    between atoms: C_13  and  N_14
REMARK    7  A    between atoms: C_25  and  O_26
REMARK    8  A    between atoms: O_26  and  C_27
REMARK    9  A    between atoms: C_27  and  C_28
REMARK   10  A    between atoms: C_28  and  N_29
REMARK   11  A    between atoms: N_29  and  C_30
REMARK   12  A    between atoms: N_29  and  C_31
REMARK   13  A    between atoms: N_29  and  C_32
REMARK                            x       y       z     vdW  Elec       q    Type
REMARK                         _______ _______ _______ _____ _____    ______ ____
ROOT
ATOM      1  C   UNL     1       0.646   9.137  22.710  0.00  0.00    +0.000 C 
ATOM      2  N   UNL     1       0.167   9.926  21.564  0.00  0.00    +0.000 N 
ATOM      3  C   UNL     1      -0.642  11.032  21.697  0.00  0.00    +0.000 A 
ATOM      4  C   UNL     1      -1.112  11.475  22.950  0.00  0.00    +0.000 A 
ATOM      5  C   UNL     1      -1.944  12.587  23.100  0.00  0.00    +0.000 A 
ATOM      6  C   UNL     1      -2.335  13.293  21.982  0.00  0.00    +0.000 A 
ATOM      7  C   UNL     1      -1.886  12.888  20.724  0.00  0.00    +0.000 A 
ATOM      8  C   UNL     1      -1.034  11.777  20.540  0.00  0.00    +0.000 A 
ATOM      9  C   UNL     1      -0.597  11.408  19.235  0.00  0.00    +0.000 A 
ATOM     10  C   UNL     1       0.179  10.251  19.188  0.00  0.00    +0.000 A 
ATOM     11  O   UNL     1       0.685   9.694  18.052  0.00  0.00    +0.000 OA
ATOM     12  C   UNL     1       1.414   8.610  18.411  0.00  0.00    +0.000 A 
ATOM     13  C   UNL     1       2.097   7.783  17.531  0.00  0.00    +0.000 A 
ATOM     14  C   UNL     1       2.823   6.728  18.092  0.00  0.00    +0.000 A 
ATOM     15  C   UNL     1       2.856   6.527  19.476  0.00  0.00    +0.000 A 
ATOM     16  C   UNL     1       2.123   7.364  20.333  0.00  0.00    +0.000 A 
ATOM     17  C   UNL     1       1.393   8.447  19.792  0.00  0.00    +0.000 A 
ATOM     18  C   UNL     1       0.573   9.518  20.288  0.00  0.00    +0.000 A 
ENDROOT
BRANCH   9  19
ATOM     19  N   UNL     1      -0.968  12.131  18.118  0.00  0.00    +0.000 N 
ATOM     20  H   UNL     1      -0.488  13.001  17.912  0.00  0.00    +0.000 HD
BRANCH  19  21
ATOM     21  C   UNL     1      -2.077  11.788  17.233  0.00  0.00    +0.000 C 
BRANCH  21  22
ATOM     22  C   UNL     1      -2.768  10.526  17.770  0.00  0.00    +0.000 C 
BRANCH  22  23
ATOM     23  C   UNL     1      -4.278  10.764  17.911  0.00  0.00    +0.000 C 
BRANCH  23  24
ATOM     24  N   UNL     1      -4.688  12.126  18.268  0.00  0.00    +0.000 NA
ATOM     25  C   UNL     1      -5.021  12.326  19.696  0.00  0.00    +0.000 C 
ATOM     26  C   UNL     1      -6.332  11.659  20.147  0.00  0.00    +0.000 C 
ATOM     27  O   UNL     1      -7.441  12.053  19.331  0.00  0.00    +0.000 OA
ATOM     28  C   UNL     1      -7.185  11.817  17.944  0.00  0.00    +0.000 C 
ATOM     29  C   UNL     1      -5.890  12.514  17.480  0.00  0.00    +0.000 C 
ENDBRANCH  23  24
ENDBRANCH  22  23
ENDBRANCH  21  22
ENDBRANCH  19  21
ENDBRANCH   9  19
BRANCH  15  30
ATOM     30  O   UNL     1       3.547   5.525  20.110  0.00  0.00    +0.000 OA
BRANCH  30  31
ATOM     31  C   UNL     1       4.308   4.682  19.241  0.00  0.00    +0.000 C 
BRANCH  31  32
ATOM     32  C   UNL     1       5.755   5.197  19.167  0.00  0.00    +0.000 C 
BRANCH  32  33
ATOM     33  N   UNL     1       6.305   5.306  17.726  0.00  0.00    +0.000 N 
ATOM     34  C   UNL     1       5.385   4.617  16.720  0.00  0.00    +0.000 C 
ATOM     35  C   UNL     1       6.515   6.762  17.321  0.00  0.00    +0.000 C 
ATOM     36  C   UNL     1       7.665   4.597  17.678  0.00  0.00    +0.000 C 
ENDBRANCH  32  33
ENDBRANCH  31  32
ENDBRANCH  30  31
ENDBRANCH  15  30
TORSDOF 9
ENDMDL
MODEL 6
REMARK VINA RESULT:      -7.4      3.480      5.217
REMARK  Name = 
REMARK  13 active torsions:
REMARK  status: ('A' for Active; 'I' for Inactive)
REMARK    1  A    between atoms: C_1  and  N_2
REMARK    2  A    between atoms: C_9  and  N_10
REMARK    3  A    between atoms: N_10  and  C_11
REMARK    4  A    between atoms: C_11  and  C_12
REMARK    5  A    between atoms: C_12  and  C_13
REMARK    6  A    between atoms: C_13  and  N_14
REMARK    7  A    between atoms: C_25  and  O_26
REMARK    8  A    between atoms: O_26  and  C_27
REMARK    9  A    between atoms: C_27  and  C_28
REMARK   10  A    between atoms: C_28  and  N_29
REMARK   11  A    between atoms: N_29  and  C_30
REMARK   12  A    between atoms: N_29  and  C_31
REMARK   13  A    between atoms: N_29  and  C_32
REMARK                            x       y       z     vdW  Elec       q    Type
REMARK                         _______ _______ _______ _____ _____    ______ ____
ROOT
ATOM      1  C   UNL     1       0.460   9.092  22.769  0.00  0.00    +0.000 C 
ATOM      2  N   UNL     1      -0.041   9.926  21.664  0.00  0.00    +0.000 N 
ATOM      3  C   UNL     1      -0.906  10.980  21.849  0.00  0.00    +0.000 A 
ATOM      4  C   UNL     1      -1.418  11.320  23.119  0.00  0.00    +0.000 A 
ATOM      5  C   UNL     1      -2.307  12.378  23.321  0.00  0.00    +0.000 A 
ATOM      6  C   UNL     1      -2.717  13.133  22.241  0.00  0.00    +0.000 A 
ATOM      7  C   UNL     1      -2.228  12.830  20.969  0.00  0.00    +0.000 A 
ATOM      8  C   UNL     1      -1.318  11.776  20.734  0.00  0.00    +0.000 A 
ATOM      9  C   UNL     1      -0.843  11.510  19.417  0.00  0.00    +0.000 A 
ATOM     10  C   UNL     1      -0.009  10.398  19.313  0.00  0.00    +0.000 A 
ATOM     11  O   UNL     1       0.543   9.938  18.155  0.00  0.00    +0.000 OA
ATOM     12  C   UNL     1       1.321   8.872  18.461  0.00  0.00    +0.000 A 
ATOM     13  C   UNL     1       2.057   8.137  17.544  0.00  0.00    +0.000 A 
ATOM     14  C   UNL     1       2.828   7.086  18.053  0.00  0.00    +0.000 A 
ATOM     15  C   UNL     1       2.850   6.801  19.422  0.00  0.00    +0.000 A 
ATOM     16  C   UNL     1       2.062   7.546  20.315  0.00  0.00    +0.000 A 
ATOM     17  C   UNL     1       1.286   8.623  19.828  0.00  0.00    +0.000 A 
ATOM     18  C   UNL     1       0.406   9.619  20.374  0.00  0.00    +0.000 A 
ENDROOT
BRANCH   9  19
ATOM     19  N   UNL     1      -1.233  12.282  18.340  0.00  0.00    +0.000 N 
ATOM     20  H   UNL     1      -0.958  13.258  18.307  0.00  0.00    +0.000 HD
BRANCH  19  21
ATOM     21  C   UNL     1      -2.099  11.826  17.257  0.00  0.00    +0.000 C 
BRANCH  21  22
ATOM     22  C   UNL     1      -3.225  10.967  17.853  0.00  0.00    +0.000 C 
BRANCH  22  23
ATOM     23  C   UNL     1      -4.571  11.694  17.732  0.00  0.00    +0.000 C 
BRANCH  23  24
ATOM     24  N   UNL     1      -5.622  11.270  18.662  0.00  0.00    +0.000 NA
ATOM     25  C   UNL     1      -7.005  11.427  18.158  0.00  0.00    +0.000 C 
ATOM     26  C   UNL     1      -7.486  12.886  18.053  0.00  0.00    +0.000 C 
ATOM     27  O   UNL     1      -7.339  13.588  19.293  0.00  0.00    +0.000 OA
ATOM     28  C   UNL     1      -5.999  13.513  19.785  0.00  0.00    +0.000 C 
ATOM     29  C   UNL     1      -5.525  12.052  19.925  0.00  0.00    +0.000 C 
ENDBRANCH  23  24
ENDBRANCH  22  23
ENDBRANCH  21  22
ENDBRANCH  19  21
ENDBRANCH   9  19
BRANCH  15  30
ATOM     30  O   UNL     1       3.581   5.797  20.007  0.00  0.00    +0.000 OA
BRANCH  30  31
ATOM     31  C   UNL     1       4.045   4.793  19.101  0.00  0.00    +0.000 C 
BRANCH  31  32
ATOM     32  C   UNL     1       5.582   4.811  19.062  0.00  0.00    +0.000 C 
BRANCH  32  33
ATOM     33  N   UNL     1       6.167   5.116  17.664  0.00  0.00    +0.000 N 
ATOM     34  C   UNL     1       7.584   4.565  17.515  0.00  0.00    +0.000 C 
ATOM     35  C   UNL     1       5.277   4.558  16.557  0.00  0.00    +0.000 C 
ATOM     36  C   UNL     1       6.237   6.639  17.496  0.00  0.00    +0.000 C 
ENDBRANCH  32  33
ENDBRANCH  31  32
ENDBRANCH  30  31
ENDBRANCH  15  30
TORSDOF 9
ENDMDL
MODEL 7
REMARK VINA RESULT:      -7.3      1.079      1.638
REMARK  Name = 
REMARK  13 active torsions:
REMARK  status: ('A' for Active; 'I' for Inactive)
REMARK    1  A    between atoms: C_1  and  N_2
REMARK    2  A    between atoms: C_9  and  N_10
REMARK    3  A    between atoms: N_10  and  C_11
REMARK    4  A    between atoms: C_11  and  C_12
REMARK    5  A    between atoms: C_12  and  C_13
REMARK    6  A    between atoms: C_13  and  N_14
REMARK    7  A    between atoms: C_25  and  O_26
REMARK    8  A    between atoms: O_26  and  C_27
REMARK    9  A    between atoms: C_27  and  C_28
REMARK   10  A    between atoms: C_28  and  N_29
REMARK   11  A    between atoms: N_29  and  C_30
REMARK   12  A    between atoms: N_29  and  C_31
REMARK   13  A    between atoms: N_29  and  C_32
REMARK                            x       y       z     vdW  Elec       q    Type
REMARK                         _______ _______ _______ _____ _____    ______ ____
ROOT
ATOM      1  C   UNL     1      -0.069   9.238  22.837  0.00  0.00    +0.000 C 
ATOM      2  N   UNL     1      -0.363  10.229  21.790  0.00  0.00    +0.000 N 
ATOM      3  C   UNL     1      -1.150  11.337  22.002  0.00  0.00    +0.000 A 
ATOM      4  C   UNL     1      -1.778  11.589  23.239  0.00  0.00    +0.000 A 
ATOM      5  C   UNL     1      -2.591  12.702  23.466  0.00  0.00    +0.000 A 
ATOM      6  C   UNL     1      -2.804  13.604  22.445  0.00  0.00    +0.000 A 
ATOM      7  C   UNL     1      -2.195  13.390  21.206  0.00  0.00    +0.000 A 
ATOM      8  C   UNL     1      -1.357  12.284  20.949  0.00  0.00    +0.000 A 
ATOM      9  C   UNL     1      -0.754  12.114  19.669  0.00  0.00    +0.000 A 
ATOM     10  C   UNL     1      -0.011  10.943  19.527  0.00  0.00    +0.000 A 
ATOM     11  O   UNL     1       0.632  10.557  18.390  0.00  0.00    +0.000 OA
ATOM     12  C   UNL     1       1.274   9.393  18.651  0.00  0.00    +0.000 A 
ATOM     13  C   UNL     1       2.049   8.690  17.740  0.00  0.00    +0.000 A 
ATOM     14  C   UNL     1       2.660   7.520  18.203  0.00  0.00    +0.000 A 
ATOM     15  C   UNL     1       2.495   7.091  19.524  0.00  0.00    +0.000 A 
ATOM     16  C   UNL     1       1.674   7.810  20.408  0.00  0.00    +0.000 A 
ATOM     17  C   UNL     1       1.057   9.005  19.968  0.00  0.00    +0.000 A 
ATOM     18  C   UNL     1       0.206  10.018  20.528  0.00  0.00    +0.000 A 
ENDROOT
BRANCH   9  19
ATOM     19  N   UNL     1      -0.946  13.030  18.654  0.00  0.00    +0.000 N 
ATOM     20  H   UNL     1      -1.574  12.796  17.891  0.00  0.00    +0.000 HD
BRANCH  19  21
ATOM     21  C   UNL     1      -0.242  14.303  18.534  0.00  0.00    +0.000 C 
BRANCH  21  22
ATOM     22  C   UNL     1       1.267  14.028  18.453  0.00  0.00    +0.000 C 
BRANCH  22  23
ATOM     23  C   UNL     1       2.035  14.999  19.360  0.00  0.00    +0.000 C 
BRANCH  23  24
ATOM     24  N   UNL     1       2.831  16.027  18.682  0.00  0.00    +0.000 NA
ATOM     25  C   UNL     1       3.839  16.701  19.532  0.00  0.00    +0.000 C 
ATOM     26  C   UNL     1       3.250  17.650  20.590  0.00  0.00    +0.000 C 
ATOM     27  O   UNL     1       2.377  18.625  20.009  0.00  0.00    +0.000 OA
ATOM     28  C   UNL     1       1.348  18.011  19.228  0.00  0.00    +0.000 C 
ATOM     29  C   UNL     1       1.935  17.086  18.142  0.00  0.00    +0.000 C 
ENDBRANCH  23  24
ENDBRANCH  22  23
ENDBRANCH  21  22
ENDBRANCH  19  21
ENDBRANCH   9  19
BRANCH  15  30
ATOM     30  O   UNL     1       3.063   5.963  20.063  0.00  0.00    +0.000 OA
BRANCH  30  31
ATOM     31  C   UNL     1       2.190   4.834  20.138  0.00  0.00    +0.000 C 
BRANCH  31  32
ATOM     32  C   UNL     1       2.995   3.548  19.881  0.00  0.00    +0.000 C 
BRANCH  32  33
ATOM     33  N   UNL     1       2.538   2.767  18.628  0.00  0.00    +0.000 N 
ATOM     34  C   UNL     1       3.430   1.556  18.364  0.00  0.00    +0.000 C 
ATOM     35  C   UNL     1       1.085   2.320  18.752  0.00  0.00    +0.000 C 
ATOM     36  C   UNL     1       2.647   3.701  17.415  0.00  0.00    +0.000 C 
ENDBRANCH  32  33
ENDBRANCH  31  32
ENDBRANCH  30  31
ENDBRANCH  15  30
TORSDOF 9
ENDMDL
MODEL 8
REMARK VINA RESULT:      -7.2      0.847      1.166
REMARK  Name = 
REMARK  13 active torsions:
REMARK  status: ('A' for Active; 'I' for Inactive)
REMARK    1  A    between atoms: C_1  and  N_2
REMARK    2  A    between atoms: C_9  and  N_10
REMARK    3  A    between atoms: N_10  and  C_11
REMARK    4  A    between atoms: C_11  and  C_12
REMARK    5  A    between atoms: C_12  and  C_13
REMARK    6  A    between atoms: C_13  and  N_14
REMARK    7  A    between atoms: C_25  and  O_26
REMARK    8  A    between atoms: O_26  and  C_27
REMARK    9  A    between atoms: C_27  and  C_28
REMARK   10  A    between atoms: C_28  and  N_29
REMARK   11  A    between atoms: N_29  and  C_30
REMARK   12  A    between atoms: N_29  and  C_31
REMARK   13  A    between atoms: N_29  and  C_32
REMARK                            x       y       z     vdW  Elec       q    Type
REMARK                         _______ _______ _______ _____ _____    ______ ____
ROOT
ATOM      1  C   UNL     1      -0.193   9.242  22.844  0.00  0.00    +0.000 C 
ATOM      2  N   UNL     1      -0.506  10.268  21.837  0.00  0.00    +0.000 N 
ATOM      3  C   UNL     1      -1.315  11.352  22.093  0.00  0.00    +0.000 A 
ATOM      4  C   UNL     1      -1.947  11.542  23.339  0.00  0.00    +0.000 A 
ATOM      5  C   UNL     1      -2.782  12.628  23.609  0.00  0.00    +0.000 A 
ATOM      6  C   UNL     1      -3.012  13.566  22.624  0.00  0.00    +0.000 A 
ATOM      7  C   UNL     1      -2.400  13.414  21.378  0.00  0.00    +0.000 A 
ATOM      8  C   UNL     1      -1.540  12.335  21.078  0.00  0.00    +0.000 A 
ATOM      9  C   UNL     1      -0.933  12.228  19.793  0.00  0.00    +0.000 A 
ATOM     10  C   UNL     1      -0.168  11.078  19.605  0.00  0.00    +0.000 A 
ATOM     11  O   UNL     1       0.483  10.750  18.454  0.00  0.00    +0.000 OA
ATOM     12  C   UNL     1       1.147   9.590  18.670  0.00  0.00    +0.000 A 
ATOM     13  C   UNL     1       1.936   8.939  17.732  0.00  0.00    +0.000 A 
ATOM     14  C   UNL     1       2.570   7.764  18.148  0.00  0.00    +0.000 A 
ATOM     15  C   UNL     1       2.414   7.279  19.451  0.00  0.00    +0.000 A 
ATOM     16  C   UNL     1       1.578   7.947  20.362  0.00  0.00    +0.000 A 
ATOM     17  C   UNL     1       0.938   9.145  19.970  0.00  0.00    +0.000 A 
ATOM     18  C   UNL     1       0.067  10.119  20.569  0.00  0.00    +0.000 A 
ENDROOT
BRANCH   9  19
ATOM     19  N   UNL     1      -1.143  13.180  18.815  0.00  0.00    +0.000 N 
ATOM     20  H   UNL     1      -2.008  13.160  18.284  0.00  0.00    +0.000 HD
BRANCH  19  21
ATOM     21  C   UNL     1      -0.168  14.187  18.407  0.00  0.00    +0.000 C 
BRANCH  21  22
ATOM     22  C   UNL     1      -0.378  15.451  19.254  0.00  0.00    +0.000 C 
BRANCH  22  23
ATOM     23  C   UNL     1       0.972  16.003  19.731  0.00  0.00    +0.000 C 
BRANCH  23  24
ATOM     24  N   UNL     1       1.468  17.194  19.033  0.00  0.00    +0.000 NA
ATOM     25  C   UNL     1       2.493  16.931  17.997  0.00  0.00    +0.000 C 
ATOM     26  C   UNL     1       3.865  16.506  18.550  0.00  0.00    +0.000 C 
ATOM     27  O   UNL     1       4.371  17.445  19.505  0.00  0.00    +0.000 OA
ATOM     28  C   UNL     1       3.434  17.680  20.559  0.00  0.00    +0.000 C 
ATOM     29  C   UNL     1       2.067  18.140  20.012  0.00  0.00    +0.000 C 
ENDBRANCH  23  24
ENDBRANCH  22  23
ENDBRANCH  21  22
ENDBRANCH  19  21
ENDBRANCH   9  19
BRANCH  15  30
ATOM     30  O   UNL     1       3.003   6.142  19.945  0.00  0.00    +0.000 OA
BRANCH  30  31
ATOM     31  C   UNL     1       3.839   5.451  19.013  0.00  0.00    +0.000 C 
BRANCH  31  32
ATOM     32  C   UNL     1       3.033   4.327  18.341  0.00  0.00    +0.000 C 
BRANCH  32  33
ATOM     33  N   UNL     1       3.096   2.978  19.095  0.00  0.00    +0.000 N 
ATOM     34  C   UNL     1       4.393   2.839  19.890  0.00  0.00    +0.000 C 
ATOM     35  C   UNL     1       1.899   2.806  20.025  0.00  0.00    +0.000 C 
ATOM     36  C   UNL     1       3.059   1.848  18.057  0.00  0.00    +0.000 C 
ENDBRANCH  32  33
ENDBRANCH  31  32
ENDBRANCH  30  31
ENDBRANCH  15  30
TORSDOF 9
ENDMDL
MODEL 9
REMARK VINA RESULT:      -7.2      1.350      1.729
REMARK  Name = 
REMARK  13 active torsions:
REMARK  status: ('A' for Active; 'I' for Inactive)
REMARK    1  A    between atoms: C_1  and  N_2
REMARK    2  A    between atoms: C_9  and  N_10
REMARK    3  A    between atoms: N_10  and  C_11
REMARK    4  A    between atoms: C_11  and  C_12
REMARK    5  A    between atoms: C_12  and  C_13
REMARK    6  A    between atoms: C_13  and  N_14
REMARK    7  A    between atoms: C_25  and  O_26
REMARK    8  A    between atoms: O_26  and  C_27
REMARK    9  A    between atoms: C_27  and  C_28
REMARK   10  A    between atoms: C_28  and  N_29
REMARK   11  A    between atoms: N_29  and  C_30
REMARK   12  A    between atoms: N_29  and  C_31
REMARK   13  A    between atoms: N_29  and  C_32
REMARK                            x       y       z     vdW  Elec       q    Type
REMARK                         _______ _______ _______ _____ _____    ______ ____
ROOT
ATOM      1  C   UNL     1      -0.310   9.361  22.896  0.00  0.00    +0.000 C 
ATOM      2  N   UNL     1      -0.603  10.367  21.862  0.00  0.00    +0.000 N 
ATOM      3  C   UNL     1      -1.413  11.457  22.081  0.00  0.00    +0.000 A 
ATOM      4  C   UNL     1      -2.066  11.676  23.312  0.00  0.00    +0.000 A 
ATOM      5  C   UNL     1      -2.902  12.770  23.545  0.00  0.00    +0.000 A 
ATOM      6  C   UNL     1      -3.113  13.686  22.536  0.00  0.00    +0.000 A 
ATOM      7  C   UNL     1      -2.481  13.506  21.305  0.00  0.00    +0.000 A 
ATOM      8  C   UNL     1      -1.619  12.419  21.042  0.00  0.00    +0.000 A 
ATOM      9  C   UNL     1      -0.992  12.283  19.769  0.00  0.00    +0.000 A 
ATOM     10  C   UNL     1      -0.227  11.127  19.618  0.00  0.00    +0.000 A 
ATOM     11  O   UNL     1       0.441  10.773  18.485  0.00  0.00    +0.000 OA
ATOM     12  C   UNL     1       1.099   9.616  18.737  0.00  0.00    +0.000 A 
ATOM     13  C   UNL     1       1.901   8.943  17.826  0.00  0.00    +0.000 A 
ATOM     14  C   UNL     1       2.525   7.776  18.278  0.00  0.00    +0.000 A 
ATOM     15  C   UNL     1       2.346   7.320  19.588  0.00  0.00    +0.000 A 
ATOM     16  C   UNL     1       1.498   8.009  20.471  0.00  0.00    +0.000 A 
ATOM     17  C   UNL     1       0.867   9.200  20.043  0.00  0.00    +0.000 A 
ATOM     18  C   UNL     1      -0.010  10.189  20.606  0.00  0.00    +0.000 A 
ENDROOT
BRANCH   9  19
ATOM     19  N   UNL     1      -1.184  13.214  18.767  0.00  0.00    +0.000 N 
ATOM     20  H   UNL     1      -2.090  13.273  18.315  0.00  0.00    +0.000 HD
BRANCH  19  21
ATOM     21  C   UNL     1      -0.144  14.086  18.229  0.00  0.00    +0.000 C 
BRANCH  21  22
ATOM     22  C   UNL     1       0.669  14.665  19.395  0.00  0.00    +0.000 C 
BRANCH  22  23
ATOM     23  C   UNL     1       2.106  14.965  18.946  0.00  0.00    +0.000 C 
BRANCH  23  24
ATOM     24  N   UNL     1       2.826  15.986  19.714  0.00  0.00    +0.000 NA
ATOM     25  C   UNL     1       4.193  16.285  19.231  0.00  0.00    +0.000 C 
ATOM     26  C   UNL     1       5.219  15.167  19.484  0.00  0.00    +0.000 C 
ATOM     27  O   UNL     1       5.265  14.784  20.863  0.00  0.00    +0.000 OA
ATOM     28  C   UNL     1       3.970  14.426  21.354  0.00  0.00    +0.000 C 
ATOM     29  C   UNL     1       2.947  15.559  21.134  0.00  0.00    +0.000 C 
ENDBRANCH  23  24
ENDBRANCH  22  23
ENDBRANCH  21  22
ENDBRANCH  19  21
ENDBRANCH   9  19
BRANCH  15  30
ATOM     30  O   UNL     1       2.925   6.193  20.116  0.00  0.00    +0.000 OA
BRANCH  30  31
ATOM     31  C   UNL     1       2.062   5.055  20.182  0.00  0.00    +0.000 C 
BRANCH  31  32
ATOM     32  C   UNL     1       2.873   3.781  19.892  0.00  0.00    +0.000 C 
BRANCH  32  33
ATOM     33  N   UNL     1       2.965   3.430  18.389  0.00  0.00    +0.000 N 
ATOM     34  C   UNL     1       2.982   1.919  18.164  0.00  0.00    +0.000 C 
ATOM     35  C   UNL     1       1.817   4.056  17.602  0.00  0.00    +0.000 C 
ATOM     36  C   UNL     1       4.282   3.999  17.844  0.00  0.00    +0.000 C 
ENDBRANCH  32  33
ENDBRANCH  31  32
ENDBRANCH  30  31
ENDBRANCH  15  30
TORSDOF 9
ENDMDL
