MODEL 1
REMARK VINA RESULT:      -8.3      0.000      0.000
REMARK  Name = 
REMARK  7 active torsions:
REMARK  status: ('A' for Active; 'I' for Inactive)
REMARK    1  A    between atoms: C_1  and  C_2
REMARK    2  A    between atoms: C_2  and  C_3
REMARK    3  A    between atoms: C_3  and  C_4
REMARK    4  A    between atoms: C_4  and  O_6
REMARK    5  A    between atoms: O_6  and  C_7
REMARK    6  A    between atoms: C_9  and  C_10
REMARK    7  A    between atoms: N_18  and  C_19
REMARK                            x       y       z     vdW  Elec       q    Type
REMARK                         _______ _______ _______ _____ _____    ______ ____
ROOT
ATOM      1  C   UNL     1       6.028   4.851  17.317  0.00  0.00    +0.000 C 
ATOM      2  N   UNL     1       5.573   3.868  18.348  0.00  0.00    +0.000 NA
ATOM      3  C   UNL     1       4.256   3.353  17.945  0.00  0.00    +0.000 C 
ATOM      4  C   UNL     1       3.636   4.384  17.016  0.00  0.00    +0.000 C 
ATOM      5  C   UNL     1       2.527   5.192  17.629  0.00  0.00    +0.000 C 
ATOM      6  O   UNL     1       1.371   4.786  17.642  0.00  0.00    +0.000 OA
ATOM      7  N   UNL     1       3.038   6.398  18.052  0.00  0.00    +0.000 N 
ATOM      8  C   UNL     1       4.217   6.658  17.390  0.00  0.00    +0.000 C 
ATOM      9  O   UNL     1       4.785   7.730  17.240  0.00  0.00    +0.000 OA
ATOM     10  C   UNL     1       4.727   5.402  16.723  0.00  0.00    +0.000 C 
ATOM     11  H   UNL     1       5.473   4.352  19.250  0.00  0.00    +0.000 HD
ENDROOT
BRANCH   7  12
ATOM     12  C   UNL     1       2.346   7.327  18.898  0.00  0.00    +0.000 A 
ATOM     13  C   UNL     1       1.855   8.550  18.405  0.00  0.00    +0.000 A 
ATOM     14  C   UNL     1       1.161   9.449  19.227  0.00  0.00    +0.000 A 
ATOM     15  C   UNL     1       0.932   9.132  20.555  0.00  0.00    +0.000 A 
ATOM     16  F   UNL     1       0.271   9.990  21.343  0.00  0.00    +0.000 F 
ATOM     17  C   UNL     1       1.376   7.929  21.073  0.00  0.00    +0.000 A 
ATOM     18  C   UNL     1       2.068   7.032  20.247  0.00  0.00    +0.000 A 
ENDBRANCH   7  12
BRANCH   3  19
ATOM     19  C   UNL     1       3.450   2.966  19.139  0.00  0.00    +0.000 A 
ATOM     20  C   UNL     1       3.475   3.349  20.463  0.00  0.00    +0.000 A 
ATOM     21  C   UNL     1       2.394   2.682  21.092  0.00  0.00    +0.000 A 
ATOM     22  C   UNL     1       1.800   1.913  20.121  0.00  0.00    +0.000 A 
ATOM     23  O   UNL     1       2.444   2.061  18.935  0.00  0.00    +0.000 OA
ENDBRANCH   3  19
BRANCH   1  25
ATOM     24  C   UNL     1       6.533   4.094  14.854  0.00  0.00    +0.000 C 
ATOM     25  C   UNL     1       6.877   3.998  16.335  0.00  0.00    +0.000 C 
ENDBRANCH   1  25
BRANCH   1  26
ATOM     26  C   UNL     1       6.918   5.948  17.971  0.00  0.00    +0.000 C 
ATOM     27  O   UNL     1       7.061   6.096  19.178  0.00  0.00    +0.000 OA
BRANCH  26  28
ATOM     28  O   UNL     1       7.550   6.708  17.027  0.00  0.00    +0.000 OA
ATOM     29  C   UNL     1       7.946   7.998  17.499  0.00  0.00    +0.000 C 
ENDBRANCH  26  28
ENDBRANCH   1  26
TORSDOF 5
ENDMDL
MODEL 2
REMARK VINA RESULT:      -8.1      0.534      1.262
REMARK  Name = 
REMARK  7 active torsions:
REMARK  status: ('A' for Active; 'I' for Inactive)
REMARK    1  A    between atoms: C_1  and  C_2
REMARK    2  A    between atoms: C_2  and  C_3
REMARK    3  A    between atoms: C_3  and  C_4
REMARK    4  A    between atoms: C_4  and  O_6
REMARK    5  A    between atoms: O_6  and  C_7
REMARK    6  A    between atoms: C_9  and  C_10
REMARK    7  A    between atoms: N_18  and  C_19
REMARK                            x       y       z     vdW  Elec       q    Type
REMARK                         _______ _______ _______ _____ _____    ______ ____
ROOT
ATOM      1  C   UNL     1       5.883   4.703  17.037  0.00  0.00    +0.000 C 
ATOM      2  N   UNL     1       5.515   3.785  18.158  0.00  0.00    +0.000 NA
ATOM      3  C   UNL     1       4.175   3.241  17.889  0.00  0.00    +0.000 C 
ATOM      4  C   UNL     1       3.479   4.208  16.946  0.00  0.00    +0.000 C 
ATOM      5  C   UNL     1       2.412   5.049  17.589  0.00  0.00    +0.000 C 
ATOM      6  O   UNL     1       1.264   4.640  17.715  0.00  0.00    +0.000 OA
ATOM      7  N   UNL     1       2.943   6.281  17.897  0.00  0.00    +0.000 N 
ATOM      8  C   UNL     1       4.067   6.504  17.133  0.00  0.00    +0.000 C 
ATOM      9  O   UNL     1       4.614   7.567  16.874  0.00  0.00    +0.000 OA
ATOM     10  C   UNL     1       4.536   5.211  16.509  0.00  0.00    +0.000 C 
ATOM     11  H   UNL     1       5.479   4.324  19.033  0.00  0.00    +0.000 HD
ENDROOT
BRANCH   7  12
ATOM     12  C   UNL     1       2.309   7.260  18.733  0.00  0.00    +0.000 A 
ATOM     13  C   UNL     1       2.126   7.046  20.112  0.00  0.00    +0.000 A 
ATOM     14  C   UNL     1       1.525   8.010  20.932  0.00  0.00    +0.000 A 
ATOM     15  C   UNL     1       1.111   9.215  20.389  0.00  0.00    +0.000 A 
ATOM     16  F   UNL     1       0.535  10.138  21.171  0.00  0.00    +0.000 F 
ATOM     17  C   UNL     1       1.296   9.476  19.043  0.00  0.00    +0.000 A 
ATOM     18  C   UNL     1       1.898   8.508  18.227  0.00  0.00    +0.000 A 
ENDBRANCH   7  12
BRANCH   3  19
ATOM     19  C   UNL     1       3.465   2.926  19.162  0.00  0.00    +0.000 A 
ATOM     20  C   UNL     1       3.611   3.363  20.461  0.00  0.00    +0.000 A 
ATOM     21  C   UNL     1       2.572   2.754  21.207  0.00  0.00    +0.000 A 
ATOM     22  C   UNL     1       1.879   1.961  20.324  0.00  0.00    +0.000 A 
ATOM     23  O   UNL     1       2.424   2.042  19.083  0.00  0.00    +0.000 OA
ENDBRANCH   3  19
BRANCH   1  25
ATOM     24  C   UNL     1       6.373   3.969  14.564  0.00  0.00    +0.000 C 
ATOM     25  C   UNL     1       6.663   3.793  16.049  0.00  0.00    +0.000 C 
ENDBRANCH   1  25
BRANCH   1  26
ATOM     26  C   UNL     1       6.810   5.842  17.552  0.00  0.00    +0.000 C 
ATOM     27  O   UNL     1       7.484   6.567  16.831  0.00  0.00    +0.000 OA
BRANCH  26  28
ATOM     28  O   UNL     1       6.753   5.957  18.913  0.00  0.00    +0.000 OA
ATOM     29  C   UNL     1       8.019   5.797  19.556  0.00  0.00    +0.000 C 
ENDBRANCH  26  28
ENDBRANCH   1  26
TORSDOF 5
ENDMDL
MODEL 3
REMARK VINA RESULT:      -8.1      0.556      1.169
REMARK  Name = 
REMARK  7 active torsions:
REMARK  status: ('A' for Active; 'I' for Inactive)
REMARK    1  A    between atoms: C_1  and  C_2
REMARK    2  A    between atoms: C_2  and  C_3
REMARK    3  A    between atoms: C_3  and  C_4
REMARK    4  A    between atoms: C_4  and  O_6
REMARK    5  A    between atoms: O_6  and  C_7
REMARK    6  A    between atoms: C_9  and  C_10
REMARK    7  A    between atoms: N_18  and  C_19
REMARK                            x       y       z     vdW  Elec       q    Type
REMARK                         _______ _______ _______ _____ _____    ______ ____
ROOT
ATOM      1  C   UNL     1       5.847   4.773  17.435  0.00  0.00    +0.000 C 
ATOM      2  N   UNL     1       5.329   3.808  18.452  0.00  0.00    +0.000 NA
ATOM      3  C   UNL     1       4.006   3.338  18.012  0.00  0.00    +0.000 C 
ATOM      4  C   UNL     1       3.450   4.390  17.066  0.00  0.00    +0.000 C 
ATOM      5  C   UNL     1       2.353   5.236  17.647  0.00  0.00    +0.000 C 
ATOM      6  O   UNL     1       1.183   4.871  17.628  0.00  0.00    +0.000 OA
ATOM      7  N   UNL     1       2.893   6.424  18.085  0.00  0.00    +0.000 N 
ATOM      8  C   UNL     1       4.099   6.643  17.457  0.00  0.00    +0.000 C 
ATOM      9  O   UNL     1       4.709   7.694  17.324  0.00  0.00    +0.000 OA
ATOM     10  C   UNL     1       4.583   5.369  16.804  0.00  0.00    +0.000 C 
ATOM     11  H   UNL     1       5.221   4.295  19.351  0.00  0.00    +0.000 HD
ENDROOT
BRANCH   7  12
ATOM     12  C   UNL     1       2.211   7.378  18.912  0.00  0.00    +0.000 A 
ATOM     13  C   UNL     1       2.000   7.149  20.284  0.00  0.00    +0.000 A 
ATOM     14  C   UNL     1       1.352   8.090  21.096  0.00  0.00    +0.000 A 
ATOM     15  C   UNL     1       0.917   9.286  20.550  0.00  0.00    +0.000 A 
ATOM     16  F   UNL     1       0.295  10.186  21.323  0.00  0.00    +0.000 F 
ATOM     17  C   UNL     1       1.127   9.562  19.211  0.00  0.00    +0.000 A 
ATOM     18  C   UNL     1       1.777   8.617  18.404  0.00  0.00    +0.000 A 
ENDBRANCH   7  12
BRANCH   3  19
ATOM     19  C   UNL     1       3.154   2.980  19.182  0.00  0.00    +0.000 A 
ATOM     20  C   UNL     1       2.143   2.062  19.371  0.00  0.00    +0.000 A 
ATOM     21  C   UNL     1       1.783   2.141  20.739  0.00  0.00    +0.000 A 
ATOM     22  C   UNL     1       2.573   3.122  21.289  0.00  0.00    +0.000 A 
ATOM     23  O   UNL     1       3.396   3.653  20.348  0.00  0.00    +0.000 OA
ENDBRANCH   3  19
BRANCH   1  25
ATOM     24  C   UNL     1       6.417   4.021  14.985  0.00  0.00    +0.000 C 
ATOM     25  C   UNL     1       6.693   3.890  16.477  0.00  0.00    +0.000 C 
ENDBRANCH   1  25
BRANCH   1  26
ATOM     26  C   UNL     1       6.756   5.839  18.114  0.00  0.00    +0.000 C 
ATOM     27  O   UNL     1       6.850   6.000  19.324  0.00  0.00    +0.000 OA
BRANCH  26  28
ATOM     28  O   UNL     1       7.467   6.552  17.190  0.00  0.00    +0.000 OA
ATOM     29  C   UNL     1       7.889   7.836  17.657  0.00  0.00    +0.000 C 
ENDBRANCH  26  28
ENDBRANCH   1  26
TORSDOF 5
ENDMDL
MODEL 4
REMARK VINA RESULT:      -7.9      0.734      1.143
REMARK  Name = 
REMARK  7 active torsions:
REMARK  status: ('A' for Active; 'I' for Inactive)
REMARK    1  A    between atoms: C_1  and  C_2
REMARK    2  A    between atoms: C_2  and  C_3
REMARK    3  A    between atoms: C_3  and  C_4
REMARK    4  A    between atoms: C_4  and  O_6
REMARK    5  A    between atoms: O_6  and  C_7
REMARK    6  A    between atoms: C_9  and  C_10
REMARK    7  A    between atoms: N_18  and  C_19
REMARK                            x       y       z     vdW  Elec       q    Type
REMARK                         _______ _______ _______ _____ _____    ______ ____
ROOT
ATOM      1  C   UNL     1       5.870   4.765  17.050  0.00  0.00    +0.000 C 
ATOM      2  N   UNL     1       5.454   3.825  18.136  0.00  0.00    +0.000 NA
ATOM      3  C   UNL     1       4.109   3.320  17.820  0.00  0.00    +0.000 C 
ATOM      4  C   UNL     1       3.458   4.330  16.890  0.00  0.00    +0.000 C 
ATOM      5  C   UNL     1       2.396   5.178  17.531  0.00  0.00    +0.000 C 
ATOM      6  O   UNL     1       1.236   4.793  17.619  0.00  0.00    +0.000 OA
ATOM      7  N   UNL     1       2.948   6.388  17.887  0.00  0.00    +0.000 N 
ATOM      8  C   UNL     1       4.094   6.605  17.156  0.00  0.00    +0.000 C 
ATOM      9  O   UNL     1       4.672   7.662  16.940  0.00  0.00    +0.000 OA
ATOM     10  C   UNL     1       4.549   5.319  16.506  0.00  0.00    +0.000 C 
ATOM     11  H   UNL     1       5.409   4.340  19.025  0.00  0.00    +0.000 HD
ENDROOT
BRANCH   7  12
ATOM     12  C   UNL     1       2.316   7.357  18.735  0.00  0.00    +0.000 A 
ATOM     13  C   UNL     1       1.801   8.562  18.224  0.00  0.00    +0.000 A 
ATOM     14  C   UNL     1       1.166   9.500  19.050  0.00  0.00    +0.000 A 
ATOM     15  C   UNL     1       1.020   9.240  20.402  0.00  0.00    +0.000 A 
ATOM     16  F   UNL     1       0.416  10.135  21.194  0.00  0.00    +0.000 F 
ATOM     17  C   UNL     1       1.490   8.056  20.941  0.00  0.00    +0.000 A 
ATOM     18  C   UNL     1       2.124   7.120  20.110  0.00  0.00    +0.000 A 
ENDBRANCH   7  12
BRANCH   3  19
ATOM     19  C   UNL     1       3.361   2.987  19.066  0.00  0.00    +0.000 A 
ATOM     20  C   UNL     1       2.391   2.054  19.368  0.00  0.00    +0.000 A 
ATOM     21  C   UNL     1       2.138   2.176  20.756  0.00  0.00    +0.000 A 
ATOM     22  C   UNL     1       2.945   3.194  21.206  0.00  0.00    +0.000 A 
ATOM     23  O   UNL     1       3.677   3.707  20.185  0.00  0.00    +0.000 OA
ENDBRANCH   3  19
BRANCH   1  25
ATOM     24  C   UNL     1       6.207   3.888  14.599  0.00  0.00    +0.000 C 
ATOM     25  C   UNL     1       6.652   3.865  16.055  0.00  0.00    +0.000 C 
ENDBRANCH   1  25
BRANCH   1  26
ATOM     26  C   UNL     1       6.811   5.867  17.620  0.00  0.00    +0.000 C 
ATOM     27  O   UNL     1       7.502   6.610  16.935  0.00  0.00    +0.000 OA
BRANCH  26  28
ATOM     28  O   UNL     1       6.744   5.926  18.983  0.00  0.00    +0.000 OA
ATOM     29  C   UNL     1       7.981   5.623  19.633  0.00  0.00    +0.000 C 
ENDBRANCH  26  28
ENDBRANCH   1  26
TORSDOF 5
ENDMDL
MODEL 5
REMARK VINA RESULT:      -6.1      7.944     10.566
REMARK  Name = 
REMARK  7 active torsions:
REMARK  status: ('A' for Active; 'I' for Inactive)
REMARK    1  A    between atoms: C_1  and  C_2
REMARK    2  A    between atoms: C_2  and  C_3
REMARK    3  A    between atoms: C_3  and  C_4
REMARK    4  A    between atoms: C_4  and  O_6
REMARK    5  A    between atoms: O_6  and  C_7
REMARK    6  A    between atoms: C_9  and  C_10
REMARK    7  A    between atoms: N_18  and  C_19
REMARK                            x       y       z     vdW  Elec       q    Type
REMARK                         _______ _______ _______ _____ _____    ______ ____
ROOT
ATOM      1  C   UNL     1      10.219  13.758  17.989  0.00  0.00    +0.000 C 
ATOM      2  N   UNL     1       8.875  14.300  17.622  0.00  0.00    +0.000 NA
ATOM      3  C   UNL     1       8.656  15.543  18.377  0.00  0.00    +0.000 C 
ATOM      4  C   UNL     1       9.557  15.489  19.600  0.00  0.00    +0.000 C 
ATOM      5  C   UNL     1       8.841  15.220  20.893  0.00  0.00    +0.000 C 
ATOM      6  O   UNL     1       8.329  16.124  21.543  0.00  0.00    +0.000 OA
ATOM      7  N   UNL     1       8.950  13.880  21.190  0.00  0.00    +0.000 N 
ATOM      8  C   UNL     1      10.016  13.340  20.506  0.00  0.00    +0.000 C 
ATOM      9  O   UNL     1      10.627  12.307  20.739  0.00  0.00    +0.000 OA
ATOM     10  C   UNL     1      10.460  14.280  19.409  0.00  0.00    +0.000 C 
ATOM     11  H   UNL     1       8.154  13.619  17.896  0.00  0.00    +0.000 HD
ENDROOT
BRANCH   7  12
ATOM     12  C   UNL     1       8.197  13.203  22.207  0.00  0.00    +0.000 A 
ATOM     13  C   UNL     1       6.796  13.306  22.279  0.00  0.00    +0.000 A 
ATOM     14  C   UNL     1       6.058  12.629  23.260  0.00  0.00    +0.000 A 
ATOM     15  C   UNL     1       6.710  11.821  24.176  0.00  0.00    +0.000 A 
ATOM     16  F   UNL     1       6.008  11.174  25.116  0.00  0.00    +0.000 F 
ATOM     17  C   UNL     1       8.084  11.672  24.124  0.00  0.00    +0.000 A 
ATOM     18  C   UNL     1       8.818  12.352  23.141  0.00  0.00    +0.000 A 
ENDBRANCH   7  12
BRANCH   3  19
ATOM     19  C   UNL     1       7.203  15.760  18.632  0.00  0.00    +0.000 A 
ATOM     20  C   UNL     1       6.136  14.906  18.820  0.00  0.00    +0.000 A 
ATOM     21  C   UNL     1       5.015  15.724  19.105  0.00  0.00    +0.000 A 
ATOM     22  C   UNL     1       5.460  17.022  19.041  0.00  0.00    +0.000 A 
ATOM     23  O   UNL     1       6.782  17.057  18.735  0.00  0.00    +0.000 OA
ENDBRANCH   3  19
BRANCH   1  25
ATOM     24  C   UNL     1      12.325  15.212  17.403  0.00  0.00    +0.000 C 
ATOM     25  C   UNL     1      11.168  14.351  16.912  0.00  0.00    +0.000 C 
ENDBRANCH   1  25
BRANCH   1  26
ATOM     26  C   UNL     1      10.220  12.204  17.897  0.00  0.00    +0.000 C 
ATOM     27  O   UNL     1      11.228  11.514  17.818  0.00  0.00    +0.000 OA
BRANCH  26  28
ATOM     28  O   UNL     1       8.951  11.699  17.950  0.00  0.00    +0.000 OA
ATOM     29  C   UNL     1       8.896  10.324  18.336  0.00  0.00    +0.000 C 
ENDBRANCH  26  28
ENDBRANCH   1  26
TORSDOF 5
ENDMDL
MODEL 6
REMARK VINA RESULT:      -6.0      7.113      9.371
REMARK  Name = 
REMARK  7 active torsions:
REMARK  status: ('A' for Active; 'I' for Inactive)
REMARK    1  A    between atoms: C_1  and  C_2
REMARK    2  A    between atoms: C_2  and  C_3
REMARK    3  A    between atoms: C_3  and  C_4
REMARK    4  A    between atoms: C_4  and  O_6
REMARK    5  A    between atoms: O_6  and  C_7
REMARK    6  A    between atoms: C_9  and  C_10
REMARK    7  A    between atoms: N_18  and  C_19
REMARK                            x       y       z     vdW  Elec       q    Type
REMARK                         _______ _______ _______ _____ _____    ______ ____
ROOT
ATOM      1  C   UNL     1       1.408  14.032  20.415  0.00  0.00    +0.000 C 
ATOM      2  N   UNL     1       1.578  12.771  21.200  0.00  0.00    +0.000 NA
ATOM      3  C   UNL     1       1.149  11.643  20.359  0.00  0.00    +0.000 C 
ATOM      4  C   UNL     1       0.204  12.200  19.309  0.00  0.00    +0.000 C 
ATOM      5  C   UNL     1      -1.246  11.875  19.535  0.00  0.00    +0.000 C 
ATOM      6  O   UNL     1      -1.734  10.821  19.145  0.00  0.00    +0.000 OA
ATOM      7  N   UNL     1      -1.853  12.950  20.145  0.00  0.00    +0.000 N 
ATOM      8  C   UNL     1      -1.105  14.086  19.929  0.00  0.00    +0.000 C 
ATOM      9  O   UNL     1      -1.453  15.255  20.014  0.00  0.00    +0.000 OA
ATOM     10  C   UNL     1       0.274  13.714  19.434  0.00  0.00    +0.000 C 
ATOM     11  H   UNL     1       0.972  12.809  22.030  0.00  0.00    +0.000 HD
ENDROOT
BRANCH   7  12
ATOM     12  C   UNL     1      -3.159  12.925  20.737  0.00  0.00    +0.000 A 
ATOM     13  C   UNL     1      -4.320  12.774  19.956  0.00  0.00    +0.000 A 
ATOM     14  C   UNL     1      -5.596  12.728  20.536  0.00  0.00    +0.000 A 
ATOM     15  C   UNL     1      -5.730  12.817  21.911  0.00  0.00    +0.000 A 
ATOM     16  F   UNL     1      -6.948  12.777  22.467  0.00  0.00    +0.000 F 
ATOM     17  C   UNL     1      -4.613  12.941  22.716  0.00  0.00    +0.000 A 
ATOM     18  C   UNL     1      -3.339  12.985  22.132  0.00  0.00    +0.000 A 
ENDBRANCH   7  12
BRANCH   3  19
ATOM     19  C   UNL     1       0.627  10.526  21.197  0.00  0.00    +0.000 A 
ATOM     20  C   UNL     1       0.557   9.160  21.019  0.00  0.00    +0.000 A 
ATOM     21  C   UNL     1       0.026   8.627  22.219  0.00  0.00    +0.000 A 
ATOM     22  C   UNL     1      -0.223   9.701  23.040  0.00  0.00    +0.000 A 
ATOM     23  O   UNL     1       0.119  10.861  22.423  0.00  0.00    +0.000 OA
ENDBRANCH   3  19
BRANCH   1  25
ATOM     24  C   UNL     1       2.807  14.661  18.285  0.00  0.00    +0.000 C 
ATOM     25  C   UNL     1       2.795  14.251  19.752  0.00  0.00    +0.000 C 
ENDBRANCH   1  25
BRANCH   1  26
ATOM     26  C   UNL     1       1.083  15.221  21.366  0.00  0.00    +0.000 C 
ATOM     27  O   UNL     1       1.185  16.402  21.060  0.00  0.00    +0.000 OA
BRANCH  26  28
ATOM     28  O   UNL     1       0.634  14.782  22.580  0.00  0.00    +0.000 OA
ATOM     29  C   UNL     1      -0.267  15.689  23.221  0.00  0.00    +0.000 C 
ENDBRANCH  26  28
ENDBRANCH   1  26
TORSDOF 5
ENDMDL
MODEL 7
REMARK VINA RESULT:      -6.0      8.319     12.230
REMARK  Name = 
REMARK  7 active torsions:
REMARK  status: ('A' for Active; 'I' for Inactive)
REMARK    1  A    between atoms: C_1  and  C_2
REMARK    2  A    between atoms: C_2  and  C_3
REMARK    3  A    between atoms: C_3  and  C_4
REMARK    4  A    between atoms: C_4  and  O_6
REMARK    5  A    between atoms: O_6  and  C_7
REMARK    6  A    between atoms: C_9  and  C_10
REMARK    7  A    between atoms: N_18  and  C_19
REMARK                            x       y       z     vdW  Elec       q    Type
REMARK                         _______ _______ _______ _____ _____    ______ ____
ROOT
ATOM      1  C   UNL     1      -2.910  16.119  22.929  0.00  0.00    +0.000 C 
ATOM      2  N   UNL     1      -4.077  15.622  22.138  0.00  0.00    +0.000 NA
ATOM      3  C   UNL     1      -4.810  14.646  22.959  0.00  0.00    +0.000 C 
ATOM      4  C   UNL     1      -3.836  14.109  23.993  0.00  0.00    +0.000 C 
ATOM      5  C   UNL     1      -3.355  12.709  23.732  0.00  0.00    +0.000 C 
ATOM      6  O   UNL     1      -3.995  11.732  24.103  0.00  0.00    +0.000 OA
ATOM      7  N   UNL     1      -2.123  12.770  23.119  0.00  0.00    +0.000 N 
ATOM      8  C   UNL     1      -1.547  13.997  23.361  0.00  0.00    +0.000 C 
ATOM      9  O   UNL     1      -0.369  14.314  23.279  0.00  0.00    +0.000 OA
ATOM     10  C   UNL     1      -2.583  14.964  23.883  0.00  0.00    +0.000 C 
ATOM     11  H   UNL     1      -3.731  15.145  21.295  0.00  0.00    +0.000 HD
ENDROOT
BRANCH   7  12
ATOM     12  C   UNL     1      -1.462  11.658  22.499  0.00  0.00    +0.000 A 
ATOM     13  C   UNL     1      -1.182  11.641  21.120  0.00  0.00    +0.000 A 
ATOM     14  C   UNL     1      -0.517  10.564  20.518  0.00  0.00    +0.000 A 
ATOM     15  C   UNL     1      -0.107   9.489  21.290  0.00  0.00    +0.000 A 
ATOM     16  F   UNL     1       0.526   8.457  20.716  0.00  0.00    +0.000 F 
ATOM     17  C   UNL     1      -0.341   9.478  22.653  0.00  0.00    +0.000 A 
ATOM     18  C   UNL     1      -1.005  10.559  23.251  0.00  0.00    +0.000 A 
ENDBRANCH   7  12
BRANCH   3  19
ATOM     19  C   UNL     1      -5.491  13.636  22.099  0.00  0.00    +0.000 A 
ATOM     20  C   UNL     1      -5.183  13.065  20.883  0.00  0.00    +0.000 A 
ATOM     21  C   UNL     1      -6.190  12.101  20.627  0.00  0.00    +0.000 A 
ATOM     22  C   UNL     1      -7.063  12.168  21.686  0.00  0.00    +0.000 A 
ATOM     23  O   UNL     1      -6.661  13.110  22.577  0.00  0.00    +0.000 OA
ENDBRANCH   3  19
BRANCH   1  25
ATOM     24  C   UNL     1      -3.209  17.529  25.124  0.00  0.00    +0.000 C 
ATOM     25  C   UNL     1      -3.448  17.399  23.625  0.00  0.00    +0.000 C 
ENDBRANCH   1  25
BRANCH   1  26
ATOM     26  C   UNL     1      -1.731  16.487  21.982  0.00  0.00    +0.000 C 
ATOM     27  O   UNL     1      -0.785  17.198  22.297  0.00  0.00    +0.000 OA
BRANCH  26  28
ATOM     28  O   UNL     1      -1.865  15.889  20.761  0.00  0.00    +0.000 OA
ATOM     29  C   UNL     1      -0.637  15.776  20.039  0.00  0.00    +0.000 C 
ENDBRANCH  26  28
ENDBRANCH   1  26
TORSDOF 5
ENDMDL
MODEL 8
REMARK VINA RESULT:      -5.9      8.995     11.369
REMARK  Name = 
REMARK  7 active torsions:
REMARK  status: ('A' for Active; 'I' for Inactive)
REMARK    1  A    between atoms: C_1  and  C_2
REMARK    2  A    between atoms: C_2  and  C_3
REMARK    3  A    between atoms: C_3  and  C_4
REMARK    4  A    between atoms: C_4  and  O_6
REMARK    5  A    between atoms: O_6  and  C_7
REMARK    6  A    between atoms: C_9  and  C_10
REMARK    7  A    between atoms: N_18  and  C_19
REMARK                            x       y       z     vdW  Elec       q    Type
REMARK                         _______ _______ _______ _____ _____    ______ ____
ROOT
ATOM      1  C   UNL     1      10.441  15.141  17.792  0.00  0.00    +0.000 C 
ATOM      2  N   UNL     1       8.987  15.328  17.497  0.00  0.00    +0.000 NA
ATOM      3  C   UNL     1       8.484  16.431  18.330  0.00  0.00    +0.000 C 
ATOM      4  C   UNL     1       9.420  16.556  19.520  0.00  0.00    +0.000 C 
ATOM      5  C   UNL     1       8.856  16.044  20.816  0.00  0.00    +0.000 C 
ATOM      6  O   UNL     1       8.155  16.749  21.532  0.00  0.00    +0.000 OA
ATOM      7  N   UNL     1       9.324  14.767  21.030  0.00  0.00    +0.000 N 
ATOM      8  C   UNL     1      10.464  14.562  20.285  0.00  0.00    +0.000 C 
ATOM      9  O   UNL     1      11.333  13.716  20.440  0.00  0.00    +0.000 OA
ATOM     10  C   UNL     1      10.598  15.638  19.233  0.00  0.00    +0.000 C 
ATOM     11  H   UNL     1       8.481  14.469  17.751  0.00  0.00    +0.000 HD
ENDROOT
BRANCH   7  12
ATOM     12  C   UNL     1       8.819  13.868  22.027  0.00  0.00    +0.000 A 
ATOM     13  C   UNL     1       8.387  12.570  21.698  0.00  0.00    +0.000 A 
ATOM     14  C   UNL     1       7.913  11.683  22.675  0.00  0.00    +0.000 A 
ATOM     15  C   UNL     1       7.879  12.075  24.002  0.00  0.00    +0.000 A 
ATOM     16  F   UNL     1       7.423  11.231  24.937  0.00  0.00    +0.000 F 
ATOM     17  C   UNL     1       8.318  13.334  24.371  0.00  0.00    +0.000 A 
ATOM     18  C   UNL     1       8.792  14.217  23.391  0.00  0.00    +0.000 A 
ENDBRANCH   7  12
BRANCH   3  19
ATOM     19  C   UNL     1       7.037  16.245  18.639  0.00  0.00    +0.000 A 
ATOM     20  C   UNL     1       6.246  15.132  18.834  0.00  0.00    +0.000 A 
ATOM     21  C   UNL     1       4.959  15.613  19.182  0.00  0.00    +0.000 A 
ATOM     22  C   UNL     1       5.039  16.985  19.146  0.00  0.00    +0.000 A 
ATOM     23  O   UNL     1       6.291  17.380  18.798  0.00  0.00    +0.000 OA
ENDBRANCH   3  19
BRANCH   1  25
ATOM     24  C   UNL     1      12.326  16.869  17.195  0.00  0.00    +0.000 C 
ATOM     25  C   UNL     1      11.154  16.016  16.725  0.00  0.00    +0.000 C 
ENDBRANCH   1  25
BRANCH   1  26
ATOM     26  C   UNL     1      10.843  13.649  17.609  0.00  0.00    +0.000 C 
ATOM     27  O   UNL     1      11.995  13.252  17.480  0.00  0.00    +0.000 OA
BRANCH  26  28
ATOM     28  O   UNL     1       9.751  12.828  17.645  0.00  0.00    +0.000 OA
ATOM     29  C   UNL     1      10.060  11.477  17.994  0.00  0.00    +0.000 C 
ENDBRANCH  26  28
ENDBRANCH   1  26
TORSDOF 5
ENDMDL
MODEL 9
REMARK VINA RESULT:      -5.9      7.720     11.249
REMARK  Name = 
REMARK  7 active torsions:
REMARK  status: ('A' for Active; 'I' for Inactive)
REMARK    1  A    between atoms: C_1  and  C_2
REMARK    2  A    between atoms: C_2  and  C_3
REMARK    3  A    between atoms: C_3  and  C_4
REMARK    4  A    between atoms: C_4  and  O_6
REMARK    5  A    between atoms: O_6  and  C_7
REMARK    6  A    between atoms: C_9  and  C_10
REMARK    7  A    between atoms: N_18  and  C_19
REMARK                            x       y       z     vdW  Elec       q    Type
REMARK                         _______ _______ _______ _____ _____    ______ ____
ROOT
ATOM      1  C   UNL     1      -1.814  15.855  21.402  0.00  0.00    +0.000 C 
ATOM      2  N   UNL     1      -2.986  15.322  20.642  0.00  0.00    +0.000 NA
ATOM      3  C   UNL     1      -3.884  14.647  21.591  0.00  0.00    +0.000 C 
ATOM      4  C   UNL     1      -3.048  14.255  22.798  0.00  0.00    +0.000 C 
ATOM      5  C   UNL     1      -2.735  12.788  22.892  0.00  0.00    +0.000 C 
ATOM      6  O   UNL     1      -3.514  11.999  23.411  0.00  0.00    +0.000 OA
ATOM      7  N   UNL     1      -1.472  12.571  22.389  0.00  0.00    +0.000 N 
ATOM      8  C   UNL     1      -0.759  13.749  22.405  0.00  0.00    +0.000 C 
ATOM      9  O   UNL     1       0.452  13.907  22.356  0.00  0.00    +0.000 OA
ATOM     10  C   UNL     1      -1.693  14.919  22.610  0.00  0.00    +0.000 C 
ATOM     11  H   UNL     1      -2.654  14.631  19.957  0.00  0.00    +0.000 HD
ENDROOT
BRANCH   7  12
ATOM     12  C   UNL     1      -0.922  11.281  22.087  0.00  0.00    +0.000 A 
ATOM     13  C   UNL     1      -0.598  10.906  20.770  0.00  0.00    +0.000 A 
ATOM     14  C   UNL     1      -0.042   9.653  20.477  0.00  0.00    +0.000 A 
ATOM     15  C   UNL     1       0.215   8.758  21.502  0.00  0.00    +0.000 A 
ATOM     16  F   UNL     1       0.744   7.559  21.225  0.00  0.00    +0.000 F 
ATOM     17  C   UNL     1      -0.065   9.097  22.813  0.00  0.00    +0.000 A 
ATOM     18  C   UNL     1      -0.620  10.352  23.101  0.00  0.00    +0.000 A 
ENDBRANCH   7  12
BRANCH   3  19
ATOM     19  C   UNL     1      -4.636  13.549  20.919  0.00  0.00    +0.000 A 
ATOM     20  C   UNL     1      -5.890  13.006  21.107  0.00  0.00    +0.000 A 
ATOM     21  C   UNL     1      -6.063  12.036  20.089  0.00  0.00    +0.000 A 
ATOM     22  C   UNL     1      -4.894  12.027  19.365  0.00  0.00    +0.000 A 
ATOM     23  O   UNL     1      -4.013  12.926  19.872  0.00  0.00    +0.000 OA
ENDBRANCH   3  19
BRANCH   1  25
ATOM     24  C   UNL     1      -1.908  17.806  23.157  0.00  0.00    +0.000 C 
ATOM     25  C   UNL     1      -2.225  17.311  21.751  0.00  0.00    +0.000 C 
ENDBRANCH   1  25
BRANCH   1  26
ATOM     26  C   UNL     1      -0.544  15.864  20.502  0.00  0.00    +0.000 C 
ATOM     27  O   UNL     1       0.467  16.515  20.736  0.00  0.00    +0.000 OA
BRANCH  26  28
ATOM     28  O   UNL     1      -0.683  15.026  19.432  0.00  0.00    +0.000 OA
ATOM     29  C   UNL     1       0.560  14.540  18.918  0.00  0.00    +0.000 C 
ENDBRANCH  26  28
ENDBRANCH   1  26
TORSDOF 5
ENDMDL
