MODEL 1
REMARK VINA RESULT:      -8.7      0.000      0.000
REMARK  Name = 
REMARK  7 active torsions:
REMARK  status: ('A' for Active; 'I' for Inactive)
REMARK    1  A    between atoms: C_1  and  C_2
REMARK    2  A    between atoms: C_2  and  C_3
REMARK    3  A    between atoms: C_6  and  O_7
REMARK    4  A    between atoms: O_7  and  C_8
REMARK    5  A    between atoms: N_16  and  C_17
REMARK    6  A    between atoms: C_17  and  C_18
REMARK    7  A    between atoms: N_20  and  C_21
REMARK                            x       y       z     vdW  Elec       q    Type
REMARK                         _______ _______ _______ _____ _____    ______ ____
ROOT
ATOM      1  C   UNL     1       6.899   6.517  17.823  0.00  0.00    +0.000 C 
ATOM      2  C   UNL     1       6.002   5.336  17.449  0.00  0.00    +0.000 C 
ATOM      3  N   UNL     1       6.176   4.251  18.395  0.00  0.00    +0.000 N 
ATOM      4  C   UNL     1       4.988   3.849  18.951  0.00  0.00    +0.000 C 
ATOM      5  O   UNL     1       4.835   2.813  19.574  0.00  0.00    +0.000 OA
ATOM      6  N   UNL     1       4.029   4.751  18.635  0.00  0.00    +0.000 N 
ATOM      7  C   UNL     1       4.513   5.663  17.735  0.00  0.00    +0.000 C 
ATOM      8  O   UNL     1       3.858   6.553  17.209  0.00  0.00    +0.000 OA
ATOM      9  H   UNL     1       7.003   3.673  18.469  0.00  0.00    +0.000 HD
ENDROOT
BRANCH   2  10
ATOM     10  C   UNL     1       6.198   4.897  15.999  0.00  0.00    +0.000 A 
ATOM     11  C   UNL     1       7.370   5.189  15.274  0.00  0.00    +0.000 A 
ATOM     12  C   UNL     1       7.506   4.770  13.946  0.00  0.00    +0.000 A 
ATOM     13  C   UNL     1       6.499   4.036  13.317  0.00  0.00    +0.000 A 
ATOM     14  C   UNL     1       5.325   3.757  14.011  0.00  0.00    +0.000 A 
ATOM     15  C   UNL     1       5.184   4.176  15.337  0.00  0.00    +0.000 A 
BRANCH  13  16
ATOM     16  O   UNL     1       6.769   3.675  12.031  0.00  0.00    +0.000 OA
BRANCH  16  17
ATOM     17  C   UNL     1       6.691   2.283  11.770  0.00  0.00    +0.000 C 
ATOM     18  F   UNL     1       5.499   2.020  11.181  0.00  0.00    +0.000 F 
ATOM     19  F   UNL     1       7.651   1.992  10.858  0.00  0.00    +0.000 F 
ENDBRANCH  16  17
ENDBRANCH  13  16
ENDBRANCH   2  10
BRANCH   6  20
ATOM     20  C   UNL     1       2.652   4.704  19.082  0.00  0.00    +0.000 C 
BRANCH  20  21
ATOM     21  C   UNL     1       2.327   5.857  20.021  0.00  0.00    +0.000 C 
ATOM     22  O   UNL     1       2.363   5.717  21.241  0.00  0.00    +0.000 OA
ATOM     23  N   UNL     1       1.809   6.974  19.391  0.00  0.00    +0.000 N 
ATOM     24  H   UNL     1       1.357   6.819  18.495  0.00  0.00    +0.000 HD
BRANCH  23  25
ATOM     25  C   UNL     1       1.533   8.181  20.041  0.00  0.00    +0.000 A 
ATOM     26  C   UNL     1       1.475   9.420  19.351  0.00  0.00    +0.000 A 
ATOM     27  C   UNL     1       0.988  10.559  19.992  0.00  0.00    +0.000 A 
ATOM     28  C   UNL     1       0.581  10.428  21.297  0.00  0.00    +0.000 A 
ATOM     29  C   UNL     1       0.718   9.239  21.982  0.00  0.00    +0.000 A 
ATOM     30  C   UNL     1       1.191   8.101  21.386  0.00  0.00    +0.000 A 
ATOM     31  O   UNL     1       0.215   9.307  23.245  0.00  0.00    +0.000 OA
ATOM     32  C   UNL     1      -0.592  10.485  23.085  0.00  0.00    +0.000 C 
ATOM     33  O   UNL     1      -0.092  11.351  22.042  0.00  0.00    +0.000 OA
ENDBRANCH  23  25
ENDBRANCH  20  21
ENDBRANCH   6  20
TORSDOF 6
ENDMDL
MODEL 2
REMARK VINA RESULT:      -8.4      5.343      8.250
REMARK  Name = 
REMARK  7 active torsions:
REMARK  status: ('A' for Active; 'I' for Inactive)
REMARK    1  A    between atoms: C_1  and  C_2
REMARK    2  A    between atoms: C_2  and  C_3
REMARK    3  A    between atoms: C_6  and  O_7
REMARK    4  A    between atoms: O_7  and  C_8
REMARK    5  A    between atoms: N_16  and  C_17
REMARK    6  A    between atoms: C_17  and  C_18
REMARK    7  A    between atoms: N_20  and  C_21
REMARK                            x       y       z     vdW  Elec       q    Type
REMARK                         _______ _______ _______ _____ _____    ______ ____
ROOT
ATOM      1  C   UNL     1       3.430   4.491  17.565  0.00  0.00    +0.000 C 
ATOM      2  C   UNL     1       4.128   5.658  18.266  0.00  0.00    +0.000 C 
ATOM      3  N   UNL     1       4.926   5.175  19.376  0.00  0.00    +0.000 N 
ATOM      4  C   UNL     1       6.232   5.585  19.296  0.00  0.00    +0.000 C 
ATOM      5  O   UNL     1       7.032   5.523  20.214  0.00  0.00    +0.000 OA
ATOM      6  N   UNL     1       6.450   6.118  18.071  0.00  0.00    +0.000 N 
ATOM      7  C   UNL     1       5.269   6.229  17.385  0.00  0.00    +0.000 C 
ATOM      8  O   UNL     1       5.139   6.741  16.281  0.00  0.00    +0.000 OA
ATOM      9  H   UNL     1       4.553   4.804  20.240  0.00  0.00    +0.000 HD
ENDROOT
BRANCH   2  10
ATOM     10  C   UNL     1       3.148   6.757  18.673  0.00  0.00    +0.000 A 
ATOM     11  C   UNL     1       2.822   7.831  17.821  0.00  0.00    +0.000 A 
ATOM     12  C   UNL     1       1.922   8.818  18.235  0.00  0.00    +0.000 A 
ATOM     13  C   UNL     1       1.310   8.753  19.488  0.00  0.00    +0.000 A 
ATOM     14  C   UNL     1       1.637   7.712  20.353  0.00  0.00    +0.000 A 
ATOM     15  C   UNL     1       2.537   6.725  19.943  0.00  0.00    +0.000 A 
BRANCH  13  16
ATOM     16  O   UNL     1       0.441   9.768  19.756  0.00  0.00    +0.000 OA
BRANCH  16  17
ATOM     17  C   UNL     1      -0.209  10.316  18.620  0.00  0.00    +0.000 C 
ATOM     18  F   UNL     1      -1.545  10.136  18.758  0.00  0.00    +0.000 F 
ATOM     19  F   UNL     1       0.011  11.654  18.640  0.00  0.00    +0.000 F 
ENDBRANCH  16  17
ENDBRANCH  13  16
ENDBRANCH   2  10
BRANCH   6  20
ATOM     20  C   UNL     1       7.721   6.615  17.584  0.00  0.00    +0.000 C 
BRANCH  20  21
ATOM     21  C   UNL     1       7.833   8.124  17.747  0.00  0.00    +0.000 C 
ATOM     22  O   UNL     1       7.229   8.894  17.005  0.00  0.00    +0.000 OA
ATOM     23  N   UNL     1       8.803   8.527  18.646  0.00  0.00    +0.000 N 
ATOM     24  H   UNL     1       9.561   7.873  18.817  0.00  0.00    +0.000 HD
BRANCH  23  25
ATOM     25  C   UNL     1       9.013   9.856  19.028  0.00  0.00    +0.000 A 
ATOM     26  C   UNL     1       9.293  10.227  20.368  0.00  0.00    +0.000 A 
ATOM     27  C   UNL     1       9.707  11.525  20.667  0.00  0.00    +0.000 A 
ATOM     28  C   UNL     1       9.823  12.410  19.623  0.00  0.00    +0.000 A 
ATOM     29  C   UNL     1       9.470  12.061  18.335  0.00  0.00    +0.000 A 
ATOM     30  C   UNL     1       9.061  10.797  18.006  0.00  0.00    +0.000 A 
ATOM     31  O   UNL     1       9.702  13.064  17.444  0.00  0.00    +0.000 OA
ATOM     32  C   UNL     1      10.598  13.852  18.246  0.00  0.00    +0.000 C 
ATOM     33  O   UNL     1      10.383  13.653  19.661  0.00  0.00    +0.000 OA
ENDBRANCH  23  25
ENDBRANCH  20  21
ENDBRANCH   6  20
TORSDOF 6
ENDMDL
MODEL 3
REMARK VINA RESULT:      -8.3      5.397      7.742
REMARK  Name = 
REMARK  7 active torsions:
REMARK  status: ('A' for Active; 'I' for Inactive)
REMARK    1  A    between atoms: C_1  and  C_2
REMARK    2  A    between atoms: C_2  and  C_3
REMARK    3  A    between atoms: C_6  and  O_7
REMARK    4  A    between atoms: O_7  and  C_8
REMARK    5  A    between atoms: N_16  and  C_17
REMARK    6  A    between atoms: C_17  and  C_18
REMARK    7  A    between atoms: N_20  and  C_21
REMARK                            x       y       z     vdW  Elec       q    Type
REMARK                         _______ _______ _______ _____ _____    ______ ____
ROOT
ATOM      1  C   UNL     1       5.314   5.222  15.296  0.00  0.00    +0.000 C 
ATOM      2  C   UNL     1       5.649   4.927  16.759  0.00  0.00    +0.000 C 
ATOM      3  N   UNL     1       6.866   4.144  16.851  0.00  0.00    +0.000 N 
ATOM      4  C   UNL     1       7.802   4.728  17.665  0.00  0.00    +0.000 C 
ATOM      5  O   UNL     1       8.791   4.161  18.096  0.00  0.00    +0.000 OA
ATOM      6  N   UNL     1       7.407   5.991  17.950  0.00  0.00    +0.000 N 
ATOM      7  C   UNL     1       6.139   6.209  17.483  0.00  0.00    +0.000 C 
ATOM      8  O   UNL     1       5.488   7.232  17.654  0.00  0.00    +0.000 OA
ATOM      9  H   UNL     1       6.953   3.174  16.576  0.00  0.00    +0.000 HD
ENDROOT
BRANCH   2  10
ATOM     10  C   UNL     1       4.477   4.292  17.505  0.00  0.00    +0.000 A 
ATOM     11  C   UNL     1       4.247   4.512  18.877  0.00  0.00    +0.000 A 
ATOM     12  C   UNL     1       3.163   3.907  19.521  0.00  0.00    +0.000 A 
ATOM     13  C   UNL     1       2.272   3.092  18.819  0.00  0.00    +0.000 A 
ATOM     14  C   UNL     1       2.497   2.845  17.468  0.00  0.00    +0.000 A 
ATOM     15  C   UNL     1       3.580   3.445  16.821  0.00  0.00    +0.000 A 
BRANCH  13  16
ATOM     16  O   UNL     1       1.251   2.583  19.563  0.00  0.00    +0.000 OA
BRANCH  16  17
ATOM     17  C   UNL     1       1.029   3.236  20.803  0.00  0.00    +0.000 C 
ATOM     18  F   UNL     1       0.077   4.184  20.628  0.00  0.00    +0.000 F 
ATOM     19  F   UNL     1       0.514   2.315  21.655  0.00  0.00    +0.000 F 
ENDBRANCH  16  17
ENDBRANCH  13  16
ENDBRANCH   2  10
BRANCH   6  20
ATOM     20  C   UNL     1       8.156   6.947  18.740  0.00  0.00    +0.000 C 
BRANCH  20  21
ATOM     21  C   UNL     1       8.357   8.258  17.992  0.00  0.00    +0.000 C 
ATOM     22  O   UNL     1       8.205   8.329  16.776  0.00  0.00    +0.000 OA
ATOM     23  N   UNL     1       8.906   9.270  18.758  0.00  0.00    +0.000 N 
ATOM     24  H   UNL     1       9.448   8.982  19.568  0.00  0.00    +0.000 HD
BRANCH  23  25
ATOM     25  C   UNL     1       9.085  10.582  18.308  0.00  0.00    +0.000 A 
ATOM     26  C   UNL     1       8.042  11.325  17.696  0.00  0.00    +0.000 A 
ATOM     27  C   UNL     1       8.197  12.691  17.460  0.00  0.00    +0.000 A 
ATOM     28  C   UNL     1       9.385  13.269  17.836  0.00  0.00    +0.000 A 
ATOM     29  C   UNL     1      10.422  12.522  18.355  0.00  0.00    +0.000 A 
ATOM     30  C   UNL     1      10.305  11.180  18.601  0.00  0.00    +0.000 A 
ATOM     31  O   UNL     1      11.491  13.289  18.705  0.00  0.00    +0.000 OA
ATOM     32  C   UNL     1      10.829  14.565  18.736  0.00  0.00    +0.000 C 
ATOM     33  O   UNL     1       9.672  14.602  17.872  0.00  0.00    +0.000 OA
ENDBRANCH  23  25
ENDBRANCH  20  21
ENDBRANCH   6  20
TORSDOF 6
ENDMDL
MODEL 4
REMARK VINA RESULT:      -8.3      1.570      2.237
REMARK  Name = 
REMARK  7 active torsions:
REMARK  status: ('A' for Active; 'I' for Inactive)
REMARK    1  A    between atoms: C_1  and  C_2
REMARK    2  A    between atoms: C_2  and  C_3
REMARK    3  A    between atoms: C_6  and  O_7
REMARK    4  A    between atoms: O_7  and  C_8
REMARK    5  A    between atoms: N_16  and  C_17
REMARK    6  A    between atoms: C_17  and  C_18
REMARK    7  A    between atoms: N_20  and  C_21
REMARK                            x       y       z     vdW  Elec       q    Type
REMARK                         _______ _______ _______ _____ _____    ______ ____
ROOT
ATOM      1  C   UNL     1       7.029   6.732  17.782  0.00  0.00    +0.000 C 
ATOM      2  C   UNL     1       5.983   5.662  17.466  0.00  0.00    +0.000 C 
ATOM      3  N   UNL     1       5.980   4.640  18.494  0.00  0.00    +0.000 N 
ATOM      4  C   UNL     1       4.735   4.450  19.037  0.00  0.00    +0.000 C 
ATOM      5  O   UNL     1       4.422   3.497  19.728  0.00  0.00    +0.000 OA
ATOM      6  N   UNL     1       3.920   5.450  18.624  0.00  0.00    +0.000 N 
ATOM      7  C   UNL     1       4.548   6.213  17.676  0.00  0.00    +0.000 C 
ATOM      8  O   UNL     1       4.038   7.144  17.066  0.00  0.00    +0.000 OA
ATOM      9  H   UNL     1       6.715   3.960  18.637  0.00  0.00    +0.000 HD
ENDROOT
BRANCH   2  10
ATOM     10  C   UNL     1       6.148   5.089  16.059  0.00  0.00    +0.000 A 
ATOM     11  C   UNL     1       7.224   5.444  15.221  0.00  0.00    +0.000 A 
ATOM     12  C   UNL     1       7.335   4.899  13.939  0.00  0.00    +0.000 A 
ATOM     13  C   UNL     1       6.400   3.975  13.466  0.00  0.00    +0.000 A 
ATOM     14  C   UNL     1       5.318   3.630  14.272  0.00  0.00    +0.000 A 
ATOM     15  C   UNL     1       5.202   4.175  15.553  0.00  0.00    +0.000 A 
BRANCH  13  16
ATOM     16  O   UNL     1       6.638   3.508  12.209  0.00  0.00    +0.000 OA
BRANCH  16  17
ATOM     17  C   UNL     1       5.878   2.369  11.838  0.00  0.00    +0.000 C 
ATOM     18  F   UNL     1       4.788   2.782  11.148  0.00  0.00    +0.000 F 
ATOM     19  F   UNL     1       6.636   1.644  10.978  0.00  0.00    +0.000 F 
ENDBRANCH  16  17
ENDBRANCH  13  16
ENDBRANCH   2  10
BRANCH   6  20
ATOM     20  C   UNL     1       2.540   5.630  19.026  0.00  0.00    +0.000 C 
BRANCH  20  21
ATOM     21  C   UNL     1       2.275   7.050  19.504  0.00  0.00    +0.000 C 
ATOM     22  O   UNL     1       2.468   7.379  20.672  0.00  0.00    +0.000 OA
ATOM     23  N   UNL     1       1.627   7.849  18.579  0.00  0.00    +0.000 N 
ATOM     24  H   UNL     1       1.077   7.369  17.873  0.00  0.00    +0.000 HD
BRANCH  23  25
ATOM     25  C   UNL     1       1.373   9.211  18.764  0.00  0.00    +0.000 A 
ATOM     26  C   UNL     1       0.469   9.689  19.748  0.00  0.00    +0.000 A 
ATOM     27  C   UNL     1       0.408  11.051  20.043  0.00  0.00    +0.000 A 
ATOM     28  C   UNL     1       1.243  11.890  19.348  0.00  0.00    +0.000 A 
ATOM     29  C   UNL     1       2.058  11.425  18.336  0.00  0.00    +0.000 A 
ATOM     30  C   UNL     1       2.145  10.096  18.020  0.00  0.00    +0.000 A 
ATOM     31  O   UNL     1       2.837  12.407  17.805  0.00  0.00    +0.000 OA
ATOM     32  C   UNL     1       2.710  13.370  18.864  0.00  0.00    +0.000 C 
ATOM     33  O   UNL     1       1.479  13.209  19.604  0.00  0.00    +0.000 OA
ENDBRANCH  23  25
ENDBRANCH  20  21
ENDBRANCH   6  20
TORSDOF 6
ENDMDL
MODEL 5
REMARK VINA RESULT:      -8.2      0.919      1.775
REMARK  Name = 
REMARK  7 active torsions:
REMARK  status: ('A' for Active; 'I' for Inactive)
REMARK    1  A    between atoms: C_1  and  C_2
REMARK    2  A    between atoms: C_2  and  C_3
REMARK    3  A    between atoms: C_6  and  O_7
REMARK    4  A    between atoms: O_7  and  C_8
REMARK    5  A    between atoms: N_16  and  C_17
REMARK    6  A    between atoms: C_17  and  C_18
REMARK    7  A    between atoms: N_20  and  C_21
REMARK                            x       y       z     vdW  Elec       q    Type
REMARK                         _______ _______ _______ _____ _____    ______ ____
ROOT
ATOM      1  C   UNL     1       6.606   6.851  17.678  0.00  0.00    +0.000 C 
ATOM      2  C   UNL     1       5.890   5.519  17.447  0.00  0.00    +0.000 C 
ATOM      3  N   UNL     1       6.264   4.561  18.468  0.00  0.00    +0.000 N 
ATOM      4  C   UNL     1       5.175   4.034  19.113  0.00  0.00    +0.000 C 
ATOM      5  O   UNL     1       5.206   3.045  19.825  0.00  0.00    +0.000 OA
ATOM      6  N   UNL     1       4.077   4.749  18.774  0.00  0.00    +0.000 N 
ATOM      7  C   UNL     1       4.379   5.641  17.779  0.00  0.00    +0.000 C 
ATOM      8  O   UNL     1       3.575   6.372  17.217  0.00  0.00    +0.000 OA
ATOM      9  H   UNL     1       7.173   4.123  18.547  0.00  0.00    +0.000 HD
ENDROOT
BRANCH   2  10
ATOM     10  C   UNL     1       6.097   4.989  16.029  0.00  0.00    +0.000 A 
ATOM     11  C   UNL     1       5.242   4.031  15.449  0.00  0.00    +0.000 A 
ATOM     12  C   UNL     1       5.471   3.570  14.149  0.00  0.00    +0.000 A 
ATOM     13  C   UNL     1       6.534   4.060  13.388  0.00  0.00    +0.000 A 
ATOM     14  C   UNL     1       7.403   4.990  13.953  0.00  0.00    +0.000 A 
ATOM     15  C   UNL     1       7.179   5.452  15.253  0.00  0.00    +0.000 A 
BRANCH  13  16
ATOM     16  O   UNL     1       6.630   3.540  12.133  0.00  0.00    +0.000 OA
BRANCH  16  17
ATOM     17  C   UNL     1       5.699   2.511  11.838  0.00  0.00    +0.000 C 
ATOM     18  F   UNL     1       4.664   3.048  11.149  0.00  0.00    +0.000 F 
ATOM     19  F   UNL     1       6.317   1.640  11.001  0.00  0.00    +0.000 F 
ENDBRANCH  16  17
ENDBRANCH  13  16
ENDBRANCH   2  10
BRANCH   6  20
ATOM     20  C   UNL     1       2.740   4.534  19.291  0.00  0.00    +0.000 C 
BRANCH  20  21
ATOM     21  C   UNL     1       2.266   5.713  20.129  0.00  0.00    +0.000 C 
ATOM     22  O   UNL     1       2.106   5.612  21.342  0.00  0.00    +0.000 OA
ATOM     23  N   UNL     1       1.854   6.806  19.388  0.00  0.00    +0.000 N 
ATOM     24  H   UNL     1       1.553   6.620  18.436  0.00  0.00    +0.000 HD
BRANCH  23  25
ATOM     25  C   UNL     1       1.475   8.031  19.946  0.00  0.00    +0.000 A 
ATOM     26  C   UNL     1       1.377   8.230  21.348  0.00  0.00    +0.000 A 
ATOM     27  C   UNL     1       1.208   9.514  21.866  0.00  0.00    +0.000 A 
ATOM     28  C   UNL     1       1.139  10.555  20.972  0.00  0.00    +0.000 A 
ATOM     29  C   UNL     1       1.154  10.341  19.609  0.00  0.00    +0.000 A 
ATOM     30  C   UNL     1       1.319   9.095  19.066  0.00  0.00    +0.000 A 
ATOM     31  O   UNL     1       1.122  11.503  18.901  0.00  0.00    +0.000 OA
ATOM     32  C   UNL     1       1.509  12.401  19.956  0.00  0.00    +0.000 C 
ATOM     33  O   UNL     1       1.166  11.887  21.262  0.00  0.00    +0.000 OA
ENDBRANCH  23  25
ENDBRANCH  20  21
ENDBRANCH   6  20
TORSDOF 6
ENDMDL
MODEL 6
REMARK VINA RESULT:      -8.2      5.565      8.429
REMARK  Name = 
REMARK  7 active torsions:
REMARK  status: ('A' for Active; 'I' for Inactive)
REMARK    1  A    between atoms: C_1  and  C_2
REMARK    2  A    between atoms: C_2  and  C_3
REMARK    3  A    between atoms: C_6  and  O_7
REMARK    4  A    between atoms: O_7  and  C_8
REMARK    5  A    between atoms: N_16  and  C_17
REMARK    6  A    between atoms: C_17  and  C_18
REMARK    7  A    between atoms: N_20  and  C_21
REMARK                            x       y       z     vdW  Elec       q    Type
REMARK                         _______ _______ _______ _____ _____    ______ ____
ROOT
ATOM      1  C   UNL     1       3.506   4.476  17.461  0.00  0.00    +0.000 C 
ATOM      2  C   UNL     1       4.178   5.624  18.215  0.00  0.00    +0.000 C 
ATOM      3  N   UNL     1       4.991   5.110  19.299  0.00  0.00    +0.000 N 
ATOM      4  C   UNL     1       6.287   5.554  19.236  0.00  0.00    +0.000 C 
ATOM      5  O   UNL     1       7.091   5.468  20.148  0.00  0.00    +0.000 OA
ATOM      6  N   UNL     1       6.488   6.148  18.036  0.00  0.00    +0.000 N 
ATOM      7  C   UNL     1       5.303   6.263  17.359  0.00  0.00    +0.000 C 
ATOM      8  O   UNL     1       5.157   6.823  16.280  0.00  0.00    +0.000 OA
ATOM      9  H   UNL     1       4.630   4.690  20.146  0.00  0.00    +0.000 HD
ENDROOT
BRANCH   2  10
ATOM     10  C   UNL     1       3.174   6.680  18.675  0.00  0.00    +0.000 A 
ATOM     11  C   UNL     1       2.544   6.625  19.934  0.00  0.00    +0.000 A 
ATOM     12  C   UNL     1       1.628   7.611  20.314  0.00  0.00    +0.000 A 
ATOM     13  C   UNL     1       1.333   8.682  19.469  0.00  0.00    +0.000 A 
ATOM     14  C   UNL     1       1.928   8.741  18.212  0.00  0.00    +0.000 A 
ATOM     15  C   UNL     1       2.842   7.757  17.827  0.00  0.00    +0.000 A 
BRANCH  13  16
ATOM     16  O   UNL     1       0.440   9.580  19.970  0.00  0.00    +0.000 OA
BRANCH  16  17
ATOM     17  C   UNL     1       0.992  10.548  20.849  0.00  0.00    +0.000 C 
ATOM     18  F   UNL     1       0.335  11.719  20.670  0.00  0.00    +0.000 F 
ATOM     19  F   UNL     1       0.725  10.138  22.114  0.00  0.00    +0.000 F 
ENDBRANCH  16  17
ENDBRANCH  13  16
ENDBRANCH   2  10
BRANCH   6  20
ATOM     20  C   UNL     1       7.745   6.697  17.570  0.00  0.00    +0.000 C 
BRANCH  20  21
ATOM     21  C   UNL     1       7.808   8.205  17.773  0.00  0.00    +0.000 C 
ATOM     22  O   UNL     1       7.125   8.970  17.097  0.00  0.00    +0.000 OA
ATOM     23  N   UNL     1       8.821   8.622  18.616  0.00  0.00    +0.000 N 
ATOM     24  H   UNL     1       9.615   7.995  18.715  0.00  0.00    +0.000 HD
BRANCH  23  25
ATOM     25  C   UNL     1       9.004   9.947  19.024  0.00  0.00    +0.000 A 
ATOM     26  C   UNL     1       9.198  10.304  20.384  0.00  0.00    +0.000 A 
ATOM     27  C   UNL     1       9.589  11.600  20.721  0.00  0.00    +0.000 A 
ATOM     28  C   UNL     1       9.770  12.495  19.697  0.00  0.00    +0.000 A 
ATOM     29  C   UNL     1       9.500  12.160  18.386  0.00  0.00    +0.000 A 
ATOM     30  C   UNL     1       9.115  10.898  18.018  0.00  0.00    +0.000 A 
ATOM     31  O   UNL     1       9.787  13.172  17.522  0.00  0.00    +0.000 OA
ATOM     32  C   UNL     1      10.629  13.953  18.387  0.00  0.00    +0.000 C 
ATOM     33  O   UNL     1      10.324  13.738  19.783  0.00  0.00    +0.000 OA
ENDBRANCH  23  25
ENDBRANCH  20  21
ENDBRANCH   6  20
TORSDOF 6
ENDMDL
MODEL 7
REMARK VINA RESULT:      -8.2      1.917      2.735
REMARK  Name = 
REMARK  7 active torsions:
REMARK  status: ('A' for Active; 'I' for Inactive)
REMARK    1  A    between atoms: C_1  and  C_2
REMARK    2  A    between atoms: C_2  and  C_3
REMARK    3  A    between atoms: C_6  and  O_7
REMARK    4  A    between atoms: O_7  and  C_8
REMARK    5  A    between atoms: N_16  and  C_17
REMARK    6  A    between atoms: C_17  and  C_18
REMARK    7  A    between atoms: N_20  and  C_21
REMARK                            x       y       z     vdW  Elec       q    Type
REMARK                         _______ _______ _______ _____ _____    ______ ____
ROOT
ATOM      1  C   UNL     1       6.790   7.304  17.480  0.00  0.00    +0.000 C 
ATOM      2  C   UNL     1       5.754   6.198  17.277  0.00  0.00    +0.000 C 
ATOM      3  N   UNL     1       5.695   5.340  18.444  0.00  0.00    +0.000 N 
ATOM      4  C   UNL     1       4.424   5.233  18.949  0.00  0.00    +0.000 C 
ATOM      5  O   UNL     1       4.072   4.393  19.759  0.00  0.00    +0.000 OA
ATOM      6  N   UNL     1       3.637   6.159  18.352  0.00  0.00    +0.000 N 
ATOM      7  C   UNL     1       4.314   6.773  17.332  0.00  0.00    +0.000 C 
ATOM      8  O   UNL     1       3.839   7.600  16.566  0.00  0.00    +0.000 OA
ATOM      9  H   UNL     1       6.418   4.690  18.724  0.00  0.00    +0.000 HD
ENDROOT
BRANCH   2  10
ATOM     10  C   UNL     1       5.983   5.421  15.981  0.00  0.00    +0.000 A 
ATOM     11  C   UNL     1       5.143   4.365  15.575  0.00  0.00    +0.000 A 
ATOM     12  C   UNL     1       5.391   3.678  14.383  0.00  0.00    +0.000 A 
ATOM     13  C   UNL     1       6.460   4.034  13.557  0.00  0.00    +0.000 A 
ATOM     14  C   UNL     1       7.314   5.060  13.953  0.00  0.00    +0.000 A 
ATOM     15  C   UNL     1       7.070   5.747  15.145  0.00  0.00    +0.000 A 
BRANCH  13  16
ATOM     16  O   UNL     1       6.575   3.296  12.417  0.00  0.00    +0.000 OA
BRANCH  16  17
ATOM     17  C   UNL     1       5.369   2.703  11.963  0.00  0.00    +0.000 C 
ATOM     18  F   UNL     1       4.687   3.616  11.230  0.00  0.00    +0.000 F 
ATOM     19  F   UNL     1       5.710   1.698  11.118  0.00  0.00    +0.000 F 
ENDBRANCH  16  17
ENDBRANCH  13  16
ENDBRANCH   2  10
BRANCH   6  20
ATOM     20  C   UNL     1       2.240   6.395  18.655  0.00  0.00    +0.000 C 
BRANCH  20  21
ATOM     21  C   UNL     1       2.007   7.812  19.162  0.00  0.00    +0.000 C 
ATOM     22  O   UNL     1       2.155   8.098  20.348  0.00  0.00    +0.000 OA
ATOM     23  N   UNL     1       1.438   8.661  18.232  0.00  0.00    +0.000 N 
ATOM     24  H   UNL     1       0.905   8.224  17.486  0.00  0.00    +0.000 HD
BRANCH  23  25
ATOM     25  C   UNL     1       1.228  10.028  18.445  0.00  0.00    +0.000 A 
ATOM     26  C   UNL     1       0.104  10.522  19.157  0.00  0.00    +0.000 A 
ATOM     27  C   UNL     1       0.045  11.864  19.532  0.00  0.00    +0.000 A 
ATOM     28  C   UNL     1       1.102  12.668  19.184  0.00  0.00    +0.000 A 
ATOM     29  C   UNL     1       2.151  12.195  18.422  0.00  0.00    +0.000 A 
ATOM     30  C   UNL     1       2.243  10.885  18.037  0.00  0.00    +0.000 A 
ATOM     31  O   UNL     1       3.115  13.136  18.225  0.00  0.00    +0.000 OA
ATOM     32  C   UNL     1       2.739  14.042  19.276  0.00  0.00    +0.000 C 
ATOM     33  O   UNL     1       1.336  13.944  19.606  0.00  0.00    +0.000 OA
ENDBRANCH  23  25
ENDBRANCH  20  21
ENDBRANCH   6  20
TORSDOF 6
ENDMDL
MODEL 8
REMARK VINA RESULT:      -8.2      5.694      8.491
REMARK  Name = 
REMARK  7 active torsions:
REMARK  status: ('A' for Active; 'I' for Inactive)
REMARK    1  A    between atoms: C_1  and  C_2
REMARK    2  A    between atoms: C_2  and  C_3
REMARK    3  A    between atoms: C_6  and  O_7
REMARK    4  A    between atoms: O_7  and  C_8
REMARK    5  A    between atoms: N_16  and  C_17
REMARK    6  A    between atoms: C_17  and  C_18
REMARK    7  A    between atoms: N_20  and  C_21
REMARK                            x       y       z     vdW  Elec       q    Type
REMARK                         _______ _______ _______ _____ _____    ______ ____
ROOT
ATOM      1  C   UNL     1       3.743   4.564  17.299  0.00  0.00    +0.000 C 
ATOM      2  C   UNL     1       4.366   5.696  18.116  0.00  0.00    +0.000 C 
ATOM      3  N   UNL     1       5.146   5.157  19.214  0.00  0.00    +0.000 N 
ATOM      4  C   UNL     1       6.436   5.622  19.216  0.00  0.00    +0.000 C 
ATOM      5  O   UNL     1       7.205   5.517  20.155  0.00  0.00    +0.000 OA
ATOM      6  N   UNL     1       6.673   6.259  18.045  0.00  0.00    +0.000 N 
ATOM      7  C   UNL     1       5.513   6.380  17.326  0.00  0.00    +0.000 C 
ATOM      8  O   UNL     1       5.399   6.974  16.262  0.00  0.00    +0.000 OA
ATOM      9  H   UNL     1       4.759   4.703  20.031  0.00  0.00    +0.000 HD
ENDROOT
BRANCH   2  10
ATOM     10  C   UNL     1       3.329   6.721  18.572  0.00  0.00    +0.000 A 
ATOM     11  C   UNL     1       2.960   7.826  17.780  0.00  0.00    +0.000 A 
ATOM     12  C   UNL     1       2.008   8.742  18.238  0.00  0.00    +0.000 A 
ATOM     13  C   UNL     1       1.385   8.573  19.476  0.00  0.00    +0.000 A 
ATOM     14  C   UNL     1       1.752   7.500  20.282  0.00  0.00    +0.000 A 
ATOM     15  C   UNL     1       2.705   6.583  19.829  0.00  0.00    +0.000 A 
BRANCH  13  16
ATOM     16  O   UNL     1       0.464   9.527  19.789  0.00  0.00    +0.000 OA
BRANCH  16  17
ATOM     17  C   UNL     1       0.486   9.960  21.140  0.00  0.00    +0.000 C 
ATOM     18  F   UNL     1       0.332  11.305  21.166  0.00  0.00    +0.000 F 
ATOM     19  F   UNL     1      -0.604   9.429  21.749  0.00  0.00    +0.000 F 
ENDBRANCH  16  17
ENDBRANCH  13  16
ENDBRANCH   2  10
BRANCH   6  20
ATOM     20  C   UNL     1       7.938   6.843  17.647  0.00  0.00    +0.000 C 
BRANCH  20  21
ATOM     21  C   UNL     1       7.977   8.339  17.921  0.00  0.00    +0.000 C 
ATOM     22  O   UNL     1       7.248   9.120  17.315  0.00  0.00    +0.000 OA
ATOM     23  N   UNL     1       9.017   8.739  18.740  0.00  0.00    +0.000 N 
ATOM     24  H   UNL     1       9.828   8.128  18.773  0.00  0.00    +0.000 HD
BRANCH  23  25
ATOM     25  C   UNL     1       9.189  10.047  19.205  0.00  0.00    +0.000 A 
ATOM     26  C   UNL     1       8.973  10.406  20.561  0.00  0.00    +0.000 A 
ATOM     27  C   UNL     1       9.361  11.663  21.026  0.00  0.00    +0.000 A 
ATOM     28  C   UNL     1       9.945  12.520  20.126  0.00  0.00    +0.000 A 
ATOM     29  C   UNL     1      10.075  12.190  18.792  0.00  0.00    +0.000 A 
ATOM     30  C   UNL     1       9.707  10.966  18.301  0.00  0.00    +0.000 A 
ATOM     31  O   UNL     1      10.719  13.156  18.080  0.00  0.00    +0.000 OA
ATOM     32  C   UNL     1      11.313  13.865  19.180  0.00  0.00    +0.000 C 
ATOM     33  O   UNL     1      10.561  13.704  20.403  0.00  0.00    +0.000 OA
ENDBRANCH  23  25
ENDBRANCH  20  21
ENDBRANCH   6  20
TORSDOF 6
ENDMDL
MODEL 9
REMARK VINA RESULT:      -8.1      5.325      7.830
REMARK  Name = 
REMARK  7 active torsions:
REMARK  status: ('A' for Active; 'I' for Inactive)
REMARK    1  A    between atoms: C_1  and  C_2
REMARK    2  A    between atoms: C_2  and  C_3
REMARK    3  A    between atoms: C_6  and  O_7
REMARK    4  A    between atoms: O_7  and  C_8
REMARK    5  A    between atoms: N_16  and  C_17
REMARK    6  A    between atoms: C_17  and  C_18
REMARK    7  A    between atoms: N_20  and  C_21
REMARK                            x       y       z     vdW  Elec       q    Type
REMARK                         _______ _______ _______ _____ _____    ______ ____
ROOT
ATOM      1  C   UNL     1       3.607   4.606  17.273  0.00  0.00    +0.000 C 
ATOM      2  C   UNL     1       4.255   5.731  18.082  0.00  0.00    +0.000 C 
ATOM      3  N   UNL     1       5.022   5.183  19.184  0.00  0.00    +0.000 N 
ATOM      4  C   UNL     1       6.322   5.621  19.183  0.00  0.00    +0.000 C 
ATOM      5  O   UNL     1       7.089   5.507  20.124  0.00  0.00    +0.000 OA
ATOM      6  N   UNL     1       6.573   6.243  18.008  0.00  0.00    +0.000 N 
ATOM      7  C   UNL     1       5.417   6.384  17.287  0.00  0.00    +0.000 C 
ATOM      8  O   UNL     1       5.317   6.971  16.218  0.00  0.00    +0.000 OA
ATOM      9  H   UNL     1       4.625   4.745  20.005  0.00  0.00    +0.000 HD
ENDROOT
BRANCH   2  10
ATOM     10  C   UNL     1       3.240   6.781  18.529  0.00  0.00    +0.000 A 
ATOM     11  C   UNL     1       2.873   7.871  17.715  0.00  0.00    +0.000 A 
ATOM     12  C   UNL     1       1.942   8.812  18.165  0.00  0.00    +0.000 A 
ATOM     13  C   UNL     1       1.337   8.683  19.418  0.00  0.00    +0.000 A 
ATOM     14  C   UNL     1       1.704   7.625  20.245  0.00  0.00    +0.000 A 
ATOM     15  C   UNL     1       2.636   6.684  19.799  0.00  0.00    +0.000 A 
BRANCH  13  16
ATOM     16  O   UNL     1       0.435   9.657  19.722  0.00  0.00    +0.000 OA
BRANCH  16  17
ATOM     17  C   UNL     1      -0.023  10.418  18.616  0.00  0.00    +0.000 C 
ATOM     18  F   UNL     1      -1.200   9.897  18.191  0.00  0.00    +0.000 F 
ATOM     19  F   UNL     1      -0.289  11.667  19.071  0.00  0.00    +0.000 F 
ENDBRANCH  16  17
ENDBRANCH  13  16
ENDBRANCH   2  10
BRANCH   6  20
ATOM     20  C   UNL     1       7.851   6.796  17.606  0.00  0.00    +0.000 C 
BRANCH  20  21
ATOM     21  C   UNL     1       7.914   8.298  17.847  0.00  0.00    +0.000 C 
ATOM     22  O   UNL     1       7.163   9.072  17.261  0.00  0.00    +0.000 OA
ATOM     23  N   UNL     1       8.995   8.705  18.608  0.00  0.00    +0.000 N 
ATOM     24  H   UNL     1       9.802   8.088  18.615  0.00  0.00    +0.000 HD
BRANCH  23  25
ATOM     25  C   UNL     1       9.198  10.020  19.037  0.00  0.00    +0.000 A 
ATOM     26  C   UNL     1       9.422  11.090  18.132  0.00  0.00    +0.000 A 
ATOM     27  C   UNL     1       9.404  12.409  18.584  0.00  0.00    +0.000 A 
ATOM     28  C   UNL     1       9.168  12.619  19.920  0.00  0.00    +0.000 A 
ATOM     29  C   UNL     1       9.032  11.569  20.805  0.00  0.00    +0.000 A 
ATOM     30  C   UNL     1       9.044  10.262  20.397  0.00  0.00    +0.000 A 
ATOM     31  O   UNL     1       8.760  11.990  22.071  0.00  0.00    +0.000 OA
ATOM     32  C   UNL     1       8.337  13.328  21.759  0.00  0.00    +0.000 C 
ATOM     33  O   UNL     1       8.924  13.814  20.531  0.00  0.00    +0.000 OA
ENDBRANCH  23  25
ENDBRANCH  20  21
ENDBRANCH   6  20
TORSDOF 6
ENDMDL
