MODEL 1
REMARK VINA RESULT:      -8.7      0.000      0.000
REMARK  Name = 
REMARK  2 active torsions:
REMARK  status: ('A' for Active; 'I' for Inactive)
REMARK    1  A    between atoms: C_2  and  C_3
REMARK    2  A    between atoms: C_12  and  C_14
REMARK                            x       y       z     vdW  Elec       q    Type
REMARK                         _______ _______ _______ _____ _____    ______ ____
ROOT
ATOM      1  O   UNL     1       4.348   5.347  16.804  0.00  0.00    +0.000 OA
ATOM      2  C   UNL     1       3.574   4.963  17.686  0.00  0.00    +0.000 C 
ATOM      3  N   UNL     1       2.607   5.842  18.187  0.00  0.00    +0.000 N 
ATOM      4  C   UNL     1       1.760   5.636  19.379  0.00  0.00    +0.000 C 
ATOM      5  C   UNL     1       1.944   6.767  20.414  0.00  0.00    +0.000 C 
ATOM      6  N   UNL     1       1.888   8.100  19.795  0.00  0.00    +0.000 N 
ATOM      7  C   UNL     1       0.940   9.020  20.235  0.00  0.00    +0.000 C 
ATOM      8  O   UNL     1       0.169   8.717  21.146  0.00  0.00    +0.000 OA
ATOM      9  C   UNL     1       2.816   8.252  18.671  0.00  0.00    +0.000 C 
ATOM     10  C   UNL     1       2.512   7.186  17.608  0.00  0.00    +0.000 C 
ENDROOT
BRANCH   7  11
ATOM     11  C   UNL     1       0.881  10.425  19.579  0.00  0.00    +0.000 C 
ATOM     12  C   UNL     1       1.064  11.550  20.634  0.00  0.00    +0.000 C 
ATOM     13  C   UNL     1      -0.170  11.806  21.527  0.00  0.00    +0.000 C 
ATOM     14  C   UNL     1      -1.498  12.000  20.775  0.00  0.00    +0.000 C 
ATOM     15  C   UNL     1      -1.526  11.321  19.448  0.00  0.00    +0.000 A 
ATOM     16  C   UNL     1      -0.442  10.654  18.908  0.00  0.00    +0.000 A 
ATOM     17  N   UNL     1      -0.746  10.354  17.608  0.00  0.00    +0.000 N 
ATOM     18  C   UNL     1      -2.049  10.704  17.332  0.00  0.00    +0.000 A 
ATOM     19  C   UNL     1      -2.783  10.569  16.148  0.00  0.00    +0.000 A 
ATOM     20  C   UNL     1      -4.116  10.985  16.163  0.00  0.00    +0.000 A 
ATOM     21  C   UNL     1      -4.680  11.526  17.316  0.00  0.00    +0.000 A 
ATOM     22 CL   UNL     1      -6.340  11.985  17.311  0.00  0.00    +0.000 Cl
ATOM     23  C   UNL     1      -3.923  11.700  18.479  0.00  0.00    +0.000 A 
ATOM     24  C   UNL     1      -2.579  11.278  18.489  0.00  0.00    +0.000 A 
ATOM     25  H   UNL     1      -0.121   9.952  16.927  0.00  0.00    +0.000 HD
ENDBRANCH   7  11
BRANCH   2  26
ATOM     26  C   UNL     1       3.700   3.624  18.231  0.00  0.00    +0.000 A 
ATOM     27  C   UNL     1       3.124   2.444  17.798  0.00  0.00    +0.000 A 
ATOM     28  C   UNL     1       3.537   1.428  18.690  0.00  0.00    +0.000 A 
ATOM     29  C   UNL     1       4.307   2.052  19.640  0.00  0.00    +0.000 A 
ATOM     30  O   UNL     1       4.401   3.382  19.383  0.00  0.00    +0.000 OA
ENDBRANCH   2  26
TORSDOF 2
ENDMDL
MODEL 2
REMARK VINA RESULT:      -7.4      1.208      1.418
REMARK  Name = 
REMARK  2 active torsions:
REMARK  status: ('A' for Active; 'I' for Inactive)
REMARK    1  A    between atoms: C_2  and  C_3
REMARK    2  A    between atoms: C_12  and  C_14
REMARK                            x       y       z     vdW  Elec       q    Type
REMARK                         _______ _______ _______ _____ _____    ______ ____
ROOT
ATOM      1  O   UNL     1       4.384   6.914  16.796  0.00  0.00    +0.000 OA
ATOM      2  C   UNL     1       3.646   6.391  17.636  0.00  0.00    +0.000 C 
ATOM      3  N   UNL     1       2.542   7.099  18.124  0.00  0.00    +0.000 N 
ATOM      4  C   UNL     1       1.695   6.730  19.275  0.00  0.00    +0.000 C 
ATOM      5  C   UNL     1       1.672   7.840  20.348  0.00  0.00    +0.000 C 
ATOM      6  N   UNL     1       1.439   9.170  19.765  0.00  0.00    +0.000 N 
ATOM      7  C   UNL     1       0.348   9.923  20.193  0.00  0.00    +0.000 C 
ATOM      8  O   UNL     1      -0.399   9.479  21.065  0.00  0.00    +0.000 OA
ATOM      9  C   UNL     1       2.371   9.496  18.682  0.00  0.00    +0.000 C 
ATOM     10  C   UNL     1       2.267   8.433  17.579  0.00  0.00    +0.000 C 
ENDROOT
BRANCH   7  11
ATOM     11  C   UNL     1       0.102  11.326  19.574  0.00  0.00    +0.000 C 
ATOM     12  C   UNL     1       0.460  12.457  20.577  0.00  0.00    +0.000 C 
ATOM     13  C   UNL     1      -0.570  12.666  21.710  0.00  0.00    +0.000 C 
ATOM     14  C   UNL     1      -2.031  12.809  21.252  0.00  0.00    +0.000 C 
ATOM     15  C   UNL     1      -2.310  12.130  19.954  0.00  0.00    +0.000 A 
ATOM     16  C   UNL     1      -1.339  11.505  19.196  0.00  0.00    +0.000 A 
ATOM     17  N   UNL     1      -1.896  11.193  17.985  0.00  0.00    +0.000 N 
ATOM     18  C   UNL     1      -3.240  11.494  17.989  0.00  0.00    +0.000 A 
ATOM     19  C   UNL     1      -4.198  11.332  16.982  0.00  0.00    +0.000 A 
ATOM     20  C   UNL     1      -5.514  11.697  17.279  0.00  0.00    +0.000 A 
ATOM     21  C   UNL     1      -5.844  12.216  18.528  0.00  0.00    +0.000 A 
ATOM     22 CL   UNL     1      -7.485  12.613  18.872  0.00  0.00    +0.000 Cl
ATOM     23  C   UNL     1      -4.869  12.418  19.509  0.00  0.00    +0.000 A 
ATOM     24  C   UNL     1      -3.538  12.047  19.235  0.00  0.00    +0.000 A 
ATOM     25  H   UNL     1      -1.412  10.815  17.186  0.00  0.00    +0.000 HD
ENDBRANCH   7  11
BRANCH   2  26
ATOM     26  C   UNL     1       3.953   5.068  18.148  0.00  0.00    +0.000 A 
ATOM     27  C   UNL     1       3.497   3.835  17.717  0.00  0.00    +0.000 A 
ATOM     28  C   UNL     1       4.067   2.861  18.570  0.00  0.00    +0.000 A 
ATOM     29  C   UNL     1       4.803   3.557  19.496  0.00  0.00    +0.000 A 
ATOM     30  O   UNL     1       4.730   4.892  19.262  0.00  0.00    +0.000 OA
ENDBRANCH   2  26
TORSDOF 2
ENDMDL
MODEL 3
REMARK VINA RESULT:      -7.2      3.347      4.292
REMARK  Name = 
REMARK  2 active torsions:
REMARK  status: ('A' for Active; 'I' for Inactive)
REMARK    1  A    between atoms: C_2  and  C_3
REMARK    2  A    between atoms: C_12  and  C_14
REMARK                            x       y       z     vdW  Elec       q    Type
REMARK                         _______ _______ _______ _____ _____    ______ ____
ROOT
ATOM      1  O   UNL     1       1.794   4.911  20.966  0.00  0.00    +0.000 OA
ATOM      2  C   UNL     1       2.287   5.305  19.906  0.00  0.00    +0.000 C 
ATOM      3  N   UNL     1       2.458   6.677  19.689  0.00  0.00    +0.000 N 
ATOM      4  C   UNL     1       2.814   7.332  18.415  0.00  0.00    +0.000 C 
ATOM      5  C   UNL     1       1.753   8.370  17.988  0.00  0.00    +0.000 C 
ATOM      6  N   UNL     1       1.370   9.259  19.096  0.00  0.00    +0.000 N 
ATOM      7  C   UNL     1       1.528  10.635  18.955  0.00  0.00    +0.000 C 
ATOM      8  O   UNL     1       1.970  11.096  17.902  0.00  0.00    +0.000 OA
ATOM      9  C   UNL     1       0.952   8.533  20.299  0.00  0.00    +0.000 C 
ATOM     10  C   UNL     1       2.087   7.608  20.760  0.00  0.00    +0.000 C 
ENDROOT
BRANCH   7  11
ATOM     11  C   UNL     1       1.126  11.572  20.126  0.00  0.00    +0.000 C 
ATOM     12  C   UNL     1      -0.267  11.193  20.700  0.00  0.00    +0.000 C 
ATOM     13  C   UNL     1      -1.465  11.615  19.821  0.00  0.00    +0.000 C 
ATOM     14  C   UNL     1      -1.463  13.084  19.366  0.00  0.00    +0.000 C 
ATOM     15  C   UNL     1      -0.096  13.675  19.294  0.00  0.00    +0.000 A 
ATOM     16  C   UNL     1       1.049  13.001  19.674  0.00  0.00    +0.000 A 
ATOM     17  N   UNL     1       2.077  13.904  19.687  0.00  0.00    +0.000 N 
ATOM     18  C   UNL     1       1.646  15.121  19.207  0.00  0.00    +0.000 A 
ATOM     19  C   UNL     1       2.352  16.317  19.031  0.00  0.00    +0.000 A 
ATOM     20  C   UNL     1       1.660  17.400  18.485  0.00  0.00    +0.000 A 
ATOM     21  C   UNL     1       0.314  17.287  18.145  0.00  0.00    +0.000 A 
ATOM     22 CL   UNL     1      -0.494  18.631  17.431  0.00  0.00    +0.000 Cl
ATOM     23  C   UNL     1      -0.393  16.101  18.369  0.00  0.00    +0.000 A 
ATOM     24  C   UNL     1       0.288  14.993  18.910  0.00  0.00    +0.000 A 
ATOM     25  H   UNL     1       3.016  13.735  20.013  0.00  0.00    +0.000 HD
ENDBRANCH   7  11
BRANCH   2  26
ATOM     26  C   UNL     1       2.642   4.350  18.871  0.00  0.00    +0.000 A 
ATOM     27  C   UNL     1       1.829   3.484  18.162  0.00  0.00    +0.000 A 
ATOM     28  C   UNL     1       2.666   2.745  17.296  0.00  0.00    +0.000 A 
ATOM     29  C   UNL     1       3.945   3.170  17.554  0.00  0.00    +0.000 A 
ATOM     30  O   UNL     1       3.947   4.129  18.516  0.00  0.00    +0.000 OA
ENDBRANCH   2  26
TORSDOF 2
ENDMDL
MODEL 4
REMARK VINA RESULT:      -7.1      1.151      1.303
REMARK  Name = 
REMARK  2 active torsions:
REMARK  status: ('A' for Active; 'I' for Inactive)
REMARK    1  A    between atoms: C_2  and  C_3
REMARK    2  A    between atoms: C_12  and  C_14
REMARK                            x       y       z     vdW  Elec       q    Type
REMARK                         _______ _______ _______ _____ _____    ______ ____
ROOT
ATOM      1  O   UNL     1       4.001   5.447  17.196  0.00  0.00    +0.000 OA
ATOM      2  C   UNL     1       3.332   5.229  18.209  0.00  0.00    +0.000 C 
ATOM      3  N   UNL     1       2.342   6.140  18.594  0.00  0.00    +0.000 N 
ATOM      4  C   UNL     1       1.611   6.162  19.876  0.00  0.00    +0.000 C 
ATOM      5  C   UNL     1       1.787   7.507  20.614  0.00  0.00    +0.000 C 
ATOM      6  N   UNL     1       1.577   8.659  19.722  0.00  0.00    +0.000 N 
ATOM      7  C   UNL     1       0.597   9.597  20.036  0.00  0.00    +0.000 C 
ATOM      8  O   UNL     1      -0.073   9.465  21.061  0.00  0.00    +0.000 OA
ATOM      9  C   UNL     1       2.398   8.605  18.509  0.00  0.00    +0.000 C 
ATOM     10  C   UNL     1       2.095   7.309  17.743  0.00  0.00    +0.000 C 
ENDROOT
BRANCH   7  11
ATOM     11  C   UNL     1       0.375  10.810  19.094  0.00  0.00    +0.000 C 
ATOM     12  C   UNL     1       1.029  12.098  19.666  0.00  0.00    +0.000 C 
ATOM     13  C   UNL     1       0.264  12.745  20.841  0.00  0.00    +0.000 C 
ATOM     14  C   UNL     1      -1.237  12.978  20.600  0.00  0.00    +0.000 C 
ATOM     15  C   UNL     1      -1.827  12.033  19.608  0.00  0.00    +0.000 A 
ATOM     16  C   UNL     1      -1.087  11.096  18.913  0.00  0.00    +0.000 A 
ATOM     17  N   UNL     1      -1.895  10.565  17.945  0.00  0.00    +0.000 N 
ATOM     18  C   UNL     1      -3.177  11.052  18.076  0.00  0.00    +0.000 A 
ATOM     19  C   UNL     1      -4.323  10.776  17.322  0.00  0.00    +0.000 A 
ATOM     20  C   UNL     1      -5.514  11.396  17.708  0.00  0.00    +0.000 A 
ATOM     21  C   UNL     1      -5.544  12.266  18.795  0.00  0.00    +0.000 A 
ATOM     22 CL   UNL     1      -7.041  12.976  19.269  0.00  0.00    +0.000 Cl
ATOM     23  C   UNL     1      -4.382  12.570  19.512  0.00  0.00    +0.000 A 
ATOM     24  C   UNL     1      -3.172  11.948  19.146  0.00  0.00    +0.000 A 
ATOM     25  H   UNL     1      -1.615   9.925  17.219  0.00  0.00    +0.000 HD
ENDBRANCH   7  11
BRANCH   2  26
ATOM     26  C   UNL     1       3.606   4.059  19.024  0.00  0.00    +0.000 A 
ATOM     27  C   UNL     1       4.809   3.414  19.252  0.00  0.00    +0.000 A 
ATOM     28  C   UNL     1       4.534   2.309  20.090  0.00  0.00    +0.000 A 
ATOM     29  C   UNL     1       3.176   2.318  20.291  0.00  0.00    +0.000 A 
ATOM     30  O   UNL     1       2.601   3.361  19.639  0.00  0.00    +0.000 OA
ENDBRANCH   2  26
TORSDOF 2
ENDMDL
MODEL 5
REMARK VINA RESULT:      -7.1      3.244      4.503
REMARK  Name = 
REMARK  2 active torsions:
REMARK  status: ('A' for Active; 'I' for Inactive)
REMARK    1  A    between atoms: C_2  and  C_3
REMARK    2  A    between atoms: C_12  and  C_14
REMARK                            x       y       z     vdW  Elec       q    Type
REMARK                         _______ _______ _______ _____ _____    ______ ____
ROOT
ATOM      1  O   UNL     1       2.414   8.872  17.187  0.00  0.00    +0.000 OA
ATOM      2  C   UNL     1       2.168   8.349  18.278  0.00  0.00    +0.000 C 
ATOM      3  N   UNL     1       1.282   8.975  19.161  0.00  0.00    +0.000 N 
ATOM      4  C   UNL     1       1.045   8.620  20.574  0.00  0.00    +0.000 C 
ATOM      5  C   UNL     1       1.320   9.812  21.517  0.00  0.00    +0.000 C 
ATOM      6  N   UNL     1       0.690  11.052  21.041  0.00  0.00    +0.000 N 
ATOM      7  C   UNL     1      -0.215  11.719  21.863  0.00  0.00    +0.000 C 
ATOM      8  O   UNL     1      -0.468  11.276  22.984  0.00  0.00    +0.000 OA
ATOM      9  C   UNL     1       1.037  11.379  19.655  0.00  0.00    +0.000 C 
ATOM     10  C   UNL     1       0.629  10.218  18.737  0.00  0.00    +0.000 C 
ENDROOT
BRANCH   7  11
ATOM     11  C   UNL     1      -0.882  13.027  21.357  0.00  0.00    +0.000 C 
ATOM     12  C   UNL     1      -0.199  14.282  21.966  0.00  0.00    +0.000 C 
ATOM     13  C   UNL     1      -0.551  14.557  23.445  0.00  0.00    +0.000 C 
ATOM     14  C   UNL     1      -2.054  14.562  23.773  0.00  0.00    +0.000 C 
ATOM     15  C   UNL     1      -2.863  13.727  22.839  0.00  0.00    +0.000 A 
ATOM     16  C   UNL     1      -2.332  13.078  21.741  0.00  0.00    +0.000 A 
ATOM     17  N   UNL     1      -3.377  12.601  20.997  0.00  0.00    +0.000 N 
ATOM     18  C   UNL     1      -4.568  12.822  21.653  0.00  0.00    +0.000 A 
ATOM     19  C   UNL     1      -5.874  12.492  21.277  0.00  0.00    +0.000 A 
ATOM     20  C   UNL     1      -6.903  12.812  22.167  0.00  0.00    +0.000 A 
ATOM     21  C   UNL     1      -6.627  13.448  23.375  0.00  0.00    +0.000 A 
ATOM     22 CL   UNL     1      -7.916  13.784  24.467  0.00  0.00    +0.000 Cl
ATOM     23  C   UNL     1      -5.322  13.815  23.718  0.00  0.00    +0.000 A 
ATOM     24  C   UNL     1      -4.269  13.493  22.840  0.00  0.00    +0.000 A 
ATOM     25  H   UNL     1      -3.314  12.165  20.090  0.00  0.00    +0.000 HD
ENDBRANCH   7  11
BRANCH   2  26
ATOM     26  C   UNL     1       2.835   7.117  18.659  0.00  0.00    +0.000 A 
ATOM     27  C   UNL     1       2.609   6.301  19.753  0.00  0.00    +0.000 A 
ATOM     28  C   UNL     1       3.545   5.245  19.683  0.00  0.00    +0.000 A 
ATOM     29  C   UNL     1       4.316   5.497  18.576  0.00  0.00    +0.000 A 
ATOM     30  O   UNL     1       3.908   6.634  17.957  0.00  0.00    +0.000 OA
ENDBRANCH   2  26
TORSDOF 2
ENDMDL
MODEL 6
REMARK VINA RESULT:      -7.0      1.940      2.843
REMARK  Name = 
REMARK  2 active torsions:
REMARK  status: ('A' for Active; 'I' for Inactive)
REMARK    1  A    between atoms: C_2  and  C_3
REMARK    2  A    between atoms: C_12  and  C_14
REMARK                            x       y       z     vdW  Elec       q    Type
REMARK                         _______ _______ _______ _____ _____    ______ ____
ROOT
ATOM      1  O   UNL     1       2.801   8.168  17.493  0.00  0.00    +0.000 OA
ATOM      2  C   UNL     1       2.429   7.673  18.561  0.00  0.00    +0.000 C 
ATOM      3  N   UNL     1       1.537   8.379  19.377  0.00  0.00    +0.000 N 
ATOM      4  C   UNL     1       1.166   8.053  20.768  0.00  0.00    +0.000 C 
ATOM      5  C   UNL     1       1.473   9.221  21.731  0.00  0.00    +0.000 C 
ATOM      6  N   UNL     1       0.991  10.510  21.210  0.00  0.00    +0.000 N 
ATOM      7  C   UNL     1       0.089  11.257  21.963  0.00  0.00    +0.000 C 
ATOM      8  O   UNL     1      -0.284  10.843  23.061  0.00  0.00    +0.000 OA
ATOM      9  C   UNL     1       1.468  10.798  19.854  0.00  0.00    +0.000 C 
ATOM     10  C   UNL     1       1.029   9.672  18.907  0.00  0.00    +0.000 C 
ENDROOT
BRANCH   7  11
ATOM     11  C   UNL     1      -0.421  12.615  21.411  0.00  0.00    +0.000 C 
ATOM     12  C   UNL     1      -0.687  13.628  22.558  0.00  0.00    +0.000 C 
ATOM     13  C   UNL     1      -1.973  13.362  23.371  0.00  0.00    +0.000 C 
ATOM     14  C   UNL     1      -3.250  13.165  22.536  0.00  0.00    +0.000 C 
ATOM     15  C   UNL     1      -2.980  12.648  21.163  0.00  0.00    +0.000 A 
ATOM     16  C   UNL     1      -1.709  12.445  20.660  0.00  0.00    +0.000 A 
ATOM     17  N   UNL     1      -1.830  12.186  19.321  0.00  0.00    +0.000 N 
ATOM     18  C   UNL     1      -3.160  12.098  18.973  0.00  0.00    +0.000 A 
ATOM     19  C   UNL     1      -3.746  11.837  17.729  0.00  0.00    +0.000 A 
ATOM     20  C   UNL     1      -5.140  11.771  17.673  0.00  0.00    +0.000 A 
ATOM     21  C   UNL     1      -5.908  11.975  18.817  0.00  0.00    +0.000 A 
ATOM     22 CL   UNL     1      -7.623  11.840  18.718  0.00  0.00    +0.000 Cl
ATOM     23  C   UNL     1      -5.313  12.282  20.044  0.00  0.00    +0.000 A 
ATOM     24  C   UNL     1      -3.908  12.343  20.125  0.00  0.00    +0.000 A 
ATOM     25  H   UNL     1      -1.074  12.088  18.662  0.00  0.00    +0.000 HD
ENDBRANCH   7  11
BRANCH   2  26
ATOM     26  C   UNL     1       2.955   6.390  18.989  0.00  0.00    +0.000 A 
ATOM     27  C   UNL     1       4.260   5.932  18.983  0.00  0.00    +0.000 A 
ATOM     28  C   UNL     1       4.237   4.605  19.469  0.00  0.00    +0.000 A 
ATOM     29  C   UNL     1       2.917   4.313  19.705  0.00  0.00    +0.000 A 
ATOM     30  O   UNL     1       2.130   5.378  19.404  0.00  0.00    +0.000 OA
ENDBRANCH   2  26
TORSDOF 2
ENDMDL
MODEL 7
REMARK VINA RESULT:      -7.0      5.116      8.558
REMARK  Name = 
REMARK  2 active torsions:
REMARK  status: ('A' for Active; 'I' for Inactive)
REMARK    1  A    between atoms: C_2  and  C_3
REMARK    2  A    between atoms: C_12  and  C_14
REMARK                            x       y       z     vdW  Elec       q    Type
REMARK                         _______ _______ _______ _____ _____    ______ ____
ROOT
ATOM      1  O   UNL     1       4.524  15.033  17.455  0.00  0.00    +0.000 OA
ATOM      2  C   UNL     1       4.617  15.235  18.669  0.00  0.00    +0.000 C 
ATOM      3  N   UNL     1       3.764  14.561  19.550  0.00  0.00    +0.000 N 
ATOM      4  C   UNL     1       3.579  14.840  20.988  0.00  0.00    +0.000 C 
ATOM      5  C   UNL     1       2.107  15.164  21.324  0.00  0.00    +0.000 C 
ATOM      6  N   UNL     1       1.176  14.198  20.721  0.00  0.00    +0.000 N 
ATOM      7  C   UNL     1       0.308  13.481  21.541  0.00  0.00    +0.000 C 
ATOM      8  O   UNL     1       0.316  13.671  22.758  0.00  0.00    +0.000 OA
ATOM      9  C   UNL     1       1.369  14.036  19.277  0.00  0.00    +0.000 C 
ATOM     10  C   UNL     1       2.812  13.590  19.000  0.00  0.00    +0.000 C 
ENDROOT
BRANCH   7  11
ATOM     11  C   UNL     1      -0.672  12.460  20.904  0.00  0.00    +0.000 C 
ATOM     12  C   UNL     1      -1.785  12.043  21.905  0.00  0.00    +0.000 C 
ATOM     13  C   UNL     1      -1.328  11.065  23.009  0.00  0.00    +0.000 C 
ATOM     14  C   UNL     1      -0.570   9.821  22.514  0.00  0.00    +0.000 C 
ATOM     15  C   UNL     1       0.131  10.037  21.216  0.00  0.00    +0.000 A 
ATOM     16  C   UNL     1       0.045  11.208  20.487  0.00  0.00    +0.000 A 
ATOM     17  N   UNL     1       0.619  10.980  19.266  0.00  0.00    +0.000 N 
ATOM     18  C   UNL     1       1.183   9.724  19.234  0.00  0.00    +0.000 A 
ATOM     19  C   UNL     1       1.879   9.080  18.205  0.00  0.00    +0.000 A 
ATOM     20  C   UNL     1       2.376   7.800  18.465  0.00  0.00    +0.000 A 
ATOM     21  C   UNL     1       2.167   7.193  19.701  0.00  0.00    +0.000 A 
ATOM     22 CL   UNL     1       2.835   5.633  20.000  0.00  0.00    +0.000 Cl
ATOM     23  C   UNL     1       1.429   7.827  20.705  0.00  0.00    +0.000 A 
ATOM     24  C   UNL     1       0.927   9.122  20.467  0.00  0.00    +0.000 A 
ATOM     25  H   UNL     1       0.626  11.614  18.483  0.00  0.00    +0.000 HD
ENDBRANCH   7  11
BRANCH   2  26
ATOM     26  C   UNL     1       5.574  16.204  19.173  0.00  0.00    +0.000 A 
ATOM     27  C   UNL     1       6.896  16.020  19.538  0.00  0.00    +0.000 A 
ATOM     28  C   UNL     1       7.377  17.269  19.993  0.00  0.00    +0.000 A 
ATOM     29  C   UNL     1       6.313  18.133  19.920  0.00  0.00    +0.000 A 
ATOM     30  O   UNL     1       5.212  17.497  19.441  0.00  0.00    +0.000 OA
ENDBRANCH   2  26
TORSDOF 2
ENDMDL
MODEL 8
REMARK VINA RESULT:      -6.9      4.090      5.883
REMARK  Name = 
REMARK  2 active torsions:
REMARK  status: ('A' for Active; 'I' for Inactive)
REMARK    1  A    between atoms: C_2  and  C_3
REMARK    2  A    between atoms: C_12  and  C_14
REMARK                            x       y       z     vdW  Elec       q    Type
REMARK                         _______ _______ _______ _____ _____    ______ ____
ROOT
ATOM      1  O   UNL     1       1.343   5.453  20.756  0.00  0.00    +0.000 OA
ATOM      2  C   UNL     1       2.005   5.856  19.795  0.00  0.00    +0.000 C 
ATOM      3  N   UNL     1       2.234   7.228  19.639  0.00  0.00    +0.000 N 
ATOM      4  C   UNL     1       2.799   7.900  18.452  0.00  0.00    +0.000 C 
ATOM      5  C   UNL     1       1.838   8.969  17.888  0.00  0.00    +0.000 C 
ATOM      6  N   UNL     1       1.303   9.844  18.942  0.00  0.00    +0.000 N 
ATOM      7  C   UNL     1       1.507  11.219  18.858  0.00  0.00    +0.000 C 
ATOM      8  O   UNL     1       2.118  11.691  17.898  0.00  0.00    +0.000 OA
ATOM      9  C   UNL     1       0.687   9.105  20.048  0.00  0.00    +0.000 C 
ATOM     10  C   UNL     1       1.718   8.146  20.660  0.00  0.00    +0.000 C 
ENDROOT
BRANCH   7  11
ATOM     11  C   UNL     1       0.945  12.142  19.973  0.00  0.00    +0.000 C 
ATOM     12  C   UNL     1      -0.393  12.803  19.539  0.00  0.00    +0.000 C 
ATOM     13  C   UNL     1      -0.244  13.956  18.522  0.00  0.00    +0.000 C 
ATOM     14  C   UNL     1       0.781  15.038  18.900  0.00  0.00    +0.000 C 
ATOM     15  C   UNL     1       1.866  14.535  19.791  0.00  0.00    +0.000 A 
ATOM     16  C   UNL     1       1.905  13.249  20.295  0.00  0.00    +0.000 A 
ATOM     17  N   UNL     1       2.897  13.203  21.237  0.00  0.00    +0.000 N 
ATOM     18  C   UNL     1       3.580  14.399  21.266  0.00  0.00    +0.000 A 
ATOM     19  C   UNL     1       4.667  14.792  22.055  0.00  0.00    +0.000 A 
ATOM     20  C   UNL     1       5.188  16.072  21.845  0.00  0.00    +0.000 A 
ATOM     21  C   UNL     1       4.628  16.920  20.893  0.00  0.00    +0.000 A 
ATOM     22 CL   UNL     1       5.326  18.473  20.630  0.00  0.00    +0.000 Cl
ATOM     23  C   UNL     1       3.512  16.534  20.144  0.00  0.00    +0.000 A 
ATOM     24  C   UNL     1       2.978  15.244  20.332  0.00  0.00    +0.000 A 
ATOM     25  H   UNL     1       3.106  12.428  21.846  0.00  0.00    +0.000 HD
ENDBRANCH   7  11
BRANCH   2  26
ATOM     26  C   UNL     1       2.500   4.914  18.808  0.00  0.00    +0.000 A 
ATOM     27  C   UNL     1       1.839   4.340  17.737  0.00  0.00    +0.000 A 
ATOM     28  C   UNL     1       2.753   3.468  17.103  0.00  0.00    +0.000 A 
ATOM     29  C   UNL     1       3.906   3.526  17.847  0.00  0.00    +0.000 A 
ATOM     30  O   UNL     1       3.761   4.385  18.889  0.00  0.00    +0.000 OA
ENDBRANCH   2  26
TORSDOF 2
ENDMDL
MODEL 9
REMARK VINA RESULT:      -6.7      4.349      9.826
REMARK  Name = 
REMARK  2 active torsions:
REMARK  status: ('A' for Active; 'I' for Inactive)
REMARK    1  A    between atoms: C_2  and  C_3
REMARK    2  A    between atoms: C_12  and  C_14
REMARK                            x       y       z     vdW  Elec       q    Type
REMARK                         _______ _______ _______ _____ _____    ______ ____
ROOT
ATOM      1  O   UNL     1      -3.673  15.028  23.844  0.00  0.00    +0.000 OA
ATOM      2  C   UNL     1      -4.256  14.302  23.034  0.00  0.00    +0.000 C 
ATOM      3  N   UNL     1      -3.563  13.250  22.424  0.00  0.00    +0.000 N 
ATOM      4  C   UNL     1      -4.022  12.434  21.283  0.00  0.00    +0.000 C 
ATOM      5  C   UNL     1      -3.035  12.502  20.097  0.00  0.00    +0.000 C 
ATOM      6  N   UNL     1      -1.641  12.304  20.523  0.00  0.00    +0.000 N 
ATOM      7  C   UNL     1      -0.897  11.266  19.968  0.00  0.00    +0.000 C 
ATOM      8  O   UNL     1      -1.405  10.535  19.117  0.00  0.00    +0.000 OA
ATOM      9  C   UNL     1      -1.236  13.206  21.605  0.00  0.00    +0.000 C 
ATOM     10  C   UNL     1      -2.168  13.012  22.810  0.00  0.00    +0.000 C 
ENDROOT
BRANCH   7  11
ATOM     11  C   UNL     1       0.573  11.056  20.421  0.00  0.00    +0.000 C 
ATOM     12  C   UNL     1       1.528  12.063  19.724  0.00  0.00    +0.000 C 
ATOM     13  C   UNL     1       1.835  11.745  18.244  0.00  0.00    +0.000 C 
ATOM     14  C   UNL     1       2.290  10.303  17.962  0.00  0.00    +0.000 C 
ATOM     15  C   UNL     1       1.786   9.321  18.964  0.00  0.00    +0.000 A 
ATOM     16  C   UNL     1       1.053   9.676  20.080  0.00  0.00    +0.000 A 
ATOM     17  N   UNL     1       0.954   8.570  20.880  0.00  0.00    +0.000 N 
ATOM     18  C   UNL     1       1.503   7.476  20.249  0.00  0.00    +0.000 A 
ATOM     19  C   UNL     1       1.610   6.150  20.682  0.00  0.00    +0.000 A 
ATOM     20  C   UNL     1       2.192   5.230  19.807  0.00  0.00    +0.000 A 
ATOM     21  C   UNL     1       2.660   5.632  18.558  0.00  0.00    +0.000 A 
ATOM     22 CL   UNL     1       3.330   4.460  17.489  0.00  0.00    +0.000 Cl
ATOM     23  C   UNL     1       2.591   6.970  18.156  0.00  0.00    +0.000 A 
ATOM     24  C   UNL     1       1.998   7.913  19.018  0.00  0.00    +0.000 A 
ATOM     25  H   UNL     1       0.558   8.538  21.806  0.00  0.00    +0.000 HD
ENDBRANCH   7  11
BRANCH   2  26
ATOM     26  C   UNL     1      -5.638  14.571  22.680  0.00  0.00    +0.000 A 
ATOM     27  C   UNL     1      -6.146  15.238  21.580  0.00  0.00    +0.000 A 
ATOM     28  C   UNL     1      -7.553  15.258  21.721  0.00  0.00    +0.000 A 
ATOM     29  C   UNL     1      -7.820  14.641  22.917  0.00  0.00    +0.000 A 
ATOM     30  O   UNL     1      -6.671  14.234  23.515  0.00  0.00    +0.000 OA
ENDBRANCH   2  26
TORSDOF 2
ENDMDL
