MODEL 1
REMARK VINA RESULT:      -6.5      0.000      0.000
REMARK  Name = 
REMARK  5 active torsions:
REMARK  status: ('A' for Active; 'I' for Inactive)
REMARK    1  A    between atoms: C_1  and  N_2
REMARK    2  A    between atoms: C_3  and  C_5
REMARK    3  A    between atoms: C_5  and  N_6
REMARK    4  A    between atoms: N_14  and  C_15
REMARK    5  A    between atoms: C_15  and  C_16
REMARK                            x       y       z     vdW  Elec       q    Type
REMARK                         _______ _______ _______ _____ _____    ______ ____
ROOT
ATOM      1  N   UNL     1       2.447   7.463  18.703  0.00  0.00    +0.000 NA
ATOM      2  C   UNL     1       1.712   7.866  19.902  0.00  0.00    +0.000 C 
ATOM      3  C   UNL     1       1.670   6.845  21.058  0.00  0.00    +0.000 C 
ATOM      4  O   UNL     1       1.106   5.600  20.672  0.00  0.00    +0.000 OA
ATOM      5  C   UNL     1       2.045   4.626  20.204  0.00  0.00    +0.000 C 
ATOM      6  C   UNL     1       3.015   5.049  19.064  0.00  0.00    +0.000 C 
ATOM      7  C   UNL     1       2.201   6.110  18.201  0.00  0.00    +0.000 C 
ATOM      8  C   UNL     1       4.393   5.667  19.529  0.00  0.00    +0.000 C 
ATOM      9  N   UNL     1       5.525   5.531  18.526  0.00  0.00    +0.000 NA
ATOM     10  C   UNL     1       5.831   4.108  18.606  0.00  0.00    +0.000 C 
ATOM     11  C   UNL     1       4.597   3.211  18.356  0.00  0.00    +0.000 C 
ATOM     12  O   UNL     1       3.284   3.831  18.292  0.00  0.00    +0.000 OA
ENDROOT
BRANCH   1  13
ATOM     13  C   UNL     1       2.678   8.541  17.743  0.00  0.00    +0.000 C 
BRANCH  13  16
ATOM     14  C   UNL     1       1.524  12.087  18.346  0.00  0.00    +0.000 C 
ATOM     15  N   UNL     1       2.303  10.903  18.130  0.00  0.00    +0.000 N 
ATOM     16  C   UNL     1       1.706   9.695  17.854  0.00  0.00    +0.000 C 
ATOM     17  O   UNL     1       0.483   9.545  17.754  0.00  0.00    +0.000 OA
ATOM     18  H   UNL     1       3.312  10.992  18.006  0.00  0.00    +0.000 HD
ENDBRANCH  13  16
ENDBRANCH   1  13
BRANCH   9  19
ATOM     19  C   UNL     1       5.046   5.905  17.175  0.00  0.00    +0.000 C 
BRANCH  19  20
ATOM     20  C   UNL     1       5.720   5.446  15.930  0.00  0.00    +0.000 A 
ATOM     21  C   UNL     1       5.313   4.595  14.925  0.00  0.00    +0.000 A 
ATOM     22  S   UNL     1       6.632   4.407  13.842  0.00  0.00    +0.000 S 
ATOM     23  N   UNL     1       7.631   5.419  14.719  0.00  0.00    +0.000 NA
ATOM     24  N   UNL     1       7.043   5.894  15.793  0.00  0.00    +0.000 NA
ENDBRANCH  19  20
ENDBRANCH   9  19
TORSDOF 4
ENDMDL
MODEL 2
REMARK VINA RESULT:      -6.1      2.305      3.119
REMARK  Name = 
REMARK  5 active torsions:
REMARK  status: ('A' for Active; 'I' for Inactive)
REMARK    1  A    between atoms: C_1  and  N_2
REMARK    2  A    between atoms: C_3  and  C_5
REMARK    3  A    between atoms: C_5  and  N_6
REMARK    4  A    between atoms: N_14  and  C_15
REMARK    5  A    between atoms: C_15  and  C_16
REMARK                            x       y       z     vdW  Elec       q    Type
REMARK                         _______ _______ _______ _____ _____    ______ ____
ROOT
ATOM      1  N   UNL     1       2.988   6.303  18.480  0.00  0.00    +0.000 NA
ATOM      2  C   UNL     1       2.653   7.008  19.717  0.00  0.00    +0.000 C 
ATOM      3  C   UNL     1       2.057   6.153  20.855  0.00  0.00    +0.000 C 
ATOM      4  O   UNL     1       0.867   5.480  20.471  0.00  0.00    +0.000 OA
ATOM      5  C   UNL     1       1.055   4.163  19.945  0.00  0.00    +0.000 C 
ATOM      6  C   UNL     1       2.062   3.992  18.770  0.00  0.00    +0.000 C 
ATOM      7  C   UNL     1       1.991   5.363  17.964  0.00  0.00    +0.000 C 
ATOM      8  C   UNL     1       3.554   3.681  19.186  0.00  0.00    +0.000 C 
ATOM      9  N   UNL     1       4.372   2.956  18.132  0.00  0.00    +0.000 NA
ATOM     10  C   UNL     1       3.799   1.616  18.172  0.00  0.00    +0.000 C 
ATOM     11  C   UNL     1       2.268   1.609  17.960  0.00  0.00    +0.000 C 
ATOM     12  O   UNL     1       1.556   2.876  17.966  0.00  0.00    +0.000 OA
ENDROOT
BRANCH   1  13
ATOM     13  C   UNL     1       3.776   7.087  17.530  0.00  0.00    +0.000 C 
BRANCH  13  16
ATOM     14  C   UNL     1       7.033   5.887  19.023  0.00  0.00    +0.000 C 
ATOM     15  N   UNL     1       5.650   6.115  18.718  0.00  0.00    +0.000 N 
ATOM     16  C   UNL     1       5.272   6.885  17.644  0.00  0.00    +0.000 C 
ATOM     17  O   UNL     1       6.074   7.413  16.865  0.00  0.00    +0.000 OA
ATOM     18  H   UNL     1       4.941   5.557  19.198  0.00  0.00    +0.000 HD
ENDBRANCH  13  16
ENDBRANCH   1  13
BRANCH   9  19
ATOM     19  C   UNL     1       4.164   3.593  16.810  0.00  0.00    +0.000 C 
BRANCH  19  20
ATOM     20  C   UNL     1       5.292   4.060  15.959  0.00  0.00    +0.000 A 
ATOM     21  C   UNL     1       5.340   4.482  14.648  0.00  0.00    +0.000 A 
ATOM     22  S   UNL     1       6.988   4.765  14.256  0.00  0.00    +0.000 S 
ATOM     23  N   UNL     1       7.530   4.335  15.777  0.00  0.00    +0.000 NA
ATOM     24  N   UNL     1       6.550   3.979  16.575  0.00  0.00    +0.000 NA
ENDBRANCH  19  20
ENDBRANCH   9  19
TORSDOF 4
ENDMDL
MODEL 3
REMARK VINA RESULT:      -5.7      7.646     10.501
REMARK  Name = 
REMARK  5 active torsions:
REMARK  status: ('A' for Active; 'I' for Inactive)
REMARK    1  A    between atoms: C_1  and  N_2
REMARK    2  A    between atoms: C_3  and  C_5
REMARK    3  A    between atoms: C_5  and  N_6
REMARK    4  A    between atoms: N_14  and  C_15
REMARK    5  A    between atoms: C_15  and  C_16
REMARK                            x       y       z     vdW  Elec       q    Type
REMARK                         _______ _______ _______ _____ _____    ______ ____
ROOT
ATOM      1  N   UNL     1      -1.570  11.689  18.970  0.00  0.00    +0.000 NA
ATOM      2  C   UNL     1      -0.564  10.805  18.382  0.00  0.00    +0.000 C 
ATOM      3  C   UNL     1       0.809  10.762  19.086  0.00  0.00    +0.000 C 
ATOM      4  O   UNL     1       1.427  12.038  19.162  0.00  0.00    +0.000 OA
ATOM      5  C   UNL     1       1.143  12.782  20.351  0.00  0.00    +0.000 C 
ATOM      6  C   UNL     1      -0.352  12.988  20.733  0.00  0.00    +0.000 C 
ATOM      7  C   UNL     1      -1.130  13.034  19.346  0.00  0.00    +0.000 C 
ATOM      8  C   UNL     1      -0.978  11.882  21.673  0.00  0.00    +0.000 C 
ATOM      9  N   UNL     1      -2.165  12.344  22.499  0.00  0.00    +0.000 NA
ATOM     10  C   UNL     1      -1.529  13.205  23.488  0.00  0.00    +0.000 C 
ATOM     11  C   UNL     1      -0.674  14.325  22.852  0.00  0.00    +0.000 C 
ATOM     12  O   UNL     1      -0.417  14.281  21.422  0.00  0.00    +0.000 OA
ENDROOT
BRANCH   1  13
ATOM     13  C   UNL     1      -2.920  11.512  18.435  0.00  0.00    +0.000 C 
BRANCH  13  16
ATOM     14  C   UNL     1      -3.061  10.381  14.833  0.00  0.00    +0.000 C 
ATOM     15  N   UNL     1      -2.917  11.140  16.041  0.00  0.00    +0.000 N 
ATOM     16  C   UNL     1      -3.009  10.543  17.276  0.00  0.00    +0.000 C 
ATOM     17  O   UNL     1      -3.198   9.332  17.436  0.00  0.00    +0.000 OA
ATOM     18  H   UNL     1      -2.570  12.099  15.982  0.00  0.00    +0.000 HD
ENDBRANCH  13  16
ENDBRANCH   1  13
BRANCH   9  19
ATOM     19  C   UNL     1      -3.105  13.107  21.644  0.00  0.00    +0.000 C 
BRANCH  19  20
ATOM     20  C   UNL     1      -4.569  12.840  21.627  0.00  0.00    +0.000 A 
ATOM     21  C   UNL     1      -5.506  12.922  20.619  0.00  0.00    +0.000 A 
ATOM     22  S   UNL     1      -7.042  12.591  21.313  0.00  0.00    +0.000 S 
ATOM     23  N   UNL     1      -6.415  12.363  22.845  0.00  0.00    +0.000 NA
ATOM     24  N   UNL     1      -5.112  12.527  22.882  0.00  0.00    +0.000 NA
ENDBRANCH  19  20
ENDBRANCH   9  19
TORSDOF 4
ENDMDL
MODEL 4
REMARK VINA RESULT:      -5.7      2.409      4.932
REMARK  Name = 
REMARK  5 active torsions:
REMARK  status: ('A' for Active; 'I' for Inactive)
REMARK    1  A    between atoms: C_1  and  N_2
REMARK    2  A    between atoms: C_3  and  C_5
REMARK    3  A    between atoms: C_5  and  N_6
REMARK    4  A    between atoms: N_14  and  C_15
REMARK    5  A    between atoms: C_15  and  C_16
REMARK                            x       y       z     vdW  Elec       q    Type
REMARK                         _______ _______ _______ _____ _____    ______ ____
ROOT
ATOM      1  N   UNL     1       3.284   3.020  18.596  0.00  0.00    +0.000 NA
ATOM      2  C   UNL     1       2.335   1.993  18.167  0.00  0.00    +0.000 C 
ATOM      3  C   UNL     1       0.845   2.272  18.453  0.00  0.00    +0.000 C 
ATOM      4  O   UNL     1       0.579   2.478  19.833  0.00  0.00    +0.000 OA
ATOM      5  C   UNL     1       0.639   3.839  20.268  0.00  0.00    +0.000 C 
ATOM      6  C   UNL     1       1.928   4.646  19.938  0.00  0.00    +0.000 C 
ATOM      7  C   UNL     1       3.101   3.569  19.941  0.00  0.00    +0.000 C 
ATOM      8  C   UNL     1       1.914   5.432  18.567  0.00  0.00    +0.000 C 
ATOM      9  N   UNL     1       2.844   6.631  18.509  0.00  0.00    +0.000 NA
ATOM     10  C   UNL     1       2.160   7.587  19.371  0.00  0.00    +0.000 C 
ATOM     11  C   UNL     1       1.871   7.026  20.782  0.00  0.00    +0.000 C 
ATOM     12  O   UNL     1       2.090   5.611  21.030  0.00  0.00    +0.000 OA
ENDROOT
BRANCH   1  13
ATOM     13  C   UNL     1       4.643   2.841  18.086  0.00  0.00    +0.000 C 
BRANCH  13  16
ATOM     14  C   UNL     1       6.670   4.159  15.183  0.00  0.00    +0.000 C 
ATOM     15  N   UNL     1       6.227   3.492  16.373  0.00  0.00    +0.000 N 
ATOM     16  C   UNL     1       4.909   3.525  16.763  0.00  0.00    +0.000 C 
ATOM     17  O   UNL     1       4.022   4.102  16.124  0.00  0.00    +0.000 OA
ATOM     18  H   UNL     1       6.862   2.841  16.838  0.00  0.00    +0.000 HD
ENDBRANCH  13  16
ENDBRANCH   1  13
BRANCH   9  19
ATOM     19  C   UNL     1       4.171   6.263  19.055  0.00  0.00    +0.000 C 
BRANCH  19  20
ATOM     20  C   UNL     1       5.440   6.533  18.326  0.00  0.00    +0.000 A 
ATOM     21  C   UNL     1       5.713   7.287  17.205  0.00  0.00    +0.000 A 
ATOM     22  S   UNL     1       7.374   7.069  16.828  0.00  0.00    +0.000 S 
ATOM     23  N   UNL     1       7.636   6.035  18.113  0.00  0.00    +0.000 NA
ATOM     24  N   UNL     1       6.548   5.826  18.818  0.00  0.00    +0.000 NA
ENDBRANCH  19  20
ENDBRANCH   9  19
TORSDOF 4
ENDMDL
MODEL 5
REMARK VINA RESULT:      -5.7      8.210     10.499
REMARK  Name = 
REMARK  5 active torsions:
REMARK  status: ('A' for Active; 'I' for Inactive)
REMARK    1  A    between atoms: C_1  and  N_2
REMARK    2  A    between atoms: C_3  and  C_5
REMARK    3  A    between atoms: C_5  and  N_6
REMARK    4  A    between atoms: N_14  and  C_15
REMARK    5  A    between atoms: C_15  and  C_16
REMARK                            x       y       z     vdW  Elec       q    Type
REMARK                         _______ _______ _______ _____ _____    ______ ____
ROOT
ATOM      1  N   UNL     1       9.865  11.509  18.959  0.00  0.00    +0.000 NA
ATOM      2  C   UNL     1      10.935  11.438  17.965  0.00  0.00    +0.000 C 
ATOM      3  C   UNL     1      11.632  12.769  17.610  0.00  0.00    +0.000 C 
ATOM      4  O   UNL     1      10.728  13.749  17.121  0.00  0.00    +0.000 OA
ATOM      5  C   UNL     1      10.175  14.616  18.116  0.00  0.00    +0.000 C 
ATOM      6  C   UNL     1       9.492  13.956  19.348  0.00  0.00    +0.000 C 
ATOM      7  C   UNL     1       8.888  12.588  18.803  0.00  0.00    +0.000 C 
ATOM      8  C   UNL     1      10.432  13.681  20.588  0.00  0.00    +0.000 C 
ATOM      9  N   UNL     1       9.720  13.609  21.926  0.00  0.00    +0.000 NA
ATOM     10  C   UNL     1       9.373  15.005  22.161  0.00  0.00    +0.000 C 
ATOM     11  C   UNL     1       8.565  15.628  21.000  0.00  0.00    +0.000 C 
ATOM     12  O   UNL     1       8.429  14.879  19.762  0.00  0.00    +0.000 OA
ENDROOT
BRANCH   1  13
ATOM     13  C   UNL     1       9.408  10.210  19.451  0.00  0.00    +0.000 C 
BRANCH  13  16
ATOM     14  C   UNL     1       7.774   7.204  17.849  0.00  0.00    +0.000 C 
ATOM     15  N   UNL     1       8.487   8.091  18.721  0.00  0.00    +0.000 N 
ATOM     16  C   UNL     1       8.539   9.444  18.477  0.00  0.00    +0.000 C 
ATOM     17  O   UNL     1       7.972   9.988  17.523  0.00  0.00    +0.000 OA
ATOM     18  H   UNL     1       8.811   7.741  19.624  0.00  0.00    +0.000 HD
ENDBRANCH  13  16
ENDBRANCH   1  13
BRANCH   9  19
ATOM     19  C   UNL     1       8.508  12.764  21.805  0.00  0.00    +0.000 C 
BRANCH  19  20
ATOM     20  C   UNL     1       7.671  12.391  22.977  0.00  0.00    +0.000 A 
ATOM     21  C   UNL     1       7.941  11.626  24.092  0.00  0.00    +0.000 A 
ATOM     22  S   UNL     1       6.485  11.499  24.996  0.00  0.00    +0.000 S 
ATOM     23  N   UNL     1       5.612  12.424  23.914  0.00  0.00    +0.000 NA
ATOM     24  N   UNL     1       6.340  12.826  22.897  0.00  0.00    +0.000 NA
ENDBRANCH  19  20
ENDBRANCH   9  19
TORSDOF 4
ENDMDL
MODEL 6
REMARK VINA RESULT:      -5.7      8.020     10.751
REMARK  Name = 
REMARK  5 active torsions:
REMARK  status: ('A' for Active; 'I' for Inactive)
REMARK    1  A    between atoms: C_1  and  N_2
REMARK    2  A    between atoms: C_3  and  C_5
REMARK    3  A    between atoms: C_5  and  N_6
REMARK    4  A    between atoms: N_14  and  C_15
REMARK    5  A    between atoms: C_15  and  C_16
REMARK                            x       y       z     vdW  Elec       q    Type
REMARK                         _______ _______ _______ _____ _____    ______ ____
ROOT
ATOM      1  N   UNL     1      -0.370  11.929  19.390  0.00  0.00    +0.000 NA
ATOM      2  C   UNL     1       0.930  11.822  18.730  0.00  0.00    +0.000 C 
ATOM      3  C   UNL     1       1.970  12.908  19.079  0.00  0.00    +0.000 C 
ATOM      4  O   UNL     1       1.509  14.221  18.793  0.00  0.00    +0.000 OA
ATOM      5  C   UNL     1       0.851  14.884  19.877  0.00  0.00    +0.000 C 
ATOM      6  C   UNL     1      -0.327  14.140  20.569  0.00  0.00    +0.000 C 
ATOM      7  C   UNL     1      -0.988  13.255  19.423  0.00  0.00    +0.000 C 
ATOM      8  C   UNL     1       0.065  13.230  21.801  0.00  0.00    +0.000 C 
ATOM      9  N   UNL     1      -1.052  12.994  22.801  0.00  0.00    +0.000 NA
ATOM     10  C   UNL     1      -1.155  14.294  23.453  0.00  0.00    +0.000 C 
ATOM     11  C   UNL     1      -1.378  15.452  22.454  0.00  0.00    +0.000 C 
ATOM     12  O   UNL     1      -1.247  15.184  21.032  0.00  0.00    +0.000 OA
ENDROOT
BRANCH   1  13
ATOM     13  C   UNL     1      -1.228  10.755  19.233  0.00  0.00    +0.000 C 
BRANCH  13  16
ATOM     14  C   UNL     1      -2.715  10.872  15.762  0.00  0.00    +0.000 C 
ATOM     15  N   UNL     1      -1.851  10.696  16.892  0.00  0.00    +0.000 N 
ATOM     16  C   UNL     1      -2.301  10.903  18.176  0.00  0.00    +0.000 C 
ATOM     17  O   UNL     1      -3.461  11.230  18.448  0.00  0.00    +0.000 OA
ATOM     18  H   UNL     1      -0.946  10.243  16.755  0.00  0.00    +0.000 HD
ENDBRANCH  13  16
ENDBRANCH   1  13
BRANCH   9  19
ATOM     19  C   UNL     1      -2.303  12.648  22.085  0.00  0.00    +0.000 C 
BRANCH  19  20
ATOM     20  C   UNL     1      -3.638  12.685  22.741  0.00  0.00    +0.000 A 
ATOM     21  C   UNL     1      -4.797  13.360  22.426  0.00  0.00    +0.000 A 
ATOM     22  S   UNL     1      -5.933  13.047  23.676  0.00  0.00    +0.000 S 
ATOM     23  N   UNL     1      -4.878  12.075  24.532  0.00  0.00    +0.000 NA
ATOM     24  N   UNL     1      -3.708  11.968  23.945  0.00  0.00    +0.000 NA
ENDBRANCH  19  20
ENDBRANCH   9  19
TORSDOF 4
ENDMDL
MODEL 7
REMARK VINA RESULT:      -5.7      3.849      6.299
REMARK  Name = 
REMARK  5 active torsions:
REMARK  status: ('A' for Active; 'I' for Inactive)
REMARK    1  A    between atoms: C_1  and  N_2
REMARK    2  A    between atoms: C_3  and  C_5
REMARK    3  A    between atoms: C_5  and  N_6
REMARK    4  A    between atoms: N_14  and  C_15
REMARK    5  A    between atoms: C_15  and  C_16
REMARK                            x       y       z     vdW  Elec       q    Type
REMARK                         _______ _______ _______ _____ _____    ______ ____
ROOT
ATOM      1  N   UNL     1       4.562   4.615  16.172  0.00  0.00    +0.000 NA
ATOM      2  C   UNL     1       4.857   3.833  14.971  0.00  0.00    +0.000 C 
ATOM      3  C   UNL     1       6.337   3.771  14.538  0.00  0.00    +0.000 C 
ATOM      4  O   UNL     1       6.894   5.055  14.299  0.00  0.00    +0.000 OA
ATOM      5  C   UNL     1       7.530   5.663  15.427  0.00  0.00    +0.000 C 
ATOM      6  C   UNL     1       6.710   5.772  16.745  0.00  0.00    +0.000 C 
ATOM      7  C   UNL     1       5.196   5.929  16.277  0.00  0.00    +0.000 C 
ATOM      8  C   UNL     1       6.848   4.554  17.742  0.00  0.00    +0.000 C 
ATOM      9  N   UNL     1       6.565   4.885  19.197  0.00  0.00    +0.000 NA
ATOM     10  C   UNL     1       7.741   5.664  19.564  0.00  0.00    +0.000 C 
ATOM     11  C   UNL     1       7.978   6.874  18.632  0.00  0.00    +0.000 C 
ATOM     12  O   UNL     1       7.187   6.985  17.417  0.00  0.00    +0.000 OA
ENDROOT
BRANCH   1  13
ATOM     13  C   UNL     1       3.205   4.442  16.689  0.00  0.00    +0.000 C 
BRANCH  13  16
ATOM     14  C   UNL     1       3.992   1.086  18.234  0.00  0.00    +0.000 C 
ATOM     15  N   UNL     1       4.059   2.422  17.718  0.00  0.00    +0.000 N 
ATOM     16  C   UNL     1       2.931   3.076  17.279  0.00  0.00    +0.000 C 
ATOM     17  O   UNL     1       1.798   2.582  17.314  0.00  0.00    +0.000 OA
ATOM     18  H   UNL     1       4.921   2.955  17.840  0.00  0.00    +0.000 HD
ENDBRANCH  13  16
ENDBRANCH   1  13
BRANCH   9  19
ATOM     19  C   UNL     1       5.328   5.694  19.296  0.00  0.00    +0.000 C 
BRANCH  19  20
ATOM     20  C   UNL     1       4.046   5.139  19.809  0.00  0.00    +0.000 A 
ATOM     21  C   UNL     1       2.802   5.708  19.981  0.00  0.00    +0.000 A 
ATOM     22  S   UNL     1       1.798   4.535  20.733  0.00  0.00    +0.000 S 
ATOM     23  N   UNL     1       3.007   3.384  20.789  0.00  0.00    +0.000 NA
ATOM     24  N   UNL     1       4.138   3.821  20.283  0.00  0.00    +0.000 NA
ENDBRANCH  19  20
ENDBRANCH   9  19
TORSDOF 4
ENDMDL
MODEL 8
REMARK VINA RESULT:      -5.6      7.968     10.131
REMARK  Name = 
REMARK  5 active torsions:
REMARK  status: ('A' for Active; 'I' for Inactive)
REMARK    1  A    between atoms: C_1  and  N_2
REMARK    2  A    between atoms: C_3  and  C_5
REMARK    3  A    between atoms: C_5  and  N_6
REMARK    4  A    between atoms: N_14  and  C_15
REMARK    5  A    between atoms: C_15  and  C_16
REMARK                            x       y       z     vdW  Elec       q    Type
REMARK                         _______ _______ _______ _____ _____    ______ ____
ROOT
ATOM      1  N   UNL     1      -4.008  13.876  21.492  0.00  0.00    +0.000 NA
ATOM      2  C   UNL     1      -4.067  15.029  22.391  0.00  0.00    +0.000 C 
ATOM      3  C   UNL     1      -2.771  15.371  23.156  0.00  0.00    +0.000 C 
ATOM      4  O   UNL     1      -2.304  14.293  23.955  0.00  0.00    +0.000 OA
ATOM      5  C   UNL     1      -1.373  13.417  23.312  0.00  0.00    +0.000 C 
ATOM      6  C   UNL     1      -1.785  12.809  21.940  0.00  0.00    +0.000 C 
ATOM      7  C   UNL     1      -3.369  12.666  22.011  0.00  0.00    +0.000 C 
ATOM      8  C   UNL     1      -1.370  13.646  20.666  0.00  0.00    +0.000 C 
ATOM      9  N   UNL     1      -1.227  12.837  19.389  0.00  0.00    +0.000 NA
ATOM     10  C   UNL     1       0.005  12.098  19.635  0.00  0.00    +0.000 C 
ATOM     11  C   UNL     1      -0.032  11.284  20.948  0.00  0.00    +0.000 C 
ATOM     12  O   UNL     1      -1.135  11.496  21.871  0.00  0.00    +0.000 OA
ENDROOT
BRANCH   1  13
ATOM     13  C   UNL     1      -5.162  13.740  20.605  0.00  0.00    +0.000 C 
BRANCH  13  16
ATOM     14  C   UNL     1      -7.221  10.591  20.258  0.00  0.00    +0.000 C 
ATOM     15  N   UNL     1      -6.281  11.658  20.073  0.00  0.00    +0.000 N 
ATOM     16  C   UNL     1      -6.136  12.655  21.009  0.00  0.00    +0.000 C 
ATOM     17  O   UNL     1      -6.775  12.696  22.066  0.00  0.00    +0.000 OA
ATOM     18  H   UNL     1      -5.590  11.582  19.324  0.00  0.00    +0.000 HD
ENDBRANCH  13  16
ENDBRANCH   1  13
BRANCH   9  19
ATOM     19  C   UNL     1      -2.385  11.923  19.242  0.00  0.00    +0.000 C 
BRANCH  19  20
ATOM     20  C   UNL     1      -2.875  11.460  17.916  0.00  0.00    +0.000 A 
ATOM     21  C   UNL     1      -2.212  10.970  16.811  0.00  0.00    +0.000 A 
ATOM     22  S   UNL     1      -3.377  10.737  15.570  0.00  0.00    +0.000 S 
ATOM     23  N   UNL     1      -4.645  11.269  16.519  0.00  0.00    +0.000 NA
ATOM     24  N   UNL     1      -4.255  11.626  17.721  0.00  0.00    +0.000 NA
ENDBRANCH  19  20
ENDBRANCH   9  19
TORSDOF 4
ENDMDL
MODEL 9
REMARK VINA RESULT:      -5.5      7.218     10.677
REMARK  Name = 
REMARK  5 active torsions:
REMARK  status: ('A' for Active; 'I' for Inactive)
REMARK    1  A    between atoms: C_1  and  N_2
REMARK    2  A    between atoms: C_3  and  C_5
REMARK    3  A    between atoms: C_5  and  N_6
REMARK    4  A    between atoms: N_14  and  C_15
REMARK    5  A    between atoms: C_15  and  C_16
REMARK                            x       y       z     vdW  Elec       q    Type
REMARK                         _______ _______ _______ _____ _____    ______ ____
ROOT
ATOM      1  N   UNL     1       0.036  11.692  19.604  0.00  0.00    +0.000 NA
ATOM      2  C   UNL     1       1.360  11.625  18.985  0.00  0.00    +0.000 C 
ATOM      3  C   UNL     1       2.206  12.916  19.030  0.00  0.00    +0.000 C 
ATOM      4  O   UNL     1       1.557  14.019  18.414  0.00  0.00    +0.000 OA
ATOM      5  C   UNL     1       0.767  14.827  19.292  0.00  0.00    +0.000 C 
ATOM      6  C   UNL     1      -0.304  14.111  20.164  0.00  0.00    +0.000 C 
ATOM      7  C   UNL     1      -0.780  12.866  19.293  0.00  0.00    +0.000 C 
ATOM      8  C   UNL     1       0.182  13.626  21.587  0.00  0.00    +0.000 C 
ATOM      9  N   UNL     1      -0.919  13.484  22.623  0.00  0.00    +0.000 NA
ATOM     10  C   UNL     1      -1.244  14.875  22.913  0.00  0.00    +0.000 C 
ATOM     11  C   UNL     1      -1.610  15.684  21.647  0.00  0.00    +0.000 C 
ATOM     12  O   UNL     1      -1.390  15.080  20.344  0.00  0.00    +0.000 OA
ENDROOT
BRANCH   1  13
ATOM     13  C   UNL     1      -0.623  10.397  19.766  0.00  0.00    +0.000 C 
BRANCH  13  16
ATOM     14  C   UNL     1      -0.044   9.483  23.386  0.00  0.00    +0.000 C 
ATOM     15  N   UNL     1      -0.497  10.084  22.164  0.00  0.00    +0.000 N 
ATOM     16  C   UNL     1      -0.122   9.584  20.939  0.00  0.00    +0.000 C 
ATOM     17  O   UNL     1       0.601   8.591  20.799  0.00  0.00    +0.000 OA
ATOM     18  H   UNL     1      -1.243  10.779  22.205  0.00  0.00    +0.000 HD
ENDBRANCH  13  16
ENDBRANCH   1  13
BRANCH   9  19
ATOM     19  C   UNL     1      -2.075  12.770  22.032  0.00  0.00    +0.000 C 
BRANCH  19  20
ATOM     20  C   UNL     1      -3.415  12.743  22.677  0.00  0.00    +0.000 A 
ATOM     21  C   UNL     1      -4.598  13.378  22.364  0.00  0.00    +0.000 A 
ATOM     22  S   UNL     1      -5.730  13.001  23.600  0.00  0.00    +0.000 S 
ATOM     23  N   UNL     1      -4.644  12.056  24.448  0.00  0.00    +0.000 NA
ATOM     24  N   UNL     1      -3.466  12.005  23.869  0.00  0.00    +0.000 NA
ENDBRANCH  19  20
ENDBRANCH   9  19
TORSDOF 4
ENDMDL
