MODEL 1
REMARK VINA RESULT:      -9.6      0.000      0.000
REMARK  Name = 
REMARK  7 active torsions:
REMARK  status: ('A' for Active; 'I' for Inactive)
REMARK    1  A    between atoms: C_2  and  C_13
REMARK    2  A    between atoms: N_3  and  C_4
REMARK    3  A    between atoms: C_9  and  C_10
REMARK    4  A    between atoms: C_10  and  O_12
REMARK    5  A    between atoms: C_16  and  C_17
REMARK    6  A    between atoms: C_25  and  O_26
REMARK    7  A    between atoms: O_26  and  C_27
REMARK                            x       y       z     vdW  Elec       q    Type
REMARK                         _______ _______ _______ _____ _____    ______ ____
ROOT
ATOM      1  C   UNL     1       1.583   8.915  19.063  0.00  0.00    +0.000 A 
ATOM      2  C   UNL     1       2.152   9.291  17.854  0.00  0.00    +0.000 A 
ATOM      3  C   UNL     1       3.178   8.510  17.307  0.00  0.00    +0.000 A 
ATOM      4  C   UNL     1       3.634   7.315  17.917  0.00  0.00    +0.000 A 
ATOM      5  C   UNL     1       3.007   6.944  19.128  0.00  0.00    +0.000 A 
ATOM      6  C   UNL     1       2.050   7.782  19.728  0.00  0.00    +0.000 A 
ENDROOT
BRANCH   4   7
ATOM      7  C   UNL     1       4.714   6.529  17.256  0.00  0.00    +0.000 A 
ATOM      8  C   UNL     1       4.716   6.334  15.855  0.00  0.00    +0.000 A 
ATOM      9  C   UNL     1       5.684   5.546  15.219  0.00  0.00    +0.000 A 
ATOM     10  C   UNL     1       6.688   4.962  15.971  0.00  0.00    +0.000 A 
ATOM     11  F   UNL     1       7.614   4.206  15.364  0.00  0.00    +0.000 F 
ATOM     12  C   UNL     1       6.727   5.153  17.343  0.00  0.00    +0.000 A 
ATOM     13  F   UNL     1       7.701   4.593  18.073  0.00  0.00    +0.000 F 
ATOM     14  C   UNL     1       5.748   5.914  17.983  0.00  0.00    +0.000 A 
ENDBRANCH   4   7
BRANCH   1  16
ATOM     15  O   UNL     1      -0.640   9.604  19.165  0.00  0.00    +0.000 OA
ATOM     16  C   UNL     1       0.470   9.667  19.677  0.00  0.00    +0.000 C 
ATOM     17  N   UNL     1       0.818  10.524  20.713  0.00  0.00    +0.000 N 
ATOM     18  H   UNL     1       1.796  10.792  20.799  0.00  0.00    +0.000 HD
BRANCH  17  19
ATOM     19  C   UNL     1      -0.152  11.322  21.371  0.00  0.00    +0.000 A 
ATOM     20  C   UNL     1      -0.509  12.560  20.818  0.00  0.00    +0.000 A 
ATOM     21  C   UNL     1      -1.470  13.366  21.429  0.00  0.00    +0.000 A 
ATOM     22  C   UNL     1      -2.086  12.945  22.603  0.00  0.00    +0.000 A 
ATOM     23  C   UNL     1      -1.745  11.714  23.166  0.00  0.00    +0.000 A 
ATOM     24  C   UNL     1      -0.781  10.899  22.555  0.00  0.00    +0.000 A 
BRANCH  24  25
ATOM     25  C   UNL     1      -0.412   9.652  23.267  0.00  0.00    +0.000 C 
ATOM     26  O   UNL     1       0.337   9.624  24.227  0.00  0.00    +0.000 OA
BRANCH  25  27
ATOM     27  O   UNL     1      -0.964   8.542  22.725  0.00  0.00    +0.000 OA
ATOM     28  H   UNL     1      -1.143   7.841  23.387  0.00  0.00    +0.000 HD
ENDBRANCH  25  27
ENDBRANCH  24  25
ENDBRANCH  17  19
ENDBRANCH   1  16
BRANCH   5  29
ATOM     29  O   UNL     1       3.368   5.766  19.760  0.00  0.00    +0.000 OA
BRANCH  29  30
ATOM     30  C   UNL     1       2.479   4.705  19.758  0.00  0.00    +0.000 A 
ATOM     31  C   UNL     1       1.958   4.101  20.911  0.00  0.00    +0.000 A 
ATOM     32  C   UNL     1       1.126   2.985  20.808  0.00  0.00    +0.000 A 
ATOM     33  C   UNL     1       0.754   2.508  19.554  0.00  0.00    +0.000 A 
ATOM     34  C   UNL     1       1.207   3.151  18.403  0.00  0.00    +0.000 A 
ATOM     35  C   UNL     1       2.072   4.246  18.505  0.00  0.00    +0.000 A 
ENDBRANCH  29  30
ENDBRANCH   5  29
TORSDOF 7
ENDMDL
MODEL 2
REMARK VINA RESULT:      -9.5      0.594      1.092
REMARK  Name = 
REMARK  7 active torsions:
REMARK  status: ('A' for Active; 'I' for Inactive)
REMARK    1  A    between atoms: C_2  and  C_13
REMARK    2  A    between atoms: N_3  and  C_4
REMARK    3  A    between atoms: C_9  and  C_10
REMARK    4  A    between atoms: C_10  and  O_12
REMARK    5  A    between atoms: C_16  and  C_17
REMARK    6  A    between atoms: C_25  and  O_26
REMARK    7  A    between atoms: O_26  and  C_27
REMARK                            x       y       z     vdW  Elec       q    Type
REMARK                         _______ _______ _______ _____ _____    ______ ____
ROOT
ATOM      1  C   UNL     1       1.568   8.909  19.084  0.00  0.00    +0.000 A 
ATOM      2  C   UNL     1       2.118   9.291  17.867  0.00  0.00    +0.000 A 
ATOM      3  C   UNL     1       3.142   8.517  17.305  0.00  0.00    +0.000 A 
ATOM      4  C   UNL     1       3.613   7.324  17.907  0.00  0.00    +0.000 A 
ATOM      5  C   UNL     1       3.005   6.947  19.126  0.00  0.00    +0.000 A 
ATOM      6  C   UNL     1       2.051   7.778  19.741  0.00  0.00    +0.000 A 
ENDROOT
BRANCH   4   7
ATOM      7  C   UNL     1       4.690   6.546  17.231  0.00  0.00    +0.000 A 
ATOM      8  C   UNL     1       6.048   6.733  17.580  0.00  0.00    +0.000 A 
ATOM      9  C   UNL     1       7.082   6.061  16.915  0.00  0.00    +0.000 A 
ATOM     10  C   UNL     1       6.774   5.165  15.906  0.00  0.00    +0.000 A 
ATOM     11  F   UNL     1       7.762   4.523  15.268  0.00  0.00    +0.000 F 
ATOM     12  C   UNL     1       5.451   4.943  15.556  0.00  0.00    +0.000 A 
ATOM     13  F   UNL     1       5.149   4.072  14.584  0.00  0.00    +0.000 F 
ATOM     14  C   UNL     1       4.421   5.632  16.198  0.00  0.00    +0.000 A 
ENDBRANCH   4   7
BRANCH   1  16
ATOM     15  O   UNL     1      -0.672   9.527  19.259  0.00  0.00    +0.000 OA
ATOM     16  C   UNL     1       0.458   9.652  19.714  0.00  0.00    +0.000 C 
ATOM     17  N   UNL     1       0.823  10.569  20.691  0.00  0.00    +0.000 N 
ATOM     18  H   UNL     1       1.794  10.874  20.717  0.00  0.00    +0.000 HD
BRANCH  17  19
ATOM     19  C   UNL     1      -0.143  11.366  21.356  0.00  0.00    +0.000 A 
ATOM     20  C   UNL     1      -0.518  12.596  20.797  0.00  0.00    +0.000 A 
ATOM     21  C   UNL     1      -1.476  13.400  21.415  0.00  0.00    +0.000 A 
ATOM     22  C   UNL     1      -2.071  12.986  22.602  0.00  0.00    +0.000 A 
ATOM     23  C   UNL     1      -1.712  11.763  23.171  0.00  0.00    +0.000 A 
ATOM     24  C   UNL     1      -0.750  10.949  22.553  0.00  0.00    +0.000 A 
BRANCH  24  25
ATOM     25  C   UNL     1      -0.361   9.712  23.271  0.00  0.00    +0.000 C 
ATOM     26  O   UNL     1       0.585   9.649  24.035  0.00  0.00    +0.000 OA
BRANCH  25  27
ATOM     27  O   UNL     1      -1.142   8.649  22.969  0.00  0.00    +0.000 OA
ATOM     28  H   UNL     1      -0.646   7.918  22.544  0.00  0.00    +0.000 HD
ENDBRANCH  25  27
ENDBRANCH  24  25
ENDBRANCH  17  19
ENDBRANCH   1  16
BRANCH   5  29
ATOM     29  O   UNL     1       3.383   5.770  19.751  0.00  0.00    +0.000 OA
BRANCH  29  30
ATOM     30  C   UNL     1       2.491   4.711  19.781  0.00  0.00    +0.000 A 
ATOM     31  C   UNL     1       1.990   4.126  20.951  0.00  0.00    +0.000 A 
ATOM     32  C   UNL     1       1.153   3.010  20.879  0.00  0.00    +0.000 A 
ATOM     33  C   UNL     1       0.758   2.516  19.640  0.00  0.00    +0.000 A 
ATOM     34  C   UNL     1       1.192   3.142  18.471  0.00  0.00    +0.000 A 
ATOM     35  C   UNL     1       2.060   4.236  18.542  0.00  0.00    +0.000 A 
ENDBRANCH  29  30
ENDBRANCH   5  29
TORSDOF 7
ENDMDL
MODEL 3
REMARK VINA RESULT:      -9.3      1.610      2.595
REMARK  Name = 
REMARK  7 active torsions:
REMARK  status: ('A' for Active; 'I' for Inactive)
REMARK    1  A    between atoms: C_2  and  C_13
REMARK    2  A    between atoms: N_3  and  C_4
REMARK    3  A    between atoms: C_9  and  C_10
REMARK    4  A    between atoms: C_10  and  O_12
REMARK    5  A    between atoms: C_16  and  C_17
REMARK    6  A    between atoms: C_25  and  O_26
REMARK    7  A    between atoms: O_26  and  C_27
REMARK                            x       y       z     vdW  Elec       q    Type
REMARK                         _______ _______ _______ _____ _____    ______ ____
ROOT
ATOM      1  C   UNL     1       1.254   8.904  19.395  0.00  0.00    +0.000 A 
ATOM      2  C   UNL     1       1.731   9.268  18.142  0.00  0.00    +0.000 A 
ATOM      3  C   UNL     1       2.756   8.516  17.555  0.00  0.00    +0.000 A 
ATOM      4  C   UNL     1       3.302   7.361  18.168  0.00  0.00    +0.000 A 
ATOM      5  C   UNL     1       2.768   7.000  19.427  0.00  0.00    +0.000 A 
ATOM      6  C   UNL     1       1.812   7.814  20.061  0.00  0.00    +0.000 A 
ENDROOT
BRANCH   4   7
ATOM      7  C   UNL     1       4.375   6.603  17.465  0.00  0.00    +0.000 A 
ATOM      8  C   UNL     1       4.096   5.367  16.834  0.00  0.00    +0.000 A 
ATOM      9  C   UNL     1       5.100   4.606  16.222  0.00  0.00    +0.000 A 
ATOM     10  C   UNL     1       6.400   5.081  16.203  0.00  0.00    +0.000 A 
ATOM     11  F   UNL     1       7.361   4.353  15.619  0.00  0.00    +0.000 F 
ATOM     12  C   UNL     1       6.701   6.299  16.792  0.00  0.00    +0.000 A 
ATOM     13  F   UNL     1       7.957   6.765  16.770  0.00  0.00    +0.000 F 
ATOM     14  C   UNL     1       5.708   7.047  17.427  0.00  0.00    +0.000 A 
ENDBRANCH   4   7
BRANCH   1  16
ATOM     15  O   UNL     1      -0.423   9.097  21.001  0.00  0.00    +0.000 OA
ATOM     16  C   UNL     1       0.147   9.625  20.055  0.00  0.00    +0.000 C 
ATOM     17  N   UNL     1      -0.265  10.798  19.436  0.00  0.00    +0.000 N 
ATOM     18  H   UNL     1       0.002  10.940  18.464  0.00  0.00    +0.000 HD
BRANCH  17  19
ATOM     19  C   UNL     1      -1.334  11.572  19.953  0.00  0.00    +0.000 A 
ATOM     20  C   UNL     1      -1.184  12.203  21.196  0.00  0.00    +0.000 A 
ATOM     21  C   UNL     1      -2.208  12.986  21.729  0.00  0.00    +0.000 A 
ATOM     22  C   UNL     1      -3.398  13.146  21.028  0.00  0.00    +0.000 A 
ATOM     23  C   UNL     1      -3.564  12.528  19.787  0.00  0.00    +0.000 A 
ATOM     24  C   UNL     1      -2.536  11.742  19.245  0.00  0.00    +0.000 A 
BRANCH  24  25
ATOM     25  C   UNL     1      -2.829  11.048  17.968  0.00  0.00    +0.000 C 
ATOM     26  O   UNL     1      -2.618   9.862  17.785  0.00  0.00    +0.000 OA
BRANCH  25  27
ATOM     27  O   UNL     1      -3.324  11.869  17.014  0.00  0.00    +0.000 OA
ATOM     28  H   UNL     1      -2.873  12.739  16.985  0.00  0.00    +0.000 HD
ENDBRANCH  25  27
ENDBRANCH  24  25
ENDBRANCH  17  19
ENDBRANCH   1  16
BRANCH   5  29
ATOM     29  O   UNL     1       3.220   5.860  20.068  0.00  0.00    +0.000 OA
BRANCH  29  30
ATOM     30  C   UNL     1       2.423   4.727  20.063  0.00  0.00    +0.000 A 
ATOM     31  C   UNL     1       1.778   4.214  18.930  0.00  0.00    +0.000 A 
ATOM     32  C   UNL     1       0.932   3.108  19.040  0.00  0.00    +0.000 A 
ATOM     33  C   UNL     1       0.781   2.469  20.267  0.00  0.00    +0.000 A 
ATOM     34  C   UNL     1       1.481   2.929  21.383  0.00  0.00    +0.000 A 
ATOM     35  C   UNL     1       2.298   4.059  21.281  0.00  0.00    +0.000 A 
ENDBRANCH  29  30
ENDBRANCH   5  29
TORSDOF 7
ENDMDL
MODEL 4
REMARK VINA RESULT:      -9.3      4.511      9.194
REMARK  Name = 
REMARK  7 active torsions:
REMARK  status: ('A' for Active; 'I' for Inactive)
REMARK    1  A    between atoms: C_2  and  C_13
REMARK    2  A    between atoms: N_3  and  C_4
REMARK    3  A    between atoms: C_9  and  C_10
REMARK    4  A    between atoms: C_10  and  O_12
REMARK    5  A    between atoms: C_16  and  C_17
REMARK    6  A    between atoms: C_25  and  O_26
REMARK    7  A    between atoms: O_26  and  C_27
REMARK                            x       y       z     vdW  Elec       q    Type
REMARK                         _______ _______ _______ _____ _____    ______ ____
ROOT
ATOM      1  C   UNL     1       1.511   8.366  20.339  0.00  0.00    +0.000 A 
ATOM      2  C   UNL     1       1.310   8.419  21.712  0.00  0.00    +0.000 A 
ATOM      3  C   UNL     1       0.607   9.498  22.261  0.00  0.00    +0.000 A 
ATOM      4  C   UNL     1       0.046  10.527  21.464  0.00  0.00    +0.000 A 
ATOM      5  C   UNL     1       0.239  10.422  20.067  0.00  0.00    +0.000 A 
ATOM      6  C   UNL     1       1.033   9.394  19.527  0.00  0.00    +0.000 A 
ENDROOT
BRANCH   4   7
ATOM      7  C   UNL     1      -0.708  11.629  22.126  0.00  0.00    +0.000 A 
ATOM      8  C   UNL     1      -0.253  12.967  22.051  0.00  0.00    +0.000 A 
ATOM      9  C   UNL     1      -0.909  14.010  22.717  0.00  0.00    +0.000 A 
ATOM     10  C   UNL     1      -2.052  13.738  23.449  0.00  0.00    +0.000 A 
ATOM     11  F   UNL     1      -2.680  14.735  24.088  0.00  0.00    +0.000 F 
ATOM     12  C   UNL     1      -2.537  12.442  23.523  0.00  0.00    +0.000 A 
ATOM     13  F   UNL     1      -3.646  12.177  24.225  0.00  0.00    +0.000 F 
ATOM     14  C   UNL     1      -1.869  11.396  22.883  0.00  0.00    +0.000 A 
ENDBRANCH   4   7
BRANCH   1  16
ATOM     15  O   UNL     1       2.268   7.208  18.465  0.00  0.00    +0.000 OA
ATOM     16  C   UNL     1       2.205   7.237  19.687  0.00  0.00    +0.000 C 
ATOM     17  N   UNL     1       2.600   6.205  20.527  0.00  0.00    +0.000 N 
ATOM     18  H   UNL     1       2.163   6.146  21.444  0.00  0.00    +0.000 HD
BRANCH  17  19
ATOM     19  C   UNL     1       3.254   5.052  20.026  0.00  0.00    +0.000 A 
ATOM     20  C   UNL     1       4.414   5.203  19.252  0.00  0.00    +0.000 A 
ATOM     21  C   UNL     1       5.093   4.091  18.754  0.00  0.00    +0.000 A 
ATOM     22  C   UNL     1       4.620   2.811  19.022  0.00  0.00    +0.000 A 
ATOM     23  C   UNL     1       3.470   2.640  19.794  0.00  0.00    +0.000 A 
ATOM     24  C   UNL     1       2.783   3.755  20.299  0.00  0.00    +0.000 A 
BRANCH  24  25
ATOM     25  C   UNL     1       1.521   3.489  21.029  0.00  0.00    +0.000 C 
ATOM     26  O   UNL     1       1.468   2.847  22.063  0.00  0.00    +0.000 OA
BRANCH  25  27
ATOM     27  O   UNL     1       0.430   4.000  20.417  0.00  0.00    +0.000 OA
ATOM     28  H   UNL     1      -0.188   4.439  21.039  0.00  0.00    +0.000 HD
ENDBRANCH  25  27
ENDBRANCH  24  25
ENDBRANCH  17  19
ENDBRANCH   1  16
BRANCH   5  29
ATOM     29  O   UNL     1      -0.316  11.366  19.221  0.00  0.00    +0.000 OA
BRANCH  29  30
ATOM     30  C   UNL     1      -1.515  11.078  18.589  0.00  0.00    +0.000 A 
ATOM     31  C   UNL     1      -1.677  10.095  17.604  0.00  0.00    +0.000 A 
ATOM     32  C   UNL     1      -2.911   9.930  16.970  0.00  0.00    +0.000 A 
ATOM     33  C   UNL     1      -4.004  10.697  17.364  0.00  0.00    +0.000 A 
ATOM     34  C   UNL     1      -3.867  11.623  18.398  0.00  0.00    +0.000 A 
ATOM     35  C   UNL     1      -2.623  11.816  19.007  0.00  0.00    +0.000 A 
ENDBRANCH  29  30
ENDBRANCH   5  29
TORSDOF 7
ENDMDL
MODEL 5
REMARK VINA RESULT:      -9.2      1.523      2.618
REMARK  Name = 
REMARK  7 active torsions:
REMARK  status: ('A' for Active; 'I' for Inactive)
REMARK    1  A    between atoms: C_2  and  C_13
REMARK    2  A    between atoms: N_3  and  C_4
REMARK    3  A    between atoms: C_9  and  C_10
REMARK    4  A    between atoms: C_10  and  O_12
REMARK    5  A    between atoms: C_16  and  C_17
REMARK    6  A    between atoms: C_25  and  O_26
REMARK    7  A    between atoms: O_26  and  C_27
REMARK                            x       y       z     vdW  Elec       q    Type
REMARK                         _______ _______ _______ _____ _____    ______ ____
ROOT
ATOM      1  C   UNL     1       1.532   8.784  19.175  0.00  0.00    +0.000 A 
ATOM      2  C   UNL     1       2.072   9.169  17.955  0.00  0.00    +0.000 A 
ATOM      3  C   UNL     1       3.108   8.411  17.394  0.00  0.00    +0.000 A 
ATOM      4  C   UNL     1       3.603   7.230  18.001  0.00  0.00    +0.000 A 
ATOM      5  C   UNL     1       3.005   6.849  19.224  0.00  0.00    +0.000 A 
ATOM      6  C   UNL     1       2.038   7.666  19.837  0.00  0.00    +0.000 A 
ENDROOT
BRANCH   4   7
ATOM      7  C   UNL     1       4.692   6.468  17.326  0.00  0.00    +0.000 A 
ATOM      8  C   UNL     1       6.045   6.658  17.694  0.00  0.00    +0.000 A 
ATOM      9  C   UNL     1       7.090   6.002  17.031  0.00  0.00    +0.000 A 
ATOM     10  C   UNL     1       6.799   5.118  16.006  0.00  0.00    +0.000 A 
ATOM     11  F   UNL     1       7.798   4.490  15.371  0.00  0.00    +0.000 F 
ATOM     12  C   UNL     1       5.482   4.893  15.639  0.00  0.00    +0.000 A 
ATOM     13  F   UNL     1       5.196   4.034  14.651  0.00  0.00    +0.000 F 
ATOM     14  C   UNL     1       4.440   5.567  16.278  0.00  0.00    +0.000 A 
ENDBRANCH   4   7
BRANCH   1  16
ATOM     15  O   UNL     1      -0.135   9.023  20.785  0.00  0.00    +0.000 OA
ATOM     16  C   UNL     1       0.411   9.511  19.804  0.00  0.00    +0.000 C 
ATOM     17  N   UNL     1      -0.041  10.633  19.121  0.00  0.00    +0.000 N 
ATOM     18  H   UNL     1       0.213  10.725  18.140  0.00  0.00    +0.000 HD
BRANCH  17  19
ATOM     19  C   UNL     1      -1.127  11.405  19.604  0.00  0.00    +0.000 A 
ATOM     20  C   UNL     1      -0.969  12.150  20.781  0.00  0.00    +0.000 A 
ATOM     21  C   UNL     1      -2.010  12.934  21.278  0.00  0.00    +0.000 A 
ATOM     22  C   UNL     1      -3.226  12.983  20.605  0.00  0.00    +0.000 A 
ATOM     23  C   UNL     1      -3.401  12.250  19.429  0.00  0.00    +0.000 A 
ATOM     24  C   UNL     1      -2.356  11.461  18.924  0.00  0.00    +0.000 A 
BRANCH  24  25
ATOM     25  C   UNL     1      -2.656  10.645  17.723  0.00  0.00    +0.000 C 
ATOM     26  O   UNL     1      -3.446   9.717  17.723  0.00  0.00    +0.000 OA
BRANCH  25  27
ATOM     27  O   UNL     1      -1.942  11.011  16.635  0.00  0.00    +0.000 OA
ATOM     28  H   UNL     1      -2.331  10.688  15.795  0.00  0.00    +0.000 HD
ENDBRANCH  25  27
ENDBRANCH  24  25
ENDBRANCH  17  19
ENDBRANCH   1  16
BRANCH   5  29
ATOM     29  O   UNL     1       3.405   5.683  19.855  0.00  0.00    +0.000 OA
BRANCH  29  30
ATOM     30  C   UNL     1       2.527   4.614  19.908  0.00  0.00    +0.000 A 
ATOM     31  C   UNL     1       2.051   4.034  21.092  0.00  0.00    +0.000 A 
ATOM     32  C   UNL     1       1.226   2.908  21.043  0.00  0.00    +0.000 A 
ATOM     33  C   UNL     1       0.817   2.398  19.814  0.00  0.00    +0.000 A 
ATOM     34  C   UNL     1       1.226   3.018  18.633  0.00  0.00    +0.000 A 
ATOM     35  C   UNL     1       2.082   4.122  18.680  0.00  0.00    +0.000 A 
ENDBRANCH  29  30
ENDBRANCH   5  29
TORSDOF 7
ENDMDL
MODEL 6
REMARK VINA RESULT:      -9.2      1.314      2.297
REMARK  Name = 
REMARK  7 active torsions:
REMARK  status: ('A' for Active; 'I' for Inactive)
REMARK    1  A    between atoms: C_2  and  C_13
REMARK    2  A    between atoms: N_3  and  C_4
REMARK    3  A    between atoms: C_9  and  C_10
REMARK    4  A    between atoms: C_10  and  O_12
REMARK    5  A    between atoms: C_16  and  C_17
REMARK    6  A    between atoms: C_25  and  O_26
REMARK    7  A    between atoms: O_26  and  C_27
REMARK                            x       y       z     vdW  Elec       q    Type
REMARK                         _______ _______ _______ _____ _____    ______ ____
ROOT
ATOM      1  C   UNL     1       1.416   8.837  19.373  0.00  0.00    +0.000 A 
ATOM      2  C   UNL     1       1.931   9.259  18.154  0.00  0.00    +0.000 A 
ATOM      3  C   UNL     1       2.958   8.521  17.552  0.00  0.00    +0.000 A 
ATOM      4  C   UNL     1       3.467   7.324  18.114  0.00  0.00    +0.000 A 
ATOM      5  C   UNL     1       2.894   6.906  19.337  0.00  0.00    +0.000 A 
ATOM      6  C   UNL     1       1.937   7.702  19.992  0.00  0.00    +0.000 A 
ENDROOT
BRANCH   4   7
ATOM      7  C   UNL     1       4.544   6.586  17.397  0.00  0.00    +0.000 A 
ATOM      8  C   UNL     1       4.603   6.582  15.983  0.00  0.00    +0.000 A 
ATOM      9  C   UNL     1       5.567   5.844  15.284  0.00  0.00    +0.000 A 
ATOM     10  C   UNL     1       6.511   5.117  15.989  0.00  0.00    +0.000 A 
ATOM     11  F   UNL     1       7.433   4.408  15.323  0.00  0.00    +0.000 F 
ATOM     12  C   UNL     1       6.494   5.118  17.375  0.00  0.00    +0.000 A 
ATOM     13  F   UNL     1       7.409   4.420  18.061  0.00  0.00    +0.000 F 
ATOM     14  C   UNL     1       5.517   5.831  18.073  0.00  0.00    +0.000 A 
ENDBRANCH   4   7
BRANCH   1  16
ATOM     15  O   UNL     1      -0.377   8.933  20.858  0.00  0.00    +0.000 OA
ATOM     16  C   UNL     1       0.305   9.542  20.044  0.00  0.00    +0.000 C 
ATOM     17  N   UNL     1       0.025  10.818  19.571  0.00  0.00    +0.000 N 
ATOM     18  H   UNL     1       0.383  11.072  18.653  0.00  0.00    +0.000 HD
BRANCH  17  19
ATOM     19  C   UNL     1      -1.032  11.592  20.112  0.00  0.00    +0.000 A 
ATOM     20  C   UNL     1      -0.920  12.087  21.419  0.00  0.00    +0.000 A 
ATOM     21  C   UNL     1      -1.933  12.865  21.979  0.00  0.00    +0.000 A 
ATOM     22  C   UNL     1      -3.074  13.158  21.240  0.00  0.00    +0.000 A 
ATOM     23  C   UNL     1      -3.202  12.677  19.936  0.00  0.00    +0.000 A 
ATOM     24  C   UNL     1      -2.185  11.895  19.367  0.00  0.00    +0.000 A 
BRANCH  24  25
ATOM     25  C   UNL     1      -2.442  11.349  18.013  0.00  0.00    +0.000 C 
ATOM     26  O   UNL     1      -3.236  10.452  17.790  0.00  0.00    +0.000 OA
BRANCH  25  27
ATOM     27  O   UNL     1      -1.682  11.922  17.052  0.00  0.00    +0.000 OA
ATOM     28  H   UNL     1      -2.207  12.237  16.285  0.00  0.00    +0.000 HD
ENDBRANCH  25  27
ENDBRANCH  24  25
ENDBRANCH  17  19
ENDBRANCH   1  16
BRANCH   5  29
ATOM     29  O   UNL     1       3.309   5.724  19.925  0.00  0.00    +0.000 OA
BRANCH  29  30
ATOM     30  C   UNL     1       2.458   4.631  19.909  0.00  0.00    +0.000 A 
ATOM     31  C   UNL     1       1.959   3.995  21.052  0.00  0.00    +0.000 A 
ATOM     32  C   UNL     1       1.166   2.851  20.933  0.00  0.00    +0.000 A 
ATOM     33  C   UNL     1       0.812   2.378  19.673  0.00  0.00    +0.000 A 
ATOM     34  C   UNL     1       1.243   3.052  18.531  0.00  0.00    +0.000 A 
ATOM     35  C   UNL     1       2.068   4.175  18.649  0.00  0.00    +0.000 A 
ENDBRANCH  29  30
ENDBRANCH   5  29
TORSDOF 7
ENDMDL
MODEL 7
REMARK VINA RESULT:      -9.2      4.189      9.055
REMARK  Name = 
REMARK  7 active torsions:
REMARK  status: ('A' for Active; 'I' for Inactive)
REMARK    1  A    between atoms: C_2  and  C_13
REMARK    2  A    between atoms: N_3  and  C_4
REMARK    3  A    between atoms: C_9  and  C_10
REMARK    4  A    between atoms: C_10  and  O_12
REMARK    5  A    between atoms: C_16  and  C_17
REMARK    6  A    between atoms: C_25  and  O_26
REMARK    7  A    between atoms: O_26  and  C_27
REMARK                            x       y       z     vdW  Elec       q    Type
REMARK                         _______ _______ _______ _____ _____    ______ ____
ROOT
ATOM      1  C   UNL     1       2.243   7.684  18.919  0.00  0.00    +0.000 A 
ATOM      2  C   UNL     1       2.110   7.497  20.288  0.00  0.00    +0.000 A 
ATOM      3  C   UNL     1       1.456   8.471  21.053  0.00  0.00    +0.000 A 
ATOM      4  C   UNL     1       0.879   9.630  20.478  0.00  0.00    +0.000 A 
ATOM      5  C   UNL     1       1.003   9.771  19.076  0.00  0.00    +0.000 A 
ATOM      6  C   UNL     1       1.748   8.844  18.325  0.00  0.00    +0.000 A 
ENDROOT
BRANCH   4   7
ATOM      7  C   UNL     1       0.180  10.607  21.360  0.00  0.00    +0.000 A 
ATOM      8  C   UNL     1      -0.766  10.171  22.318  0.00  0.00    +0.000 A 
ATOM      9  C   UNL     1      -1.483  11.074  23.114  0.00  0.00    +0.000 A 
ATOM     10  C   UNL     1      -1.245  12.432  22.987  0.00  0.00    +0.000 A 
ATOM     11  F   UNL     1      -1.931  13.297  23.746  0.00  0.00    +0.000 F 
ATOM     12  C   UNL     1      -0.308  12.889  22.074  0.00  0.00    +0.000 A 
ATOM     13  F   UNL     1      -0.070  14.202  21.953  0.00  0.00    +0.000 F 
ATOM     14  C   UNL     1       0.388  11.993  21.260  0.00  0.00    +0.000 A 
ENDBRANCH   4   7
BRANCH   1  16
ATOM     15  O   UNL     1       2.277   5.647  17.788  0.00  0.00    +0.000 OA
ATOM     16  C   UNL     1       2.883   6.680  18.045  0.00  0.00    +0.000 C 
ATOM     17  N   UNL     1       4.207   6.927  17.708  0.00  0.00    +0.000 N 
ATOM     18  H   UNL     1       4.726   7.591  18.279  0.00  0.00    +0.000 HD
BRANCH  17  19
ATOM     19  C   UNL     1       4.945   6.029  16.897  0.00  0.00    +0.000 A 
ATOM     20  C   UNL     1       4.967   6.221  15.508  0.00  0.00    +0.000 A 
ATOM     21  C   UNL     1       5.695   5.367  14.679  0.00  0.00    +0.000 A 
ATOM     22  C   UNL     1       6.408   4.307  15.227  0.00  0.00    +0.000 A 
ATOM     23  C   UNL     1       6.400   4.101  16.607  0.00  0.00    +0.000 A 
ATOM     24  C   UNL     1       5.671   4.959  17.447  0.00  0.00    +0.000 A 
BRANCH  24  25
ATOM     25  C   UNL     1       5.642   4.615  18.889  0.00  0.00    +0.000 C 
ATOM     26  O   UNL     1       5.878   5.417  19.774  0.00  0.00    +0.000 OA
BRANCH  25  27
ATOM     27  O   UNL     1       5.358   3.314  19.123  0.00  0.00    +0.000 OA
ATOM     28  H   UNL     1       6.114   2.717  18.935  0.00  0.00    +0.000 HD
ENDBRANCH  25  27
ENDBRANCH  24  25
ENDBRANCH  17  19
ENDBRANCH   1  16
BRANCH   5  29
ATOM     29  O   UNL     1       0.427  10.855  18.438  0.00  0.00    +0.000 OA
BRANCH  29  30
ATOM     30  C   UNL     1      -0.933  10.835  18.177  0.00  0.00    +0.000 A 
ATOM     31  C   UNL     1      -1.849  11.782  18.655  0.00  0.00    +0.000 A 
ATOM     32  C   UNL     1      -3.214  11.634  18.401  0.00  0.00    +0.000 A 
ATOM     33  C   UNL     1      -3.665  10.578  17.614  0.00  0.00    +0.000 A 
ATOM     34  C   UNL     1      -2.750   9.675  17.072  0.00  0.00    +0.000 A 
ATOM     35  C   UNL     1      -1.387   9.801  17.357  0.00  0.00    +0.000 A 
ENDBRANCH  29  30
ENDBRANCH   5  29
TORSDOF 7
ENDMDL
MODEL 8
REMARK VINA RESULT:      -9.1      1.406      2.296
REMARK  Name = 
REMARK  7 active torsions:
REMARK  status: ('A' for Active; 'I' for Inactive)
REMARK    1  A    between atoms: C_2  and  C_13
REMARK    2  A    between atoms: N_3  and  C_4
REMARK    3  A    between atoms: C_9  and  C_10
REMARK    4  A    between atoms: C_10  and  O_12
REMARK    5  A    between atoms: C_16  and  C_17
REMARK    6  A    between atoms: C_25  and  O_26
REMARK    7  A    between atoms: O_26  and  C_27
REMARK                            x       y       z     vdW  Elec       q    Type
REMARK                         _______ _______ _______ _____ _____    ______ ____
ROOT
ATOM      1  C   UNL     1       1.472   8.476  19.713  0.00  0.00    +0.000 A 
ATOM      2  C   UNL     1       1.970   8.837  18.468  0.00  0.00    +0.000 A 
ATOM      3  C   UNL     1       2.936   8.029  17.855  0.00  0.00    +0.000 A 
ATOM      4  C   UNL     1       3.399   6.822  18.436  0.00  0.00    +0.000 A 
ATOM      5  C   UNL     1       2.844   6.467  19.686  0.00  0.00    +0.000 A 
ATOM      6  C   UNL     1       1.952   7.331  20.347  0.00  0.00    +0.000 A 
ENDROOT
BRANCH   4   7
ATOM      7  C   UNL     1       4.412   6.007  17.706  0.00  0.00    +0.000 A 
ATOM      8  C   UNL     1       4.029   5.159  16.640  0.00  0.00    +0.000 A 
ATOM      9  C   UNL     1       4.952   4.336  15.981  0.00  0.00    +0.000 A 
ATOM     10  C   UNL     1       6.284   4.368  16.359  0.00  0.00    +0.000 A 
ATOM     11  F   UNL     1       7.167   3.580  15.731  0.00  0.00    +0.000 F 
ATOM     12  C   UNL     1       6.694   5.205  17.384  0.00  0.00    +0.000 A 
ATOM     13  F   UNL     1       7.983   5.243  17.748  0.00  0.00    +0.000 F 
ATOM     14  C   UNL     1       5.772   6.005  18.060  0.00  0.00    +0.000 A 
ENDBRANCH   4   7
BRANCH   1  16
ATOM     15  O   UNL     1      -0.337   8.681  21.166  0.00  0.00    +0.000 OA
ATOM     16  C   UNL     1       0.423   9.257  20.398  0.00  0.00    +0.000 C 
ATOM     17  N   UNL     1       0.285  10.576  19.986  0.00  0.00    +0.000 N 
ATOM     18  H   UNL     1       0.689  10.837  19.089  0.00  0.00    +0.000 HD
BRANCH  17  19
ATOM     19  C   UNL     1      -0.701  11.427  20.544  0.00  0.00    +0.000 A 
ATOM     20  C   UNL     1      -0.511  11.940  21.836  0.00  0.00    +0.000 A 
ATOM     21  C   UNL     1      -1.452  12.793  22.412  0.00  0.00    +0.000 A 
ATOM     22  C   UNL     1      -2.599  13.143  21.707  0.00  0.00    +0.000 A 
ATOM     23  C   UNL     1      -2.803  12.644  20.419  0.00  0.00    +0.000 A 
ATOM     24  C   UNL     1      -1.859  11.787  19.833  0.00  0.00    +0.000 A 
BRANCH  24  25
ATOM     25  C   UNL     1      -2.198  11.231  18.501  0.00  0.00    +0.000 C 
ATOM     26  O   UNL     1      -2.155  10.042  18.241  0.00  0.00    +0.000 OA
BRANCH  25  27
ATOM     27  O   UNL     1      -2.527  12.178  17.594  0.00  0.00    +0.000 OA
ATOM     28  H   UNL     1      -2.780  11.803  16.723  0.00  0.00    +0.000 HD
ENDBRANCH  25  27
ENDBRANCH  24  25
ENDBRANCH  17  19
ENDBRANCH   1  16
BRANCH   5  29
ATOM     29  O   UNL     1       3.214   5.280  20.295  0.00  0.00    +0.000 OA
BRANCH  29  30
ATOM     30  C   UNL     1       2.717   4.087  19.796  0.00  0.00    +0.000 A 
ATOM     31  C   UNL     1       3.507   2.995  19.413  0.00  0.00    +0.000 A 
ATOM     32  C   UNL     1       2.916   1.862  18.848  0.00  0.00    +0.000 A 
ATOM     33  C   UNL     1       1.532   1.787  18.727  0.00  0.00    +0.000 A 
ATOM     34  C   UNL     1       0.736   2.840  19.177  0.00  0.00    +0.000 A 
ATOM     35  C   UNL     1       1.328   3.990  19.707  0.00  0.00    +0.000 A 
ENDBRANCH  29  30
ENDBRANCH   5  29
TORSDOF 7
ENDMDL
MODEL 9
REMARK VINA RESULT:      -9.1      4.278      9.080
REMARK  Name = 
REMARK  7 active torsions:
REMARK  status: ('A' for Active; 'I' for Inactive)
REMARK    1  A    between atoms: C_2  and  C_13
REMARK    2  A    between atoms: N_3  and  C_4
REMARK    3  A    between atoms: C_9  and  C_10
REMARK    4  A    between atoms: C_10  and  O_12
REMARK    5  A    between atoms: C_16  and  C_17
REMARK    6  A    between atoms: C_25  and  O_26
REMARK    7  A    between atoms: O_26  and  C_27
REMARK                            x       y       z     vdW  Elec       q    Type
REMARK                         _______ _______ _______ _____ _____    ______ ____
ROOT
ATOM      1  C   UNL     1       2.257   7.688  18.857  0.00  0.00    +0.000 A 
ATOM      2  C   UNL     1       2.148   7.561  20.235  0.00  0.00    +0.000 A 
ATOM      3  C   UNL     1       1.484   8.555  20.965  0.00  0.00    +0.000 A 
ATOM      4  C   UNL     1       0.872   9.674  20.346  0.00  0.00    +0.000 A 
ATOM      5  C   UNL     1       0.972   9.752  18.938  0.00  0.00    +0.000 A 
ATOM      6  C   UNL     1       1.727   8.808  18.218  0.00  0.00    +0.000 A 
ENDROOT
BRANCH   4   7
ATOM      7  C   UNL     1       0.163  10.675  21.193  0.00  0.00    +0.000 A 
ATOM      8  C   UNL     1       0.502  12.047  21.131  0.00  0.00    +0.000 A 
ATOM      9  C   UNL     1      -0.104  12.997  21.962  0.00  0.00    +0.000 A 
ATOM     10  C   UNL     1      -1.085  12.596  22.854  0.00  0.00    +0.000 A 
ATOM     11  F   UNL     1      -1.665  13.504  23.651  0.00  0.00    +0.000 F 
ATOM     12  C   UNL     1      -1.455  11.262  22.923  0.00  0.00    +0.000 A 
ATOM     13  F   UNL     1      -2.408  10.871  23.780  0.00  0.00    +0.000 F 
ATOM     14  C   UNL     1      -0.832  10.309  22.115  0.00  0.00    +0.000 A 
ENDBRANCH   4   7
BRANCH   1  16
ATOM     15  O   UNL     1       2.317   5.606  17.813  0.00  0.00    +0.000 OA
ATOM     16  C   UNL     1       2.907   6.659  18.020  0.00  0.00    +0.000 C 
ATOM     17  N   UNL     1       4.223   6.914  17.660  0.00  0.00    +0.000 N 
ATOM     18  H   UNL     1       4.735   7.611  18.197  0.00  0.00    +0.000 HD
BRANCH  17  19
ATOM     19  C   UNL     1       4.969   5.996  16.880  0.00  0.00    +0.000 A 
ATOM     20  C   UNL     1       4.977   6.130  15.484  0.00  0.00    +0.000 A 
ATOM     21  C   UNL     1       5.712   5.254  14.685  0.00  0.00    +0.000 A 
ATOM     22  C   UNL     1       6.448   4.230  15.271  0.00  0.00    +0.000 A 
ATOM     23  C   UNL     1       6.455   4.082  16.659  0.00  0.00    +0.000 A 
ATOM     24  C   UNL     1       5.719   4.962  17.468  0.00  0.00    +0.000 A 
BRANCH  24  25
ATOM     25  C   UNL     1       5.707   4.679  18.923  0.00  0.00    +0.000 C 
ATOM     26  O   UNL     1       6.052   5.487  19.767  0.00  0.00    +0.000 OA
BRANCH  25  27
ATOM     27  O   UNL     1       5.307   3.422  19.221  0.00  0.00    +0.000 OA
ATOM     28  H   UNL     1       4.348   3.361  19.418  0.00  0.00    +0.000 HD
ENDBRANCH  25  27
ENDBRANCH  24  25
ENDBRANCH  17  19
ENDBRANCH   1  16
BRANCH   5  29
ATOM     29  O   UNL     1       0.361  10.792  18.259  0.00  0.00    +0.000 OA
BRANCH  29  30
ATOM     30  C   UNL     1      -0.992  10.706  17.977  0.00  0.00    +0.000 A 
ATOM     31  C   UNL     1      -1.575   9.716  17.174  0.00  0.00    +0.000 A 
ATOM     32  C   UNL     1      -2.940   9.758  16.884  0.00  0.00    +0.000 A 
ATOM     33  C   UNL     1      -3.741  10.746  17.449  0.00  0.00    +0.000 A 
ATOM     34  C   UNL     1      -3.180  11.689  18.310  0.00  0.00    +0.000 A 
ATOM     35  C   UNL     1      -1.806  11.671  18.570  0.00  0.00    +0.000 A 
ENDBRANCH  29  30
ENDBRANCH   5  29
TORSDOF 7
ENDMDL
