MODEL 1
REMARK VINA RESULT:      -8.6      0.000      0.000
REMARK  Name = 
REMARK  4 active torsions:
REMARK  status: ('A' for Active; 'I' for Inactive)
REMARK    1  A    between atoms: O_1  and  C_2
REMARK    2  A    between atoms: N_6  and  C_7
REMARK    3  A    between atoms: C_9  and  C_10
REMARK    4  A    between atoms: C_16  and  C_17
REMARK                            x       y       z     vdW  Elec       q    Type
REMARK                         _______ _______ _______ _____ _____    ______ ____
ROOT
ATOM      1  C   UNL     1       1.320   8.811  20.304  0.00  0.00    +0.000 A 
ATOM      2  N   UNL     1       1.661   9.084  21.582  0.00  0.00    +0.000 NA
ATOM      3  N   UNL     1       0.819  10.063  21.954  0.00  0.00    +0.000 N 
ATOM      4  C   UNL     1      -0.084  10.416  21.001  0.00  0.00    +0.000 A 
ATOM      5  C   UNL     1      -1.107  11.351  20.982  0.00  0.00    +0.000 A 
ATOM      6  N   UNL     1      -1.861  11.467  19.866  0.00  0.00    +0.000 NA
ATOM      7  C   UNL     1      -1.622  10.670  18.784  0.00  0.00    +0.000 A 
ATOM      8  C   UNL     1      -0.589   9.732  18.767  0.00  0.00    +0.000 A 
ATOM      9  C   UNL     1       0.203   9.610  19.911  0.00  0.00    +0.000 A 
ATOM     10  H   UNL     1       0.916  10.443  22.890  0.00  0.00    +0.000 HD
ENDROOT
BRANCH   1  13
ATOM     11  C   UNL     1       2.531   5.527  19.111  0.00  0.00    +0.000 A 
ATOM     12  N   UNL     1       1.953   6.500  19.878  0.00  0.00    +0.000 NA
ATOM     13  C   UNL     1       2.051   7.810  19.506  0.00  0.00    +0.000 A 
ATOM     14  C   UNL     1       2.773   8.218  18.398  0.00  0.00    +0.000 A 
ATOM     15  C   UNL     1       3.399   7.254  17.630  0.00  0.00    +0.000 A 
ATOM     16  C   UNL     1       3.286   5.903  17.979  0.00  0.00    +0.000 A 
ATOM     17 BR   UNL     1       4.332   4.729  16.895  0.00  0.00    +0.000 Br
BRANCH  11  22
ATOM     18  C   UNL     1       3.938   2.302  19.879  0.00  0.00    +0.000 C 
ATOM     19  C   UNL     1       3.235   1.727  18.656  0.00  0.00    +0.000 C 
ATOM     20  C   UNL     1       1.734   1.894  18.803  0.00  0.00    +0.000 C 
ATOM     21  C   UNL     1       1.360   3.379  18.788  0.00  0.00    +0.000 C 
ATOM     22  N   UNL     1       2.328   4.211  19.513  0.00  0.00    +0.000 N 
ATOM     23  C   UNL     1       3.248   3.557  20.452  0.00  0.00    +0.000 C 
BRANCH  18  24
ATOM     24  O   UNL     1       5.301   2.594  19.553  0.00  0.00    +0.000 OA
ATOM     25  H   UNL     1       5.412   3.557  19.586  0.00  0.00    +0.000 HD
ENDBRANCH  18  24
ENDBRANCH  11  22
ENDBRANCH   1  13
BRANCH   7  26
ATOM     26  C   UNL     1      -2.509  10.863  17.628  0.00  0.00    +0.000 A 
ATOM     27  C   UNL     1      -2.223  10.319  16.369  0.00  0.00    +0.000 A 
ATOM     28  C   UNL     1      -3.113  10.486  15.306  0.00  0.00    +0.000 A 
ATOM     29  C   UNL     1      -4.273  11.204  15.527  0.00  0.00    +0.000 A 
ATOM     30  N   UNL     1      -4.590  11.762  16.711  0.00  0.00    +0.000 NA
ATOM     31  C   UNL     1      -3.701  11.585  17.719  0.00  0.00    +0.000 A 
ENDBRANCH   7  26
TORSDOF 4
ENDMDL
MODEL 2
REMARK VINA RESULT:      -8.1      0.965      1.200
REMARK  Name = 
REMARK  4 active torsions:
REMARK  status: ('A' for Active; 'I' for Inactive)
REMARK    1  A    between atoms: O_1  and  C_2
REMARK    2  A    between atoms: N_6  and  C_7
REMARK    3  A    between atoms: C_9  and  C_10
REMARK    4  A    between atoms: C_16  and  C_17
REMARK                            x       y       z     vdW  Elec       q    Type
REMARK                         _______ _______ _______ _____ _____    ______ ____
ROOT
ATOM      1  C   UNL     1       1.337   8.907  20.296  0.00  0.00    +0.000 A 
ATOM      2  N   UNL     1       1.659   9.237  21.565  0.00  0.00    +0.000 NA
ATOM      3  N   UNL     1       0.792  10.210  21.891  0.00  0.00    +0.000 N 
ATOM      4  C   UNL     1      -0.108  10.507  20.916  0.00  0.00    +0.000 A 
ATOM      5  C   UNL     1      -1.151  11.417  20.850  0.00  0.00    +0.000 A 
ATOM      6  N   UNL     1      -1.896  11.474  19.723  0.00  0.00    +0.000 NA
ATOM      7  C   UNL     1      -1.627  10.641  18.676  0.00  0.00    +0.000 A 
ATOM      8  C   UNL     1      -0.575   9.726  18.706  0.00  0.00    +0.000 A 
ATOM      9  C   UNL     1       0.207   9.665  19.861  0.00  0.00    +0.000 A 
ATOM     10  H   UNL     1       0.870  10.628  22.813  0.00  0.00    +0.000 HD
ENDROOT
BRANCH   1  13
ATOM     11  C   UNL     1       2.825   5.646  19.386  0.00  0.00    +0.000 A 
ATOM     12  N   UNL     1       2.215   6.646  20.091  0.00  0.00    +0.000 NA
ATOM     13  C   UNL     1       2.098   7.892  19.544  0.00  0.00    +0.000 A 
ATOM     14  C   UNL     1       2.630   8.217  18.309  0.00  0.00    +0.000 A 
ATOM     15  C   UNL     1       3.287   7.231  17.596  0.00  0.00    +0.000 A 
ATOM     16  C   UNL     1       3.392   5.940  18.127  0.00  0.00    +0.000 A 
ATOM     17 BR   UNL     1       4.453   4.751  17.075  0.00  0.00    +0.000 Br
BRANCH  11  22
ATOM     18  C   UNL     1       2.354   2.092  19.045  0.00  0.00    +0.000 C 
ATOM     19  C   UNL     1       1.147   2.183  19.970  0.00  0.00    +0.000 C 
ATOM     20  C   UNL     1       1.580   2.711  21.326  0.00  0.00    +0.000 C 
ATOM     21  C   UNL     1       2.071   4.156  21.203  0.00  0.00    +0.000 C 
ATOM     22  N   UNL     1       2.842   4.386  19.976  0.00  0.00    +0.000 N 
ATOM     23  C   UNL     1       3.380   3.223  19.259  0.00  0.00    +0.000 C 
BRANCH  18  24
ATOM     24  O   UNL     1       1.912   2.076  17.684  0.00  0.00    +0.000 OA
ATOM     25  H   UNL     1       1.780   2.997  17.407  0.00  0.00    +0.000 HD
ENDBRANCH  18  24
ENDBRANCH  11  22
ENDBRANCH   1  13
BRANCH   7  26
ATOM     26  C   UNL     1      -2.506  10.770  17.505  0.00  0.00    +0.000 A 
ATOM     27  C   UNL     1      -2.225  10.136  16.287  0.00  0.00    +0.000 A 
ATOM     28  C   UNL     1      -3.107  10.245  15.211  0.00  0.00    +0.000 A 
ATOM     29  C   UNL     1      -4.255  10.997  15.376  0.00  0.00    +0.000 A 
ATOM     30  N   UNL     1      -4.567  11.641  16.516  0.00  0.00    +0.000 NA
ATOM     31  C   UNL     1      -3.686  11.518  17.539  0.00  0.00    +0.000 A 
ENDBRANCH   7  26
TORSDOF 4
ENDMDL
MODEL 3
REMARK VINA RESULT:      -7.9      1.220      1.562
REMARK  Name = 
REMARK  4 active torsions:
REMARK  status: ('A' for Active; 'I' for Inactive)
REMARK    1  A    between atoms: O_1  and  C_2
REMARK    2  A    between atoms: N_6  and  C_7
REMARK    3  A    between atoms: C_9  and  C_10
REMARK    4  A    between atoms: C_16  and  C_17
REMARK                            x       y       z     vdW  Elec       q    Type
REMARK                         _______ _______ _______ _____ _____    ______ ____
ROOT
ATOM      1  C   UNL     1       1.645   8.479  20.025  0.00  0.00    +0.000 A 
ATOM      2  N   UNL     1       1.961   8.624  21.330  0.00  0.00    +0.000 NA
ATOM      3  N   UNL     1       1.056   9.497  21.801  0.00  0.00    +0.000 N 
ATOM      4  C   UNL     1       0.138   9.901  20.883  0.00  0.00    +0.000 A 
ATOM      5  C   UNL     1      -0.943  10.766  20.959  0.00  0.00    +0.000 A 
ATOM      6  N   UNL     1      -1.697  10.963  19.854  0.00  0.00    +0.000 NA
ATOM      7  C   UNL     1      -1.400  10.313  18.691  0.00  0.00    +0.000 A 
ATOM      8  C   UNL     1      -0.310   9.451  18.580  0.00  0.00    +0.000 A 
ATOM      9  C   UNL     1       0.481   9.246  19.712  0.00  0.00    +0.000 A 
ATOM     10  H   UNL     1       1.123   9.772  22.777  0.00  0.00    +0.000 HD
ENDROOT
BRANCH   1  13
ATOM     11  C   UNL     1       3.190   5.449  18.574  0.00  0.00    +0.000 A 
ATOM     12  N   UNL     1       2.546   6.298  19.430  0.00  0.00    +0.000 NA
ATOM     13  C   UNL     1       2.443   7.625  19.127  0.00  0.00    +0.000 A 
ATOM     14  C   UNL     1       3.024   8.179  17.999  0.00  0.00    +0.000 A 
ATOM     15  C   UNL     1       3.716   7.346  17.140  0.00  0.00    +0.000 A 
ATOM     16  C   UNL     1       3.807   5.977  17.419  0.00  0.00    +0.000 A 
ATOM     17 BR   UNL     1       4.919   5.009  16.205  0.00  0.00    +0.000 Br
BRANCH  11  22
ATOM     18  C   UNL     1       1.461   2.653  20.043  0.00  0.00    +0.000 C 
ATOM     19  C   UNL     1       2.489   2.633  21.167  0.00  0.00    +0.000 C 
ATOM     20  C   UNL     1       3.872   2.385  20.592  0.00  0.00    +0.000 C 
ATOM     21  C   UNL     1       4.300   3.561  19.709  0.00  0.00    +0.000 C 
ATOM     22  N   UNL     1       3.192   4.100  18.913  0.00  0.00    +0.000 N 
ATOM     23  C   UNL     1       1.991   3.274  18.735  0.00  0.00    +0.000 C 
BRANCH  18  24
ATOM     24  O   UNL     1       0.289   3.347  20.480  0.00  0.00    +0.000 OA
ATOM     25  H   UNL     1       0.571   4.199  20.848  0.00  0.00    +0.000 HD
ENDBRANCH  18  24
ENDBRANCH  11  22
ENDBRANCH   1  13
BRANCH   7  26
ATOM     26  C   UNL     1      -2.291  10.582  17.554  0.00  0.00    +0.000 A 
ATOM     27  C   UNL     1      -2.103   9.986  16.300  0.00  0.00    +0.000 A 
ATOM     28  C   UNL     1      -2.997  10.232  15.256  0.00  0.00    +0.000 A 
ATOM     29  C   UNL     1      -4.063  11.080  15.490  0.00  0.00    +0.000 A 
ATOM     30  N   UNL     1      -4.284  11.693  16.669  0.00  0.00    +0.000 NA
ATOM     31  C   UNL     1      -3.393  11.436  17.658  0.00  0.00    +0.000 A 
ENDBRANCH   7  26
TORSDOF 4
ENDMDL
MODEL 4
REMARK VINA RESULT:      -7.8      3.774      8.412
REMARK  Name = 
REMARK  4 active torsions:
REMARK  status: ('A' for Active; 'I' for Inactive)
REMARK    1  A    between atoms: O_1  and  C_2
REMARK    2  A    between atoms: N_6  and  C_7
REMARK    3  A    between atoms: C_9  and  C_10
REMARK    4  A    between atoms: C_16  and  C_17
REMARK                            x       y       z     vdW  Elec       q    Type
REMARK                         _______ _______ _______ _____ _____    ______ ____
ROOT
ATOM      1  C   UNL     1       2.273   6.353  19.441  0.00  0.00    +0.000 A 
ATOM      2  N   UNL     1       1.727   5.665  20.466  0.00  0.00    +0.000 NA
ATOM      3  N   UNL     1       2.201   4.417  20.326  0.00  0.00    +0.000 N 
ATOM      4  C   UNL     1       3.063   4.259  19.286  0.00  0.00    +0.000 A 
ATOM      5  C   UNL     1       3.767   3.163  18.811  0.00  0.00    +0.000 A 
ATOM      6  N   UNL     1       4.574   3.324  17.739  0.00  0.00    +0.000 NA
ATOM      7  C   UNL     1       4.699   4.546  17.145  0.00  0.00    +0.000 A 
ATOM      8  C   UNL     1       3.992   5.663  17.589  0.00  0.00    +0.000 A 
ATOM      9  C   UNL     1       3.147   5.508  18.690  0.00  0.00    +0.000 A 
ATOM     10  H   UNL     1       1.895   3.713  20.991  0.00  0.00    +0.000 HD
ENDROOT
BRANCH   1  13
ATOM     11  C   UNL     1       1.328   9.861  20.127  0.00  0.00    +0.000 A 
ATOM     12  N   UNL     1       1.535   8.518  20.272  0.00  0.00    +0.000 NA
ATOM     13  C   UNL     1       1.958   7.775  19.208  0.00  0.00    +0.000 A 
ATOM     14  C   UNL     1       2.135   8.313  17.945  0.00  0.00    +0.000 A 
ATOM     15  C   UNL     1       1.891   9.662  17.766  0.00  0.00    +0.000 A 
ATOM     16  C   UNL     1       1.485  10.447  18.852  0.00  0.00    +0.000 A 
ATOM     17 BR   UNL     1       1.056  12.250  18.390  0.00  0.00    +0.000 Br
BRANCH  11  22
ATOM     18  C   UNL     1      -0.476   9.938  23.243  0.00  0.00    +0.000 C 
ATOM     19  C   UNL     1      -1.403  10.996  22.657  0.00  0.00    +0.000 C 
ATOM     20  C   UNL     1      -0.599  12.226  22.276  0.00  0.00    +0.000 C 
ATOM     21  C   UNL     1       0.368  11.898  21.135  0.00  0.00    +0.000 C 
ATOM     22  N   UNL     1       0.968  10.566  21.271  0.00  0.00    +0.000 N 
ATOM     23  C   UNL     1       0.917   9.906  22.581  0.00  0.00    +0.000 C 
BRANCH  18  24
ATOM     24  O   UNL     1      -1.098   8.653  23.148  0.00  0.00    +0.000 OA
ATOM     25  H   UNL     1      -0.565   8.112  22.544  0.00  0.00    +0.000 HD
ENDBRANCH  18  24
ENDBRANCH  11  22
ENDBRANCH   1  13
BRANCH   7  26
ATOM     26  C   UNL     1       5.615   4.618  15.998  0.00  0.00    +0.000 A 
ATOM     27  C   UNL     1       5.378   3.919  14.807  0.00  0.00    +0.000 A 
ATOM     28  C   UNL     1       6.247   4.049  13.723  0.00  0.00    +0.000 A 
ATOM     29  C   UNL     1       7.347   4.876  13.858  0.00  0.00    +0.000 A 
ATOM     30  N   UNL     1       7.633   5.558  14.983  0.00  0.00    +0.000 NA
ATOM     31  C   UNL     1       6.771   5.404  16.018  0.00  0.00    +0.000 A 
ENDBRANCH   7  26
TORSDOF 4
ENDMDL
MODEL 5
REMARK VINA RESULT:      -7.8      3.047      3.446
REMARK  Name = 
REMARK  4 active torsions:
REMARK  status: ('A' for Active; 'I' for Inactive)
REMARK    1  A    between atoms: O_1  and  C_2
REMARK    2  A    between atoms: N_6  and  C_7
REMARK    3  A    between atoms: C_9  and  C_10
REMARK    4  A    between atoms: C_16  and  C_17
REMARK                            x       y       z     vdW  Elec       q    Type
REMARK                         _______ _______ _______ _____ _____    ______ ____
ROOT
ATOM      1  C   UNL     1       0.627   8.563  21.129  0.00  0.00    +0.000 A 
ATOM      2  N   UNL     1      -0.176   8.010  22.063  0.00  0.00    +0.000 NA
ATOM      3  N   UNL     1      -0.711   9.057  22.712  0.00  0.00    +0.000 N 
ATOM      4  C   UNL     1      -0.333  10.269  22.226  0.00  0.00    +0.000 A 
ATOM      5  C   UNL     1      -0.654  11.567  22.593  0.00  0.00    +0.000 A 
ATOM      6  N   UNL     1      -0.116  12.592  21.895  0.00  0.00    +0.000 NA
ATOM      7  C   UNL     1       0.719  12.349  20.843  0.00  0.00    +0.000 A 
ATOM      8  C   UNL     1       1.074  11.056  20.461  0.00  0.00    +0.000 A 
ATOM      9  C   UNL     1       0.532   9.988  21.180  0.00  0.00    +0.000 A 
ATOM     10  H   UNL     1      -1.341   8.867  23.485  0.00  0.00    +0.000 HD
ENDROOT
BRANCH   1  13
ATOM     11  C   UNL     1       2.183   5.575  19.607  0.00  0.00    +0.000 A 
ATOM     12  N   UNL     1       1.518   6.396  20.474  0.00  0.00    +0.000 NA
ATOM     13  C   UNL     1       1.446   7.736  20.225  0.00  0.00    +0.000 A 
ATOM     14  C   UNL     1       2.077   8.328  19.145  0.00  0.00    +0.000 A 
ATOM     15  C   UNL     1       2.789   7.522  18.276  0.00  0.00    +0.000 A 
ATOM     16  C   UNL     1       2.851   6.141  18.500  0.00  0.00    +0.000 A 
ATOM     17 BR   UNL     1       3.994   5.208  17.288  0.00  0.00    +0.000 Br
BRANCH  11  22
ATOM     18  C   UNL     1       3.979   2.472  19.946  0.00  0.00    +0.000 C 
ATOM     19  C   UNL     1       3.244   1.936  18.723  0.00  0.00    +0.000 C 
ATOM     20  C   UNL     1       1.749   1.920  18.991  0.00  0.00    +0.000 C 
ATOM     21  C   UNL     1       1.222   3.348  19.153  0.00  0.00    +0.000 C 
ATOM     22  N   UNL     1       2.153   4.213  19.888  0.00  0.00    +0.000 N 
ATOM     23  C   UNL     1       3.209   3.582  20.689  0.00  0.00    +0.000 C 
BRANCH  18  24
ATOM     24  O   UNL     1       5.272   2.943  19.555  0.00  0.00    +0.000 OA
ATOM     25  H   UNL     1       5.889   2.197  19.618  0.00  0.00    +0.000 HD
ENDBRANCH  18  24
ENDBRANCH  11  22
ENDBRANCH   1  13
BRANCH   7  26
ATOM     26  C   UNL     1       1.236  13.532  20.140  0.00  0.00    +0.000 A 
ATOM     27  C   UNL     1       2.452  13.515  19.445  0.00  0.00    +0.000 A 
ATOM     28  C   UNL     1       2.888  14.645  18.752  0.00  0.00    +0.000 A 
ATOM     29  C   UNL     1       2.094  15.777  18.774  0.00  0.00    +0.000 A 
ATOM     30  N   UNL     1       0.926  15.854  19.438  0.00  0.00    +0.000 NA
ATOM     31  C   UNL     1       0.536  14.741  20.106  0.00  0.00    +0.000 A 
ENDBRANCH   7  26
TORSDOF 4
ENDMDL
MODEL 6
REMARK VINA RESULT:      -7.7      1.780      2.736
REMARK  Name = 
REMARK  4 active torsions:
REMARK  status: ('A' for Active; 'I' for Inactive)
REMARK    1  A    between atoms: O_1  and  C_2
REMARK    2  A    between atoms: N_6  and  C_7
REMARK    3  A    between atoms: C_9  and  C_10
REMARK    4  A    between atoms: C_16  and  C_17
REMARK                            x       y       z     vdW  Elec       q    Type
REMARK                         _______ _______ _______ _____ _____    ______ ____
ROOT
ATOM      1  C   UNL     1       1.459   8.073  20.850  0.00  0.00    +0.000 A 
ATOM      2  N   UNL     1       2.029   8.496  21.999  0.00  0.00    +0.000 NA
ATOM      3  N   UNL     1       1.543   9.734  22.182  0.00  0.00    +0.000 N 
ATOM      4  C   UNL     1       0.652  10.131  21.234  0.00  0.00    +0.000 A 
ATOM      5  C   UNL     1      -0.071  11.301  21.059  0.00  0.00    +0.000 A 
ATOM      6  N   UNL     1      -0.905  11.399  20.000  0.00  0.00    +0.000 NA
ATOM      7  C   UNL     1      -1.038  10.358  19.127  0.00  0.00    +0.000 A 
ATOM      8  C   UNL     1      -0.312   9.175  19.267  0.00  0.00    +0.000 A 
ATOM      9  C   UNL     1       0.561   9.066  20.351  0.00  0.00    +0.000 A 
ATOM     10  H   UNL     1       1.863  10.257  22.991  0.00  0.00    +0.000 HD
ENDROOT
BRANCH   1  13
ATOM     11  C   UNL     1       3.217   5.466  18.905  0.00  0.00    +0.000 A 
ATOM     12  N   UNL     1       2.822   6.680  19.392  0.00  0.00    +0.000 NA
ATOM     13  C   UNL     1       1.777   6.757  20.268  0.00  0.00    +0.000 A 
ATOM     14  C   UNL     1       1.042   5.648  20.649  0.00  0.00    +0.000 A 
ATOM     15  C   UNL     1       1.398   4.415  20.136  0.00  0.00    +0.000 A 
ATOM     16  C   UNL     1       2.485   4.312  19.260  0.00  0.00    +0.000 A 
ATOM     17 BR   UNL     1       2.741   2.562  18.540  0.00  0.00    +0.000 Br
BRANCH  11  22
ATOM     18  C   UNL     1       6.803   5.362  18.587  0.00  0.00    +0.000 C 
ATOM     19  C   UNL     1       6.776   6.786  18.044  0.00  0.00    +0.000 C 
ATOM     20  C   UNL     1       5.955   6.830  16.767  0.00  0.00    +0.000 C 
ATOM     21  C   UNL     1       4.487   6.513  17.066  0.00  0.00    +0.000 C 
ATOM     22  N   UNL     1       4.333   5.458  18.075  0.00  0.00    +0.000 N 
ATOM     23  C   UNL     1       5.484   4.594  18.365  0.00  0.00    +0.000 C 
BRANCH  18  24
ATOM     24  O   UNL     1       7.129   5.390  19.980  0.00  0.00    +0.000 OA
ATOM     25  H   UNL     1       6.779   4.578  20.381  0.00  0.00    +0.000 HD
ENDBRANCH  18  24
ENDBRANCH  11  22
ENDBRANCH   1  13
BRANCH   7  26
ATOM     26  C   UNL     1      -1.984  10.557  18.021  0.00  0.00    +0.000 A 
ATOM     27  C   UNL     1      -1.871   9.865  16.808  0.00  0.00    +0.000 A 
ATOM     28  C   UNL     1      -2.815  10.048  15.796  0.00  0.00    +0.000 A 
ATOM     29  C   UNL     1      -3.855  10.932  16.020  0.00  0.00    +0.000 A 
ATOM     30  N   UNL     1      -4.003  11.636  17.158  0.00  0.00    +0.000 NA
ATOM     31  C   UNL     1      -3.065  11.438  18.117  0.00  0.00    +0.000 A 
ENDBRANCH   7  26
TORSDOF 4
ENDMDL
MODEL 7
REMARK VINA RESULT:      -7.7      3.874      8.716
REMARK  Name = 
REMARK  4 active torsions:
REMARK  status: ('A' for Active; 'I' for Inactive)
REMARK    1  A    between atoms: O_1  and  C_2
REMARK    2  A    between atoms: N_6  and  C_7
REMARK    3  A    between atoms: C_9  and  C_10
REMARK    4  A    between atoms: C_16  and  C_17
REMARK                            x       y       z     vdW  Elec       q    Type
REMARK                         _______ _______ _______ _____ _____    ______ ____
ROOT
ATOM      1  C   UNL     1       2.163   7.079  19.764  0.00  0.00    +0.000 A 
ATOM      2  N   UNL     1       1.642   6.529  20.882  0.00  0.00    +0.000 NA
ATOM      3  N   UNL     1       2.124   5.275  20.898  0.00  0.00    +0.000 N 
ATOM      4  C   UNL     1       2.967   4.987  19.871  0.00  0.00    +0.000 A 
ATOM      5  C   UNL     1       3.671   3.842  19.530  0.00  0.00    +0.000 A 
ATOM      6  N   UNL     1       4.456   3.864  18.430  0.00  0.00    +0.000 NA
ATOM      7  C   UNL     1       4.559   4.999  17.678  0.00  0.00    +0.000 A 
ATOM      8  C   UNL     1       3.851   6.160  17.986  0.00  0.00    +0.000 A 
ATOM      9  C   UNL     1       3.029   6.147  19.114  0.00  0.00    +0.000 A 
ATOM     10  H   UNL     1       1.836   4.664  21.656  0.00  0.00    +0.000 HD
ENDROOT
BRANCH   1  13
ATOM     11  C   UNL     1       0.751  10.494  19.873  0.00  0.00    +0.000 A 
ATOM     12  N   UNL     1       1.006   9.183  20.160  0.00  0.00    +0.000 NA
ATOM     13  C   UNL     1       1.832   8.455  19.353  0.00  0.00    +0.000 A 
ATOM     14  C   UNL     1       2.391   8.973  18.198  0.00  0.00    +0.000 A 
ATOM     15  C   UNL     1       2.114  10.287  17.865  0.00  0.00    +0.000 A 
ATOM     16  C   UNL     1       1.292  11.057  18.696  0.00  0.00    +0.000 A 
ATOM     17 BR   UNL     1       0.902  12.796  18.008  0.00  0.00    +0.000 Br
BRANCH  11  22
ATOM     18  C   UNL     1      -2.132  12.570  20.466  0.00  0.00    +0.000 C 
ATOM     19  C   UNL     1      -1.203  13.716  20.847  0.00  0.00    +0.000 C 
ATOM     20  C   UNL     1      -0.362  13.316  22.046  0.00  0.00    +0.000 C 
ATOM     21  C   UNL     1       0.585  12.171  21.675  0.00  0.00    +0.000 C 
ATOM     22  N   UNL     1      -0.041  11.191  20.779  0.00  0.00    +0.000 N 
ATOM     23  C   UNL     1      -1.505  11.176  20.672  0.00  0.00    +0.000 C 
BRANCH  18  24
ATOM     24  O   UNL     1      -2.550  12.727  19.107  0.00  0.00    +0.000 OA
ATOM     25  H   UNL     1      -2.948  11.889  18.822  0.00  0.00    +0.000 HD
ENDBRANCH  18  24
ENDBRANCH  11  22
ENDBRANCH   1  13
BRANCH   7  26
ATOM     26  C   UNL     1       5.453   4.924  16.514  0.00  0.00    +0.000 A 
ATOM     27  C   UNL     1       5.152   4.144  15.390  0.00  0.00    +0.000 A 
ATOM     28  C   UNL     1       6.003   4.134  14.284  0.00  0.00    +0.000 A 
ATOM     29  C   UNL     1       7.149   4.906  14.330  0.00  0.00    +0.000 A 
ATOM     30  N   UNL     1       7.496   5.662  15.389  0.00  0.00    +0.000 NA
ATOM     31  C   UNL     1       6.649   5.643  16.448  0.00  0.00    +0.000 A 
ENDBRANCH   7  26
TORSDOF 4
ENDMDL
MODEL 8
REMARK VINA RESULT:      -7.6      1.962      2.788
REMARK  Name = 
REMARK  4 active torsions:
REMARK  status: ('A' for Active; 'I' for Inactive)
REMARK    1  A    between atoms: O_1  and  C_2
REMARK    2  A    between atoms: N_6  and  C_7
REMARK    3  A    between atoms: C_9  and  C_10
REMARK    4  A    between atoms: C_16  and  C_17
REMARK                            x       y       z     vdW  Elec       q    Type
REMARK                         _______ _______ _______ _____ _____    ______ ____
ROOT
ATOM      1  C   UNL     1       1.462   8.128  20.743  0.00  0.00    +0.000 A 
ATOM      2  N   UNL     1       1.893   8.497  21.968  0.00  0.00    +0.000 NA
ATOM      3  N   UNL     1       1.256   9.653  22.216  0.00  0.00    +0.000 N 
ATOM      4  C   UNL     1       0.399  10.041  21.235  0.00  0.00    +0.000 A 
ATOM      5  C   UNL     1      -0.439  11.138  21.104  0.00  0.00    +0.000 A 
ATOM      6  N   UNL     1      -1.198  11.247  19.991  0.00  0.00    +0.000 NA
ATOM      7  C   UNL     1      -1.146  10.286  19.022  0.00  0.00    +0.000 A 
ATOM      8  C   UNL     1      -0.302   9.180  19.119  0.00  0.00    +0.000 A 
ATOM      9  C   UNL     1       0.495   9.062  20.259  0.00  0.00    +0.000 A 
ATOM     10  H   UNL     1       1.454  10.127  23.092  0.00  0.00    +0.000 HD
ENDROOT
BRANCH   1  13
ATOM     11  C   UNL     1       3.697   5.896  18.820  0.00  0.00    +0.000 A 
ATOM     12  N   UNL     1       3.135   7.014  19.370  0.00  0.00    +0.000 NA
ATOM     13  C   UNL     1       1.971   6.915  20.076  0.00  0.00    +0.000 A 
ATOM     14  C   UNL     1       1.283   5.723  20.216  0.00  0.00    +0.000 A 
ATOM     15  C   UNL     1       1.812   4.586  19.633  0.00  0.00    +0.000 A 
ATOM     16  C   UNL     1       3.020   4.662  18.930  0.00  0.00    +0.000 A 
ATOM     17 BR   UNL     1       3.524   3.032  18.072  0.00  0.00    +0.000 Br
BRANCH  11  22
ATOM     18  C   UNL     1       5.736   5.318  15.908  0.00  0.00    +0.000 C 
ATOM     19  C   UNL     1       6.631   4.408  16.741  0.00  0.00    +0.000 C 
ATOM     20  C   UNL     1       7.242   5.199  17.885  0.00  0.00    +0.000 C 
ATOM     21  C   UNL     1       6.152   5.651  18.861  0.00  0.00    +0.000 C 
ATOM     22  N   UNL     1       4.919   6.062  18.178  0.00  0.00    +0.000 N 
ATOM     23  C   UNL     1       4.984   6.374  16.744  0.00  0.00    +0.000 C 
BRANCH  18  24
ATOM     24  O   UNL     1       4.807   4.523  15.166  0.00  0.00    +0.000 OA
ATOM     25  H   UNL     1       3.976   4.496  15.667  0.00  0.00    +0.000 HD
ENDBRANCH  18  24
ENDBRANCH  11  22
ENDBRANCH   1  13
BRANCH   7  26
ATOM     26  C   UNL     1      -2.025  10.489  17.862  0.00  0.00    +0.000 A 
ATOM     27  C   UNL     1      -1.881   9.751  16.679  0.00  0.00    +0.000 A 
ATOM     28  C   UNL     1      -2.763   9.940  15.614  0.00  0.00    +0.000 A 
ATOM     29  C   UNL     1      -3.773  10.875  15.755  0.00  0.00    +0.000 A 
ATOM     30  N   UNL     1      -3.947  11.623  16.860  0.00  0.00    +0.000 NA
ATOM     31  C   UNL     1      -3.069  11.417  17.873  0.00  0.00    +0.000 A 
ENDBRANCH   7  26
TORSDOF 4
ENDMDL
MODEL 9
REMARK VINA RESULT:      -7.4      2.890      3.905
REMARK  Name = 
REMARK  4 active torsions:
REMARK  status: ('A' for Active; 'I' for Inactive)
REMARK    1  A    between atoms: O_1  and  C_2
REMARK    2  A    between atoms: N_6  and  C_7
REMARK    3  A    between atoms: C_9  and  C_10
REMARK    4  A    between atoms: C_16  and  C_17
REMARK                            x       y       z     vdW  Elec       q    Type
REMARK                         _______ _______ _______ _____ _____    ______ ____
ROOT
ATOM      1  C   UNL     1       1.436   9.959  19.043  0.00  0.00    +0.000 A 
ATOM      2  N   UNL     1       2.261  10.458  18.097  0.00  0.00    +0.000 NA
ATOM      3  N   UNL     1       1.802  11.701  17.872  0.00  0.00    +0.000 N 
ATOM      4  C   UNL     1       0.746  12.057  18.650  0.00  0.00    +0.000 A 
ATOM      5  C   UNL     1      -0.001  13.222  18.739  0.00  0.00    +0.000 A 
ATOM      6  N   UNL     1      -1.008  13.282  19.638  0.00  0.00    +0.000 NA
ATOM      7  C   UNL     1      -1.275  12.217  20.449  0.00  0.00    +0.000 A 
ATOM      8  C   UNL     1      -0.552  11.026  20.371  0.00  0.00    +0.000 A 
ATOM      9  C   UNL     1       0.484  10.948  19.439  0.00  0.00    +0.000 A 
ATOM     10  H   UNL     1       2.271  12.260  17.166  0.00  0.00    +0.000 HD
ENDROOT
BRANCH   1  13
ATOM     11  C   UNL     1       2.583   6.453  19.287  0.00  0.00    +0.000 A 
ATOM     12  N   UNL     1       2.344   7.713  18.815  0.00  0.00    +0.000 NA
ATOM     13  C   UNL     1       1.575   8.577  19.539  0.00  0.00    +0.000 A 
ATOM     14  C   UNL     1       0.961   8.215  20.725  0.00  0.00    +0.000 A 
ATOM     15  C   UNL     1       1.157   6.932  21.201  0.00  0.00    +0.000 A 
ATOM     16  C   UNL     1       1.965   6.040  20.487  0.00  0.00    +0.000 A 
ATOM     17 BR   UNL     1       2.005   4.274  21.214  0.00  0.00    +0.000 Br
BRANCH  11  22
ATOM     18  C   UNL     1       3.189   3.297  17.660  0.00  0.00    +0.000 C 
ATOM     19  C   UNL     1       4.296   3.013  18.668  0.00  0.00    +0.000 C 
ATOM     20  C   UNL     1       5.371   4.080  18.561  0.00  0.00    +0.000 C 
ATOM     21  C   UNL     1       4.814   5.441  18.986  0.00  0.00    +0.000 C 
ATOM     22  N   UNL     1       3.435   5.653  18.531  0.00  0.00    +0.000 N 
ATOM     23  C   UNL     1       2.914   4.800  17.455  0.00  0.00    +0.000 C 
BRANCH  18  24
ATOM     24  O   UNL     1       1.991   2.627  18.067  0.00  0.00    +0.000 OA
ATOM     25  H   UNL     1       2.177   1.675  18.081  0.00  0.00    +0.000 HD
ENDBRANCH  18  24
ENDBRANCH  11  22
ENDBRANCH   1  13
BRANCH   7  26
ATOM     26  C   UNL     1      -2.378  12.390  21.404  0.00  0.00    +0.000 A 
ATOM     27  C   UNL     1      -2.216  12.174  22.779  0.00  0.00    +0.000 A 
ATOM     28  C   UNL     1      -3.275  12.393  23.661  0.00  0.00    +0.000 A 
ATOM     29  C   UNL     1      -4.484  12.819  23.143  0.00  0.00    +0.000 A 
ATOM     30  N   UNL     1      -4.701  13.026  21.830  0.00  0.00    +0.000 NA
ATOM     31  C   UNL     1      -3.652  12.799  21.002  0.00  0.00    +0.000 A 
ENDBRANCH   7  26
TORSDOF 4
ENDMDL
