MODEL 1
REMARK VINA RESULT:      -7.1      0.000      0.000
REMARK  Name = 
REMARK  10 active torsions:
REMARK  status: ('A' for Active; 'I' for Inactive)
REMARK    1  A    between atoms: C_1  and  C_2
REMARK    2  A    between atoms: C_2  and  O_3
REMARK    3  A    between atoms: O_3  and  C_4
REMARK    4  A    between atoms: C_4  and  C_6
REMARK    5  A    between atoms: C_7  and  N_8
REMARK    6  A    between atoms: C_9  and  C_11
REMARK    7  A    between atoms: C_11  and  S_12
REMARK    8  A    between atoms: S_12  and  C_13
REMARK    9  A    between atoms: C_23  and  C_24
REMARK   10  A    between atoms: C_25  and  C_26
REMARK                            x       y       z     vdW  Elec       q    Type
REMARK                         _______ _______ _______ _____ _____    ______ ____
ROOT
ATOM      1  N   UNL     1       2.803   7.589  17.443  0.00  0.00    +0.000 N 
ATOM      2  C   UNL     1       2.104   8.274  18.437  0.00  0.00    +0.000 C 
ATOM      3  O   UNL     1       2.066   8.001  19.638  0.00  0.00    +0.000 OA
ATOM      4  H   UNL     1       2.739   7.920  16.490  0.00  0.00    +0.000 HD
ENDROOT
BRANCH   1   6
ATOM      5  C   UNL     1       3.297   5.186  18.030  0.00  0.00    +0.000 A 
ATOM      6  C   UNL     1       3.636   6.481  17.646  0.00  0.00    +0.000 A 
ATOM      7  S   UNL     1       5.312   6.637  17.413  0.00  0.00    +0.000 S 
ATOM      8  C   UNL     1       5.643   5.036  17.849  0.00  0.00    +0.000 A 
ATOM      9  C   UNL     1       7.060   4.566  17.862  0.00  0.00    +0.000 C 
ATOM     10  C   UNL     1       4.491   4.338  18.153  0.00  0.00    +0.000 A 
ATOM     11  C   UNL     1       4.473   2.891  18.560  0.00  0.00    +0.000 C 
BRANCH   5  12
ATOM     12  C   UNL     1       1.946   4.688  18.298  0.00  0.00    +0.000 C 
ATOM     13  O   UNL     1       1.193   4.292  17.415  0.00  0.00    +0.000 OA
BRANCH  12  14
ATOM     14  O   UNL     1       1.592   4.716  19.621  0.00  0.00    +0.000 OA
BRANCH  14  16
ATOM     15  C   UNL     1       1.646   3.045  21.371  0.00  0.00    +0.000 C 
ATOM     16  C   UNL     1       0.989   3.497  20.081  0.00  0.00    +0.000 C 
ENDBRANCH  14  16
ENDBRANCH  12  14
ENDBRANCH   5  12
ENDBRANCH   1   6
BRANCH   2  17
ATOM     17  C   UNL     1       1.298   9.458  17.926  0.00  0.00    +0.000 C 
BRANCH  17  18
ATOM     18  S   UNL     1       0.904  10.612  19.262  0.00  0.00    +0.000 S 
BRANCH  18  19
ATOM     19  C   UNL     1      -0.754  11.081  18.930  0.00  0.00    +0.000 A 
ATOM     20  N   UNL     1      -1.414  10.707  17.858  0.00  0.00    +0.000 NA
ATOM     21  C   UNL     1      -2.746  11.131  17.967  0.00  0.00    +0.000 A 
ATOM     22  C   UNL     1      -3.783  10.895  17.046  0.00  0.00    +0.000 A 
ATOM     23  C   UNL     1      -5.080  11.382  17.289  0.00  0.00    +0.000 A 
ATOM     24  C   UNL     1      -5.350  12.098  18.446  0.00  0.00    +0.000 A 
ATOM     25  C   UNL     1      -4.350  12.343  19.383  0.00  0.00    +0.000 A 
ATOM     26  C   UNL     1      -3.050  11.850  19.126  0.00  0.00    +0.000 A 
ATOM     27  S   UNL     1      -1.640  11.978  20.094  0.00  0.00    +0.000 S 
ENDBRANCH  18  19
ENDBRANCH  17  18
ENDBRANCH   2  17
TORSDOF 7
ENDMDL
MODEL 2
REMARK VINA RESULT:      -7.0      0.759      1.211
REMARK  Name = 
REMARK  10 active torsions:
REMARK  status: ('A' for Active; 'I' for Inactive)
REMARK    1  A    between atoms: C_1  and  C_2
REMARK    2  A    between atoms: C_2  and  O_3
REMARK    3  A    between atoms: O_3  and  C_4
REMARK    4  A    between atoms: C_4  and  C_6
REMARK    5  A    between atoms: C_7  and  N_8
REMARK    6  A    between atoms: C_9  and  C_11
REMARK    7  A    between atoms: C_11  and  S_12
REMARK    8  A    between atoms: S_12  and  C_13
REMARK    9  A    between atoms: C_23  and  C_24
REMARK   10  A    between atoms: C_25  and  C_26
REMARK                            x       y       z     vdW  Elec       q    Type
REMARK                         _______ _______ _______ _____ _____    ______ ____
ROOT
ATOM      1  N   UNL     1       2.855   7.637  17.451  0.00  0.00    +0.000 N 
ATOM      2  C   UNL     1       2.138   8.301  18.446  0.00  0.00    +0.000 C 
ATOM      3  O   UNL     1       2.082   8.006  19.640  0.00  0.00    +0.000 OA
ATOM      4  H   UNL     1       2.805   7.985  16.502  0.00  0.00    +0.000 HD
ENDROOT
BRANCH   1   6
ATOM      5  C   UNL     1       3.355   5.228  18.009  0.00  0.00    +0.000 A 
ATOM      6  C   UNL     1       3.692   6.531  17.647  0.00  0.00    +0.000 A 
ATOM      7  S   UNL     1       5.369   6.697  17.433  0.00  0.00    +0.000 S 
ATOM      8  C   UNL     1       5.703   5.093  17.850  0.00  0.00    +0.000 A 
ATOM      9  C   UNL     1       7.122   4.629  17.872  0.00  0.00    +0.000 C 
ATOM     10  C   UNL     1       4.551   4.385  18.132  0.00  0.00    +0.000 A 
ATOM     11  C   UNL     1       4.536   2.933  18.520  0.00  0.00    +0.000 C 
BRANCH   5  12
ATOM     12  C   UNL     1       2.004   4.721  18.257  0.00  0.00    +0.000 C 
ATOM     13  O   UNL     1       1.255   4.350  17.359  0.00  0.00    +0.000 OA
BRANCH  12  14
ATOM     14  O   UNL     1       1.644   4.710  19.579  0.00  0.00    +0.000 OA
BRANCH  14  16
ATOM     15  C   UNL     1       1.616   3.084  21.372  0.00  0.00    +0.000 C 
ATOM     16  C   UNL     1       1.073   3.464  20.008  0.00  0.00    +0.000 C 
ENDBRANCH  14  16
ENDBRANCH  12  14
ENDBRANCH   5  12
ENDBRANCH   1   6
BRANCH   2  17
ATOM     17  C   UNL     1       1.333   9.489  17.943  0.00  0.00    +0.000 C 
BRANCH  17  18
ATOM     18  S   UNL     1       0.739  10.509  19.314  0.00  0.00    +0.000 S 
BRANCH  18  19
ATOM     19  C   UNL     1      -0.951  10.778  18.930  0.00  0.00    +0.000 A 
ATOM     20  N   UNL     1      -1.755  11.515  19.663  0.00  0.00    +0.000 NA
ATOM     21  C   UNL     1      -2.989  11.641  19.008  0.00  0.00    +0.000 A 
ATOM     22  C   UNL     1      -4.102  12.383  19.445  0.00  0.00    +0.000 A 
ATOM     23  C   UNL     1      -5.280  12.420  18.679  0.00  0.00    +0.000 A 
ATOM     24  C   UNL     1      -5.354  11.729  17.478  0.00  0.00    +0.000 A 
ATOM     25  C   UNL     1      -4.269  10.992  17.012  0.00  0.00    +0.000 A 
ATOM     26  C   UNL     1      -3.090  10.960  17.792  0.00  0.00    +0.000 A 
ATOM     27  S   UNL     1      -1.607  10.164  17.468  0.00  0.00    +0.000 S 
ENDBRANCH  18  19
ENDBRANCH  17  18
ENDBRANCH   2  17
TORSDOF 7
ENDMDL
MODEL 3
REMARK VINA RESULT:      -6.9      1.011      1.030
REMARK  Name = 
REMARK  10 active torsions:
REMARK  status: ('A' for Active; 'I' for Inactive)
REMARK    1  A    between atoms: C_1  and  C_2
REMARK    2  A    between atoms: C_2  and  O_3
REMARK    3  A    between atoms: O_3  and  C_4
REMARK    4  A    between atoms: C_4  and  C_6
REMARK    5  A    between atoms: C_7  and  N_8
REMARK    6  A    between atoms: C_9  and  C_11
REMARK    7  A    between atoms: C_11  and  S_12
REMARK    8  A    between atoms: S_12  and  C_13
REMARK    9  A    between atoms: C_23  and  C_24
REMARK   10  A    between atoms: C_25  and  C_26
REMARK                            x       y       z     vdW  Elec       q    Type
REMARK                         _______ _______ _______ _____ _____    ______ ____
ROOT
ATOM      1  N   UNL     1       2.448   7.439  18.939  0.00  0.00    +0.000 N 
ATOM      2  C   UNL     1       1.899   8.612  18.422  0.00  0.00    +0.000 C 
ATOM      3  O   UNL     1       2.018   9.042  17.274  0.00  0.00    +0.000 OA
ATOM      4  H   UNL     1       2.275   7.209  19.909  0.00  0.00    +0.000 HD
ENDROOT
BRANCH   1   6
ATOM      5  C   UNL     1       2.952   5.147  18.013  0.00  0.00    +0.000 A 
ATOM      6  C   UNL     1       3.201   6.502  18.219  0.00  0.00    +0.000 A 
ATOM      7  S   UNL     1       4.634   6.990  17.448  0.00  0.00    +0.000 S 
ATOM      8  C   UNL     1       4.990   5.443  16.866  0.00  0.00    +0.000 A 
ATOM      9  C   UNL     1       6.242   5.233  16.081  0.00  0.00    +0.000 C 
ATOM     10  C   UNL     1       4.017   4.526  17.216  0.00  0.00    +0.000 A 
ATOM     11  C   UNL     1       4.057   3.075  16.826  0.00  0.00    +0.000 C 
BRANCH   5  12
ATOM     12  C   UNL     1       1.800   4.393  18.513  0.00  0.00    +0.000 C 
ATOM     13  O   UNL     1       1.046   3.761  17.780  0.00  0.00    +0.000 OA
BRANCH  12  14
ATOM     14  O   UNL     1       1.631   4.466  19.871  0.00  0.00    +0.000 OA
BRANCH  14  16
ATOM     15  C   UNL     1       1.606   2.762  21.590  0.00  0.00    +0.000 C 
ATOM     16  C   UNL     1       2.452   3.542  20.602  0.00  0.00    +0.000 C 
ENDBRANCH  14  16
ENDBRANCH  12  14
ENDBRANCH   5  12
ENDBRANCH   1   6
BRANCH   2  17
ATOM     17  C   UNL     1       1.104   9.424  19.433  0.00  0.00    +0.000 C 
BRANCH  17  18
ATOM     18  S   UNL     1       0.997  11.162  18.943  0.00  0.00    +0.000 S 
BRANCH  18  19
ATOM     19  C   UNL     1      -0.728  11.443  18.783  0.00  0.00    +0.000 A 
ATOM     20  N   UNL     1      -1.468  10.902  17.843  0.00  0.00    +0.000 NA
ATOM     21  C   UNL     1      -2.815  11.213  18.082  0.00  0.00    +0.000 A 
ATOM     22  C   UNL     1      -3.924  10.790  17.325  0.00  0.00    +0.000 A 
ATOM     23  C   UNL     1      -5.226  11.180  17.687  0.00  0.00    +0.000 A 
ATOM     24  C   UNL     1      -5.429  11.984  18.799  0.00  0.00    +0.000 A 
ATOM     25  C   UNL     1      -4.356  12.414  19.575  0.00  0.00    +0.000 A 
ATOM     26  C   UNL     1      -3.051  12.017  19.200  0.00  0.00    +0.000 A 
ATOM     27  S   UNL     1      -1.558  12.371  19.964  0.00  0.00    +0.000 S 
ENDBRANCH  18  19
ENDBRANCH  17  18
ENDBRANCH   2  17
TORSDOF 7
ENDMDL
MODEL 4
REMARK VINA RESULT:      -6.9      6.552      9.369
REMARK  Name = 
REMARK  10 active torsions:
REMARK  status: ('A' for Active; 'I' for Inactive)
REMARK    1  A    between atoms: C_1  and  C_2
REMARK    2  A    between atoms: C_2  and  O_3
REMARK    3  A    between atoms: O_3  and  C_4
REMARK    4  A    between atoms: C_4  and  C_6
REMARK    5  A    between atoms: C_7  and  N_8
REMARK    6  A    between atoms: C_9  and  C_11
REMARK    7  A    between atoms: C_11  and  S_12
REMARK    8  A    between atoms: S_12  and  C_13
REMARK    9  A    between atoms: C_23  and  C_24
REMARK   10  A    between atoms: C_25  and  C_26
REMARK                            x       y       z     vdW  Elec       q    Type
REMARK                         _______ _______ _______ _____ _____    ______ ____
ROOT
ATOM      1  N   UNL     1       6.511   7.866  17.219  0.00  0.00    +0.000 N 
ATOM      2  C   UNL     1       7.716   7.978  17.913  0.00  0.00    +0.000 C 
ATOM      3  O   UNL     1       8.206   7.150  18.683  0.00  0.00    +0.000 OA
ATOM      4  H   UNL     1       6.223   8.630  16.622  0.00  0.00    +0.000 HD
ENDROOT
BRANCH   1   6
ATOM      5  C   UNL     1       5.911   5.447  16.830  0.00  0.00    +0.000 A 
ATOM      6  C   UNL     1       5.658   6.755  17.237  0.00  0.00    +0.000 A 
ATOM      7  S   UNL     1       4.071   6.923  17.821  0.00  0.00    +0.000 S 
ATOM      8  C   UNL     1       3.660   5.311  17.519  0.00  0.00    +0.000 A 
ATOM      9  C   UNL     1       2.276   4.845  17.826  0.00  0.00    +0.000 C 
ATOM     10  C   UNL     1       4.722   4.600  16.996  0.00  0.00    +0.000 A 
ATOM     11  C   UNL     1       4.658   3.141  16.640  0.00  0.00    +0.000 C 
BRANCH   5  12
ATOM     12  C   UNL     1       7.174   4.937  16.293  0.00  0.00    +0.000 C 
ATOM     13  O   UNL     1       7.945   4.240  16.945  0.00  0.00    +0.000 OA
BRANCH  12  14
ATOM     14  O   UNL     1       7.426   5.317  15.001  0.00  0.00    +0.000 OA
BRANCH  14  16
ATOM     15  C   UNL     1       6.569   3.812  13.310  0.00  0.00    +0.000 C 
ATOM     16  C   UNL     1       6.328   5.080  14.108  0.00  0.00    +0.000 C 
ENDBRANCH  14  16
ENDBRANCH  12  14
ENDBRANCH   5  12
ENDBRANCH   1   6
BRANCH   2  17
ATOM     17  C   UNL     1       8.446   9.291  17.682  0.00  0.00    +0.000 C 
BRANCH  17  18
ATOM     18  S   UNL     1       9.199   9.903  19.209  0.00  0.00    +0.000 S 
BRANCH  18  19
ATOM     19  C   UNL     1       9.732  11.521  18.790  0.00  0.00    +0.000 A 
ATOM     20  N   UNL     1      10.526  11.786  17.778  0.00  0.00    +0.000 NA
ATOM     21  C   UNL     1      10.640  13.176  17.635  0.00  0.00    +0.000 A 
ATOM     22  C   UNL     1      11.368  13.863  16.645  0.00  0.00    +0.000 A 
ATOM     23  C   UNL     1      11.391  15.269  16.623  0.00  0.00    +0.000 A 
ATOM     24  C   UNL     1      10.690  15.994  17.577  0.00  0.00    +0.000 A 
ATOM     25  C   UNL     1       9.953  15.346  18.565  0.00  0.00    +0.000 A 
ATOM     26  C   UNL     1       9.940  13.932  18.578  0.00  0.00    +0.000 A 
ATOM     27  S   UNL     1       9.117  12.875  19.647  0.00  0.00    +0.000 S 
ENDBRANCH  18  19
ENDBRANCH  17  18
ENDBRANCH   2  17
TORSDOF 7
ENDMDL
MODEL 5
REMARK VINA RESULT:      -6.8      1.303      1.635
REMARK  Name = 
REMARK  10 active torsions:
REMARK  status: ('A' for Active; 'I' for Inactive)
REMARK    1  A    between atoms: C_1  and  C_2
REMARK    2  A    between atoms: C_2  and  O_3
REMARK    3  A    between atoms: O_3  and  C_4
REMARK    4  A    between atoms: C_4  and  C_6
REMARK    5  A    between atoms: C_7  and  N_8
REMARK    6  A    between atoms: C_9  and  C_11
REMARK    7  A    between atoms: C_11  and  S_12
REMARK    8  A    between atoms: S_12  and  C_13
REMARK    9  A    between atoms: C_23  and  C_24
REMARK   10  A    between atoms: C_25  and  C_26
REMARK                            x       y       z     vdW  Elec       q    Type
REMARK                         _______ _______ _______ _____ _____    ______ ____
ROOT
ATOM      1  N   UNL     1       2.291   7.321  18.997  0.00  0.00    +0.000 N 
ATOM      2  C   UNL     1       1.927   8.566  18.486  0.00  0.00    +0.000 C 
ATOM      3  O   UNL     1       2.214   9.024  17.378  0.00  0.00    +0.000 OA
ATOM      4  H   UNL     1       1.992   7.074  19.931  0.00  0.00    +0.000 HD
ENDROOT
BRANCH   1   6
ATOM      5  C   UNL     1       2.753   4.971  18.202  0.00  0.00    +0.000 A 
ATOM      6  C   UNL     1       3.014   6.336  18.312  0.00  0.00    +0.000 A 
ATOM      7  S   UNL     1       4.420   6.765  17.460  0.00  0.00    +0.000 S 
ATOM      8  C   UNL     1       4.750   5.181  16.966  0.00  0.00    +0.000 A 
ATOM      9  C   UNL     1       5.972   4.914  16.152  0.00  0.00    +0.000 C 
ATOM     10  C   UNL     1       3.787   4.295  17.409  0.00  0.00    +0.000 A 
ATOM     11  C   UNL     1       3.808   2.821  17.112  0.00  0.00    +0.000 C 
BRANCH   5  12
ATOM     12  C   UNL     1       1.618   4.257  18.791  0.00  0.00    +0.000 C 
ATOM     13  O   UNL     1       0.956   3.430  18.173  0.00  0.00    +0.000 OA
BRANCH  12  14
ATOM     14  O   UNL     1       1.352   4.604  20.090  0.00  0.00    +0.000 OA
BRANCH  14  16
ATOM     15  C   UNL     1       1.590   2.748  21.625  0.00  0.00    +0.000 C 
ATOM     16  C   UNL     1       2.236   3.991  21.041  0.00  0.00    +0.000 C 
ENDBRANCH  14  16
ENDBRANCH  12  14
ENDBRANCH   5  12
ENDBRANCH   1   6
BRANCH   2  17
ATOM     17  C   UNL     1       1.119   9.421  19.449  0.00  0.00    +0.000 C 
BRANCH  17  18
ATOM     18  S   UNL     1       0.854  11.085  18.789  0.00  0.00    +0.000 S 
BRANCH  18  19
ATOM     19  C   UNL     1      -0.890  11.272  18.820  0.00  0.00    +0.000 A 
ATOM     20  N   UNL     1      -1.531  11.965  19.732  0.00  0.00    +0.000 NA
ATOM     21  C   UNL     1      -2.889  12.033  19.390  0.00  0.00    +0.000 A 
ATOM     22  C   UNL     1      -3.901  12.716  20.089  0.00  0.00    +0.000 A 
ATOM     23  C   UNL     1      -5.228  12.699  19.624  0.00  0.00    +0.000 A 
ATOM     24  C   UNL     1      -5.551  12.008  18.465  0.00  0.00    +0.000 A 
ATOM     25  C   UNL     1      -4.574  11.328  17.744  0.00  0.00    +0.000 A 
ATOM     26  C   UNL     1      -3.243  11.351  18.223  0.00  0.00    +0.000 A 
ATOM     27  S   UNL     1      -1.843  10.631  17.545  0.00  0.00    +0.000 S 
ENDBRANCH  18  19
ENDBRANCH  17  18
ENDBRANCH   2  17
TORSDOF 7
ENDMDL
MODEL 6
REMARK VINA RESULT:      -6.8      6.193      9.130
REMARK  Name = 
REMARK  10 active torsions:
REMARK  status: ('A' for Active; 'I' for Inactive)
REMARK    1  A    between atoms: C_1  and  C_2
REMARK    2  A    between atoms: C_2  and  O_3
REMARK    3  A    between atoms: O_3  and  C_4
REMARK    4  A    between atoms: C_4  and  C_6
REMARK    5  A    between atoms: C_7  and  N_8
REMARK    6  A    between atoms: C_9  and  C_11
REMARK    7  A    between atoms: C_11  and  S_12
REMARK    8  A    between atoms: S_12  and  C_13
REMARK    9  A    between atoms: C_23  and  C_24
REMARK   10  A    between atoms: C_25  and  C_26
REMARK                            x       y       z     vdW  Elec       q    Type
REMARK                         _______ _______ _______ _____ _____    ______ ____
ROOT
ATOM      1  N   UNL     1       6.293   7.448  17.093  0.00  0.00    +0.000 N 
ATOM      2  C   UNL     1       7.453   7.623  17.847  0.00  0.00    +0.000 C 
ATOM      3  O   UNL     1       7.841   6.920  18.781  0.00  0.00    +0.000 OA
ATOM      4  H   UNL     1       6.090   8.110  16.355  0.00  0.00    +0.000 HD
ENDROOT
BRANCH   1   6
ATOM      5  C   UNL     1       5.519   5.057  16.881  0.00  0.00    +0.000 A 
ATOM      6  C   UNL     1       5.377   6.397  17.233  0.00  0.00    +0.000 A 
ATOM      7  S   UNL     1       3.853   6.696  17.922  0.00  0.00    +0.000 S 
ATOM      8  C   UNL     1       3.323   5.101  17.738  0.00  0.00    +0.000 A 
ATOM      9  C   UNL     1       1.941   4.741  18.172  0.00  0.00    +0.000 C 
ATOM     10  C   UNL     1       4.297   4.298  17.178  0.00  0.00    +0.000 A 
ATOM     11  C   UNL     1       4.117   2.830  16.909  0.00  0.00    +0.000 C 
BRANCH   5  12
ATOM     12  C   UNL     1       6.704   4.440  16.281  0.00  0.00    +0.000 C 
ATOM     13  O   UNL     1       7.828   4.547  16.759  0.00  0.00    +0.000 OA
BRANCH  12  14
ATOM     14  O   UNL     1       6.449   3.742  15.129  0.00  0.00    +0.000 OA
BRANCH  14  16
ATOM     15  C   UNL     1       6.329   3.674  12.712  0.00  0.00    +0.000 C 
ATOM     16  C   UNL     1       6.657   4.511  13.934  0.00  0.00    +0.000 C 
ENDBRANCH  14  16
ENDBRANCH  12  14
ENDBRANCH   5  12
ENDBRANCH   1   6
BRANCH   2  17
ATOM     17  C   UNL     1       8.272   8.842  17.453  0.00  0.00    +0.000 C 
BRANCH  17  18
ATOM     18  S   UNL     1       9.028   9.622  18.900  0.00  0.00    +0.000 S 
BRANCH  18  19
ATOM     19  C   UNL     1       9.407  11.243  18.347  0.00  0.00    +0.000 A 
ATOM     20  N   UNL     1       8.574  12.255  18.435  0.00  0.00    +0.000 NA
ATOM     21  C   UNL     1       9.231  13.429  18.040  0.00  0.00    +0.000 A 
ATOM     22  C   UNL     1       8.697  14.730  18.029  0.00  0.00    +0.000 A 
ATOM     23  C   UNL     1       9.479  15.820  17.607  0.00  0.00    +0.000 A 
ATOM     24  C   UNL     1      10.790  15.621  17.200  0.00  0.00    +0.000 A 
ATOM     25  C   UNL     1      11.354  14.348  17.206  0.00  0.00    +0.000 A 
ATOM     26  C   UNL     1      10.557  13.260  17.631  0.00  0.00    +0.000 A 
ATOM     27  S   UNL     1      10.979  11.604  17.762  0.00  0.00    +0.000 S 
ENDBRANCH  18  19
ENDBRANCH  17  18
ENDBRANCH   2  17
TORSDOF 7
ENDMDL
MODEL 7
REMARK VINA RESULT:      -6.8      2.759      3.656
REMARK  Name = 
REMARK  10 active torsions:
REMARK  status: ('A' for Active; 'I' for Inactive)
REMARK    1  A    between atoms: C_1  and  C_2
REMARK    2  A    between atoms: C_2  and  O_3
REMARK    3  A    between atoms: O_3  and  C_4
REMARK    4  A    between atoms: C_4  and  C_6
REMARK    5  A    between atoms: C_7  and  N_8
REMARK    6  A    between atoms: C_9  and  C_11
REMARK    7  A    between atoms: C_11  and  S_12
REMARK    8  A    between atoms: S_12  and  C_13
REMARK    9  A    between atoms: C_23  and  C_24
REMARK   10  A    between atoms: C_25  and  C_26
REMARK                            x       y       z     vdW  Elec       q    Type
REMARK                         _______ _______ _______ _____ _____    ______ ____
ROOT
ATOM      1  N   UNL     1       2.804   7.653  17.468  0.00  0.00    +0.000 N 
ATOM      2  C   UNL     1       2.120   8.326  18.479  0.00  0.00    +0.000 C 
ATOM      3  O   UNL     1       2.099   8.039  19.677  0.00  0.00    +0.000 OA
ATOM      4  H   UNL     1       2.726   7.995  16.519  0.00  0.00    +0.000 HD
ENDROOT
BRANCH   1   6
ATOM      5  C   UNL     1       3.309   5.243  18.019  0.00  0.00    +0.000 A 
ATOM      6  C   UNL     1       3.641   6.544  17.646  0.00  0.00    +0.000 A 
ATOM      7  S   UNL     1       5.314   6.703  17.391  0.00  0.00    +0.000 S 
ATOM      8  C   UNL     1       5.652   5.099  17.803  0.00  0.00    +0.000 A 
ATOM      9  C   UNL     1       7.069   4.630  17.791  0.00  0.00    +0.000 C 
ATOM     10  C   UNL     1       4.504   4.396  18.115  0.00  0.00    +0.000 A 
ATOM     11  C   UNL     1       4.493   2.944  18.505  0.00  0.00    +0.000 C 
BRANCH   5  12
ATOM     12  C   UNL     1       1.962   4.741  18.300  0.00  0.00    +0.000 C 
ATOM     13  O   UNL     1       1.220   4.295  17.430  0.00  0.00    +0.000 OA
BRANCH  12  14
ATOM     14  O   UNL     1       1.597   4.825  19.618  0.00  0.00    +0.000 OA
BRANCH  14  16
ATOM     15  C   UNL     1       1.700   3.023  21.230  0.00  0.00    +0.000 C 
ATOM     16  C   UNL     1       0.913   3.659  20.100  0.00  0.00    +0.000 C 
ENDBRANCH  14  16
ENDBRANCH  12  14
ENDBRANCH   5  12
ENDBRANCH   1   6
BRANCH   2  17
ATOM     17  C   UNL     1       1.305   9.515  17.993  0.00  0.00    +0.000 C 
BRANCH  17  18
ATOM     18  S   UNL     1       0.513  10.377  19.372  0.00  0.00    +0.000 S 
BRANCH  18  19
ATOM     19  C   UNL     1       1.011  12.046  19.160  0.00  0.00    +0.000 A 
ATOM     20  N   UNL     1       2.173  12.400  18.662  0.00  0.00    +0.000 NA
ATOM     21  C   UNL     1       2.198  13.792  18.496  0.00  0.00    +0.000 A 
ATOM     22  C   UNL     1       3.248  14.557  17.955  0.00  0.00    +0.000 A 
ATOM     23  C   UNL     1       3.132  15.954  17.846  0.00  0.00    +0.000 A 
ATOM     24  C   UNL     1       1.975  16.592  18.269  0.00  0.00    +0.000 A 
ATOM     25  C   UNL     1       0.914  15.866  18.802  0.00  0.00    +0.000 A 
ATOM     26  C   UNL     1       1.043  14.462  18.908  0.00  0.00    +0.000 A 
ATOM     27  S   UNL     1      -0.090  13.318  19.497  0.00  0.00    +0.000 S 
ENDBRANCH  18  19
ENDBRANCH  17  18
ENDBRANCH   2  17
TORSDOF 7
ENDMDL
MODEL 8
REMARK VINA RESULT:      -6.7      2.318      2.637
REMARK  Name = 
REMARK  10 active torsions:
REMARK  status: ('A' for Active; 'I' for Inactive)
REMARK    1  A    between atoms: C_1  and  C_2
REMARK    2  A    between atoms: C_2  and  O_3
REMARK    3  A    between atoms: O_3  and  C_4
REMARK    4  A    between atoms: C_4  and  C_6
REMARK    5  A    between atoms: C_7  and  N_8
REMARK    6  A    between atoms: C_9  and  C_11
REMARK    7  A    between atoms: C_11  and  S_12
REMARK    8  A    between atoms: S_12  and  C_13
REMARK    9  A    between atoms: C_23  and  C_24
REMARK   10  A    between atoms: C_25  and  C_26
REMARK                            x       y       z     vdW  Elec       q    Type
REMARK                         _______ _______ _______ _____ _____    ______ ____
ROOT
ATOM      1  N   UNL     1       2.472   7.328  18.881  0.00  0.00    +0.000 N 
ATOM      2  C   UNL     1       2.127   8.462  18.146  0.00  0.00    +0.000 C 
ATOM      3  O   UNL     1       2.461   8.724  16.989  0.00  0.00    +0.000 OA
ATOM      4  H   UNL     1       2.133   7.244  19.830  0.00  0.00    +0.000 HD
ENDROOT
BRANCH   1   6
ATOM      5  C   UNL     1       2.887   4.899  18.340  0.00  0.00    +0.000 A 
ATOM      6  C   UNL     1       3.230   6.248  18.410  0.00  0.00    +0.000 A 
ATOM      7  S   UNL     1       4.799   6.517  17.815  0.00  0.00    +0.000 S 
ATOM      8  C   UNL     1       5.088   4.882  17.495  0.00  0.00    +0.000 A 
ATOM      9  C   UNL     1       6.415   4.473  16.947  0.00  0.00    +0.000 C 
ATOM     10  C   UNL     1       3.994   4.097  17.803  0.00  0.00    +0.000 A 
ATOM     11  C   UNL     1       3.953   2.607  17.610  0.00  0.00    +0.000 C 
BRANCH   5  12
ATOM     12  C   UNL     1       1.610   4.309  18.747  0.00  0.00    +0.000 C 
ATOM     13  O   UNL     1       0.872   3.712  17.970  0.00  0.00    +0.000 OA
BRANCH  12  14
ATOM     14  O   UNL     1       1.305   4.493  20.070  0.00  0.00    +0.000 OA
BRANCH  14  16
ATOM     15  C   UNL     1       1.553   2.633  21.599  0.00  0.00    +0.000 C 
ATOM     16  C   UNL     1       2.218   3.841  20.966  0.00  0.00    +0.000 C 
ENDBRANCH  14  16
ENDBRANCH  12  14
ENDBRANCH   5  12
ENDBRANCH   1   6
BRANCH   2  17
ATOM     17  C   UNL     1       1.272   9.461  18.909  0.00  0.00    +0.000 C 
BRANCH  17  18
ATOM     18  S   UNL     1       1.028   8.942  20.625  0.00  0.00    +0.000 S 
BRANCH  18  19
ATOM     19  C   UNL     1      -0.044  10.166  21.281  0.00  0.00    +0.000 A 
ATOM     20  N   UNL     1      -0.547  11.148  20.569  0.00  0.00    +0.000 NA
ATOM     21  C   UNL     1      -1.468  11.860  21.352  0.00  0.00    +0.000 A 
ATOM     22  C   UNL     1      -2.250  12.957  20.944  0.00  0.00    +0.000 A 
ATOM     23  C   UNL     1      -3.139  13.573  21.843  0.00  0.00    +0.000 A 
ATOM     24  C   UNL     1      -3.257  13.100  23.142  0.00  0.00    +0.000 A 
ATOM     25  C   UNL     1      -2.506  12.012  23.576  0.00  0.00    +0.000 A 
ATOM     26  C   UNL     1      -1.614  11.402  22.664  0.00  0.00    +0.000 A 
ATOM     27  S   UNL     1      -0.587  10.050  22.905  0.00  0.00    +0.000 S 
ENDBRANCH  18  19
ENDBRANCH  17  18
ENDBRANCH   2  17
TORSDOF 7
ENDMDL
MODEL 9
REMARK VINA RESULT:      -6.7      2.106      3.420
REMARK  Name = 
REMARK  10 active torsions:
REMARK  status: ('A' for Active; 'I' for Inactive)
REMARK    1  A    between atoms: C_1  and  C_2
REMARK    2  A    between atoms: C_2  and  O_3
REMARK    3  A    between atoms: O_3  and  C_4
REMARK    4  A    between atoms: C_4  and  C_6
REMARK    5  A    between atoms: C_7  and  N_8
REMARK    6  A    between atoms: C_9  and  C_11
REMARK    7  A    between atoms: C_11  and  S_12
REMARK    8  A    between atoms: S_12  and  C_13
REMARK    9  A    between atoms: C_23  and  C_24
REMARK   10  A    between atoms: C_25  and  C_26
REMARK                            x       y       z     vdW  Elec       q    Type
REMARK                         _______ _______ _______ _____ _____    ______ ____
ROOT
ATOM      1  N   UNL     1       2.773   7.049  19.550  0.00  0.00    +0.000 N 
ATOM      2  C   UNL     1       2.177   7.535  18.387  0.00  0.00    +0.000 C 
ATOM      3  O   UNL     1       1.671   6.871  17.481  0.00  0.00    +0.000 OA
ATOM      4  H   UNL     1       3.158   7.712  20.210  0.00  0.00    +0.000 HD
ENDROOT
BRANCH   1   6
ATOM      5  C   UNL     1       3.864   4.777  19.646  0.00  0.00    +0.000 A 
ATOM      6  C   UNL     1       2.860   5.702  19.923  0.00  0.00    +0.000 A 
ATOM      7  S   UNL     1       1.617   5.004  20.847  0.00  0.00    +0.000 S 
ATOM      8  C   UNL     1       2.331   3.471  20.872  0.00  0.00    +0.000 A 
ATOM      9  C   UNL     1       1.627   2.353  21.566  0.00  0.00    +0.000 C 
ATOM     10  C   UNL     1       3.542   3.458  20.206  0.00  0.00    +0.000 A 
ATOM     11  C   UNL     1       4.411   2.239  20.076  0.00  0.00    +0.000 C 
BRANCH   5  12
ATOM     12  C   UNL     1       5.093   5.033  18.891  0.00  0.00    +0.000 C 
ATOM     13  O   UNL     1       6.199   5.102  19.418  0.00  0.00    +0.000 OA
BRANCH  12  14
ATOM     14  O   UNL     1       4.897   5.203  17.545  0.00  0.00    +0.000 OA
BRANCH  14  16
ATOM     15  C   UNL     1       5.201   6.530  15.544  0.00  0.00    +0.000 C 
ATOM     16  C   UNL     1       5.392   6.456  17.047  0.00  0.00    +0.000 C 
ENDBRANCH  14  16
ENDBRANCH  12  14
ENDBRANCH   5  12
ENDBRANCH   1   6
BRANCH   2  17
ATOM     17  C   UNL     1       2.207   9.050  18.259  0.00  0.00    +0.000 C 
BRANCH  17  18
ATOM     18  S   UNL     1       1.195   9.838  19.535  0.00  0.00    +0.000 S 
BRANCH  18  19
ATOM     19  C   UNL     1      -0.268  10.295  18.681  0.00  0.00    +0.000 A 
ATOM     20  N   UNL     1      -0.604   9.816  17.506  0.00  0.00    +0.000 NA
ATOM     21  C   UNL     1      -1.887  10.272  17.172  0.00  0.00    +0.000 A 
ATOM     22  C   UNL     1      -2.620   9.952  16.013  0.00  0.00    +0.000 A 
ATOM     23  C   UNL     1      -3.905  10.485  15.811  0.00  0.00    +0.000 A 
ATOM     24  C   UNL     1      -4.467  11.330  16.758  0.00  0.00    +0.000 A 
ATOM     25  C   UNL     1      -3.774  11.661  17.919  0.00  0.00    +0.000 A 
ATOM     26  C   UNL     1      -2.481  11.120  18.110  0.00  0.00    +0.000 A 
ATOM     27  S   UNL     1      -1.411  11.331  19.433  0.00  0.00    +0.000 S 
ENDBRANCH  18  19
ENDBRANCH  17  18
ENDBRANCH   2  17
TORSDOF 7
ENDMDL
