MODEL 1
REMARK VINA RESULT:      -6.6      0.000      0.000
REMARK  Name = 
REMARK  5 active torsions:
REMARK  status: ('A' for Active; 'I' for Inactive)
REMARK    1  A    between atoms: O_1  and  C_2
REMARK    2  A    between atoms: C_2  and  C_3
REMARK    3  A    between atoms: C_2  and  C_11
REMARK    4  A    between atoms: C_4  and  C_5
REMARK    5  A    between atoms: C_5  and  N_6
REMARK                            x       y       z     vdW  Elec       q    Type
REMARK                         _______ _______ _______ _____ _____    ______ ____
ROOT
ATOM      1  C   UNL     1       5.570   4.397  15.990  0.00  0.00    +0.000 C 
ENDROOT
BRANCH   1   2
ATOM      2  C   UNL     1       6.437   5.249  16.894  0.00  0.00    +0.000 A 
ATOM      3  C   UNL     1       7.068   4.677  18.013  0.00  0.00    +0.000 A 
ATOM      4  C   UNL     1       7.847   5.460  18.870  0.00  0.00    +0.000 A 
ATOM      5  C   UNL     1       8.017   6.819  18.614  0.00  0.00    +0.000 A 
ATOM      6  C   UNL     1       7.432   7.393  17.488  0.00  0.00    +0.000 A 
ATOM      7  C   UNL     1       6.655   6.612  16.631  0.00  0.00    +0.000 A 
ENDBRANCH   1   2
BRANCH   1   8
ATOM      8  O   UNL     1       6.306   3.250  15.563  0.00  0.00    +0.000 OA
ATOM      9  H   UNL     1       6.843   3.539  14.807  0.00  0.00    +0.000 HD
ENDBRANCH   1   8
BRANCH   1  10
ATOM     10  C   UNL     1       4.338   3.964  16.666  0.00  0.00    +0.000 C 
ATOM     11  C   UNL     1       3.386   3.556  17.273  0.00  0.00    +0.000 C 
BRANCH  11  12
ATOM     12  C   UNL     1       2.325   2.981  18.120  0.00  0.00    +0.000 C 
BRANCH  12  13
ATOM     13  N   UNL     1       1.976   3.895  19.220  0.00  0.00    +0.000 NA
ATOM     14  C   UNL     1       3.061   3.991  20.207  0.00  0.00    +0.000 C 
ATOM     15  C   UNL     1       2.813   2.848  21.173  0.00  0.00    +0.000 C 
ATOM     16  C   UNL     1       1.303   2.821  21.284  0.00  0.00    +0.000 C 
ATOM     17  C   UNL     1       0.798   3.435  19.984  0.00  0.00    +0.000 C 
ENDBRANCH  12  13
ENDBRANCH  11  12
ENDBRANCH   1  10
TORSDOF 5
ENDMDL
MODEL 2
REMARK VINA RESULT:      -6.5      0.644      1.226
REMARK  Name = 
REMARK  5 active torsions:
REMARK  status: ('A' for Active; 'I' for Inactive)
REMARK    1  A    between atoms: O_1  and  C_2
REMARK    2  A    between atoms: C_2  and  C_3
REMARK    3  A    between atoms: C_2  and  C_11
REMARK    4  A    between atoms: C_4  and  C_5
REMARK    5  A    between atoms: C_5  and  N_6
REMARK                            x       y       z     vdW  Elec       q    Type
REMARK                         _______ _______ _______ _____ _____    ______ ____
ROOT
ATOM      1  C   UNL     1       5.528   4.384  16.030  0.00  0.00    +0.000 C 
ENDROOT
BRANCH   1   2
ATOM      2  C   UNL     1       6.410   5.250  16.905  0.00  0.00    +0.000 A 
ATOM      3  C   UNL     1       7.053   4.698  18.028  0.00  0.00    +0.000 A 
ATOM      4  C   UNL     1       7.846   5.494  18.859  0.00  0.00    +0.000 A 
ATOM      5  C   UNL     1       8.019   6.847  18.572  0.00  0.00    +0.000 A 
ATOM      6  C   UNL     1       7.422   7.401  17.443  0.00  0.00    +0.000 A 
ATOM      7  C   UNL     1       6.631   6.606  16.612  0.00  0.00    +0.000 A 
ENDBRANCH   1   2
BRANCH   1   8
ATOM      8  O   UNL     1       6.275   3.263  15.558  0.00  0.00    +0.000 OA
ATOM      9  H   UNL     1       5.678   2.499  15.607  0.00  0.00    +0.000 HD
ENDBRANCH   1   8
BRANCH   1  10
ATOM     10  C   UNL     1       4.338   3.912  16.754  0.00  0.00    +0.000 C 
ATOM     11  C   UNL     1       3.396   3.438  17.328  0.00  0.00    +0.000 C 
BRANCH  11  12
ATOM     12  C   UNL     1       2.315   2.709  18.015  0.00  0.00    +0.000 C 
BRANCH  12  13
ATOM     13  N   UNL     1       2.556   2.651  19.466  0.00  0.00    +0.000 NA
ATOM     14  C   UNL     1       1.296   2.619  20.222  0.00  0.00    +0.000 C 
ATOM     15  C   UNL     1       0.919   4.076  20.414  0.00  0.00    +0.000 C 
ATOM     16  C   UNL     1       2.258   4.744  20.649  0.00  0.00    +0.000 C 
ATOM     17  C   UNL     1       3.277   3.839  19.966  0.00  0.00    +0.000 C 
ENDBRANCH  12  13
ENDBRANCH  11  12
ENDBRANCH   1  10
TORSDOF 5
ENDMDL
MODEL 3
REMARK VINA RESULT:      -6.5      0.306      1.243
REMARK  Name = 
REMARK  5 active torsions:
REMARK  status: ('A' for Active; 'I' for Inactive)
REMARK    1  A    between atoms: O_1  and  C_2
REMARK    2  A    between atoms: C_2  and  C_3
REMARK    3  A    between atoms: C_2  and  C_11
REMARK    4  A    between atoms: C_4  and  C_5
REMARK    5  A    between atoms: C_5  and  N_6
REMARK                            x       y       z     vdW  Elec       q    Type
REMARK                         _______ _______ _______ _____ _____    ______ ____
ROOT
ATOM      1  C   UNL     1       5.452   4.441  16.166  0.00  0.00    +0.000 C 
ENDROOT
BRANCH   1   2
ATOM      2  C   UNL     1       6.342   5.329  17.010  0.00  0.00    +0.000 A 
ATOM      3  C   UNL     1       6.465   6.697  16.709  0.00  0.00    +0.000 A 
ATOM      4  C   UNL     1       7.307   7.520  17.463  0.00  0.00    +0.000 A 
ATOM      5  C   UNL     1       8.024   6.991  18.535  0.00  0.00    +0.000 A 
ATOM      6  C   UNL     1       7.884   5.648  18.871  0.00  0.00    +0.000 A 
ATOM      7  C   UNL     1       7.043   4.825  18.119  0.00  0.00    +0.000 A 
ENDBRANCH   1   2
BRANCH   1   8
ATOM      8  O   UNL     1       6.106   3.193  15.930  0.00  0.00    +0.000 OA
ATOM      9  H   UNL     1       5.658   2.793  15.168  0.00  0.00    +0.000 HD
ENDBRANCH   1   8
BRANCH   1  10
ATOM     10  C   UNL     1       4.153   4.199  16.811  0.00  0.00    +0.000 C 
ATOM     11  C   UNL     1       3.131   3.926  17.379  0.00  0.00    +0.000 C 
BRANCH  11  12
ATOM     12  C   UNL     1       1.963   3.473  18.156  0.00  0.00    +0.000 C 
BRANCH  12  13
ATOM     13  N   UNL     1       1.869   4.195  19.435  0.00  0.00    +0.000 NA
ATOM     14  C   UNL     1       3.081   4.013  20.248  0.00  0.00    +0.000 C 
ATOM     15  C   UNL     1       2.839   2.737  21.031  0.00  0.00    +0.000 C 
ATOM     16  C   UNL     1       1.363   2.820  21.365  0.00  0.00    +0.000 C 
ATOM     17  C   UNL     1       0.761   3.705  20.280  0.00  0.00    +0.000 C 
ENDBRANCH  12  13
ENDBRANCH  11  12
ENDBRANCH   1  10
TORSDOF 5
ENDMDL
MODEL 4
REMARK VINA RESULT:      -6.5      0.739      1.785
REMARK  Name = 
REMARK  5 active torsions:
REMARK  status: ('A' for Active; 'I' for Inactive)
REMARK    1  A    between atoms: O_1  and  C_2
REMARK    2  A    between atoms: C_2  and  C_3
REMARK    3  A    between atoms: C_2  and  C_11
REMARK    4  A    between atoms: C_4  and  C_5
REMARK    5  A    between atoms: C_5  and  N_6
REMARK                            x       y       z     vdW  Elec       q    Type
REMARK                         _______ _______ _______ _____ _____    ______ ____
ROOT
ATOM      1  C   UNL     1       5.397   4.233  16.210  0.00  0.00    +0.000 C 
ENDROOT
BRANCH   1   2
ATOM      2  C   UNL     1       6.276   5.171  17.011  0.00  0.00    +0.000 A 
ATOM      3  C   UNL     1       6.376   6.527  16.651  0.00  0.00    +0.000 A 
ATOM      4  C   UNL     1       7.208   7.395  17.364  0.00  0.00    +0.000 A 
ATOM      5  C   UNL     1       7.938   6.924  18.455  0.00  0.00    +0.000 A 
ATOM      6  C   UNL     1       7.820   5.595  18.849  0.00  0.00    +0.000 A 
ATOM      7  C   UNL     1       6.989   4.727  18.137  0.00  0.00    +0.000 A 
ENDBRANCH   1   2
BRANCH   1   8
ATOM      8  O   UNL     1       6.208   3.252  15.564  0.00  0.00    +0.000 OA
ATOM      9  H   UNL     1       5.944   2.395  15.937  0.00  0.00    +0.000 HD
ENDBRANCH   1   8
BRANCH   1  10
ATOM     10  C   UNL     1       4.398   3.565  17.058  0.00  0.00    +0.000 C 
ATOM     11  C   UNL     1       3.653   2.965  17.782  0.00  0.00    +0.000 C 
BRANCH  11  12
ATOM     12  C   UNL     1       2.873   2.154  18.735  0.00  0.00    +0.000 C 
BRANCH  12  13
ATOM     13  N   UNL     1       2.920   2.738  20.086  0.00  0.00    +0.000 NA
ATOM     14  C   UNL     1       1.620   2.630  20.765  0.00  0.00    +0.000 C 
ATOM     15  C   UNL     1       0.850   3.865  20.335  0.00  0.00    +0.000 C 
ATOM     16  C   UNL     1       1.922   4.935  20.299  0.00  0.00    +0.000 C 
ATOM     17  C   UNL     1       3.226   4.182  20.066  0.00  0.00    +0.000 C 
ENDBRANCH  12  13
ENDBRANCH  11  12
ENDBRANCH   1  10
TORSDOF 5
ENDMDL
MODEL 5
REMARK VINA RESULT:      -6.5      0.689      1.650
REMARK  Name = 
REMARK  5 active torsions:
REMARK  status: ('A' for Active; 'I' for Inactive)
REMARK    1  A    between atoms: O_1  and  C_2
REMARK    2  A    between atoms: C_2  and  C_3
REMARK    3  A    between atoms: C_2  and  C_11
REMARK    4  A    between atoms: C_4  and  C_5
REMARK    5  A    between atoms: C_5  and  N_6
REMARK                            x       y       z     vdW  Elec       q    Type
REMARK                         _______ _______ _______ _____ _____    ______ ____
ROOT
ATOM      1  C   UNL     1       5.396   4.500  16.253  0.00  0.00    +0.000 C 
ENDROOT
BRANCH   1   2
ATOM      2  C   UNL     1       6.319   5.362  17.089  0.00  0.00    +0.000 A 
ATOM      3  C   UNL     1       6.525   6.712  16.751  0.00  0.00    +0.000 A 
ATOM      4  C   UNL     1       7.398   7.508  17.498  0.00  0.00    +0.000 A 
ATOM      5  C   UNL     1       8.064   6.973  18.599  0.00  0.00    +0.000 A 
ATOM      6  C   UNL     1       7.842   5.650  18.971  0.00  0.00    +0.000 A 
ATOM      7  C   UNL     1       6.970   4.853  18.226  0.00  0.00    +0.000 A 
ENDBRANCH   1   2
BRANCH   1   8
ATOM      8  O   UNL     1       6.038   3.259  15.957  0.00  0.00    +0.000 OA
ATOM      9  H   UNL     1       6.901   3.485  15.574  0.00  0.00    +0.000 HD
ENDBRANCH   1   8
BRANCH   1  10
ATOM     10  C   UNL     1       4.121   4.242  16.939  0.00  0.00    +0.000 C 
ATOM     11  C   UNL     1       3.065   4.124  17.497  0.00  0.00    +0.000 C 
BRANCH  11  12
ATOM     12  C   UNL     1       1.744   4.141  18.151  0.00  0.00    +0.000 C 
BRANCH  12  13
ATOM     13  N   UNL     1       1.534   2.921  18.947  0.00  0.00    +0.000 NA
ATOM     14  C   UNL     1       0.703   3.185  20.131  0.00  0.00    +0.000 C 
ATOM     15  C   UNL     1       1.681   3.629  21.203  0.00  0.00    +0.000 C 
ATOM     16  C   UNL     1       2.884   2.744  20.950  0.00  0.00    +0.000 C 
ATOM     17  C   UNL     1       2.796   2.367  19.476  0.00  0.00    +0.000 C 
ENDBRANCH  12  13
ENDBRANCH  11  12
ENDBRANCH   1  10
TORSDOF 5
ENDMDL
MODEL 6
REMARK VINA RESULT:      -6.3      2.385      3.679
REMARK  Name = 
REMARK  5 active torsions:
REMARK  status: ('A' for Active; 'I' for Inactive)
REMARK    1  A    between atoms: O_1  and  C_2
REMARK    2  A    between atoms: C_2  and  C_3
REMARK    3  A    between atoms: C_2  and  C_11
REMARK    4  A    between atoms: C_4  and  C_5
REMARK    5  A    between atoms: C_5  and  N_6
REMARK                            x       y       z     vdW  Elec       q    Type
REMARK                         _______ _______ _______ _____ _____    ______ ____
ROOT
ATOM      1  C   UNL     1       5.837   5.465  15.794  0.00  0.00    +0.000 C 
ENDROOT
BRANCH   1   2
ATOM      2  C   UNL     1       6.210   4.869  14.452  0.00  0.00    +0.000 A 
ATOM      3  C   UNL     1       7.392   5.271  13.805  0.00  0.00    +0.000 A 
ATOM      4  C   UNL     1       7.732   4.750  12.553  0.00  0.00    +0.000 A 
ATOM      5  C   UNL     1       6.904   3.812  11.939  0.00  0.00    +0.000 A 
ATOM      6  C   UNL     1       5.751   3.373  12.584  0.00  0.00    +0.000 A 
ATOM      7  C   UNL     1       5.412   3.892  13.834  0.00  0.00    +0.000 A 
ENDBRANCH   1   2
BRANCH   1   8
ATOM      8  O   UNL     1       5.213   6.734  15.597  0.00  0.00    +0.000 OA
ATOM      9  H   UNL     1       5.178   6.873  14.637  0.00  0.00    +0.000 HD
ENDBRANCH   1   8
BRANCH   1  10
ATOM     10  C   UNL     1       4.932   4.585  16.549  0.00  0.00    +0.000 C 
ATOM     11  C   UNL     1       4.182   3.816  17.086  0.00  0.00    +0.000 C 
BRANCH  11  12
ATOM     12  C   UNL     1       3.271   2.781  17.606  0.00  0.00    +0.000 C 
BRANCH  12  13
ATOM     13  N   UNL     1       1.889   3.284  17.678  0.00  0.00    +0.000 NA
ATOM     14  C   UNL     1       1.841   4.659  18.196  0.00  0.00    +0.000 C 
ATOM     15  C   UNL     1       1.788   4.507  19.704  0.00  0.00    +0.000 C 
ATOM     16  C   UNL     1       0.903   3.291  19.890  0.00  0.00    +0.000 C 
ATOM     17  C   UNL     1       1.048   2.494  18.600  0.00  0.00    +0.000 C 
ENDBRANCH  12  13
ENDBRANCH  11  12
ENDBRANCH   1  10
TORSDOF 5
ENDMDL
MODEL 7
REMARK VINA RESULT:      -6.3      2.059      6.070
REMARK  Name = 
REMARK  5 active torsions:
REMARK  status: ('A' for Active; 'I' for Inactive)
REMARK    1  A    between atoms: O_1  and  C_2
REMARK    2  A    between atoms: C_2  and  C_3
REMARK    3  A    between atoms: C_2  and  C_11
REMARK    4  A    between atoms: C_4  and  C_5
REMARK    5  A    between atoms: C_5  and  N_6
REMARK                            x       y       z     vdW  Elec       q    Type
REMARK                         _______ _______ _______ _____ _____    ______ ____
ROOT
ATOM      1  C   UNL     1       3.288   3.217  17.666  0.00  0.00    +0.000 C 
ENDROOT
BRANCH   1   2
ATOM      2  C   UNL     1       2.690   3.092  19.051  0.00  0.00    +0.000 A 
ATOM      3  C   UNL     1       1.355   3.473  19.282  0.00  0.00    +0.000 A 
ATOM      4  C   UNL     1       0.802   3.391  20.562  0.00  0.00    +0.000 A 
ATOM      5  C   UNL     1       1.567   2.914  21.625  0.00  0.00    +0.000 A 
ATOM      6  C   UNL     1       2.877   2.495  21.407  0.00  0.00    +0.000 A 
ATOM      7  C   UNL     1       3.430   2.577  20.128  0.00  0.00    +0.000 A 
ENDBRANCH   1   2
BRANCH   1   8
ATOM      8  O   UNL     1       2.243   3.228  16.692  0.00  0.00    +0.000 OA
ATOM      9  H   UNL     1       2.578   2.731  15.929  0.00  0.00    +0.000 HD
ENDBRANCH   1   8
BRANCH   1  10
ATOM     10  C   UNL     1       4.100   4.435  17.529  0.00  0.00    +0.000 C 
ATOM     11  C   UNL     1       4.708   5.453  17.343  0.00  0.00    +0.000 C 
BRANCH  11  12
ATOM     12  C   UNL     1       5.340   6.740  17.001  0.00  0.00    +0.000 C 
BRANCH  12  13
ATOM     13  N   UNL     1       6.784   6.573  16.769  0.00  0.00    +0.000 NA
ATOM     14  C   UNL     1       7.325   5.434  17.526  0.00  0.00    +0.000 C 
ATOM     15  C   UNL     1       7.681   6.003  18.886  0.00  0.00    +0.000 C 
ATOM     16  C   UNL     1       8.219   7.378  18.547  0.00  0.00    +0.000 C 
ATOM     17  C   UNL     1       7.567   7.742  17.219  0.00  0.00    +0.000 C 
ENDBRANCH  12  13
ENDBRANCH  11  12
ENDBRANCH   1  10
TORSDOF 5
ENDMDL
MODEL 8
REMARK VINA RESULT:      -6.2      2.341      3.631
REMARK  Name = 
REMARK  5 active torsions:
REMARK  status: ('A' for Active; 'I' for Inactive)
REMARK    1  A    between atoms: O_1  and  C_2
REMARK    2  A    between atoms: C_2  and  C_3
REMARK    3  A    between atoms: C_2  and  C_11
REMARK    4  A    between atoms: C_4  and  C_5
REMARK    5  A    between atoms: C_5  and  N_6
REMARK                            x       y       z     vdW  Elec       q    Type
REMARK                         _______ _______ _______ _____ _____    ______ ____
ROOT
ATOM      1  C   UNL     1       5.945   5.264  15.851  0.00  0.00    +0.000 C 
ENDROOT
BRANCH   1   2
ATOM      2  C   UNL     1       6.281   4.779  14.456  0.00  0.00    +0.000 A 
ATOM      3  C   UNL     1       5.437   3.863  13.803  0.00  0.00    +0.000 A 
ATOM      4  C   UNL     1       5.753   3.386  12.528  0.00  0.00    +0.000 A 
ATOM      5  C   UNL     1       6.906   3.829  11.882  0.00  0.00    +0.000 A 
ATOM      6  C   UNL     1       7.732   4.766  12.497  0.00  0.00    +0.000 A 
ATOM      7  C   UNL     1       7.417   5.243  13.771  0.00  0.00    +0.000 A 
ENDBRANCH   1   2
BRANCH   1   8
ATOM      8  O   UNL     1       5.551   6.635  15.799  0.00  0.00    +0.000 OA
ATOM      9  H   UNL     1       5.058   6.744  14.970  0.00  0.00    +0.000 HD
ENDBRANCH   1   8
BRANCH   1  10
ATOM     10  C   UNL     1       4.871   4.466  16.462  0.00  0.00    +0.000 C 
ATOM     11  C   UNL     1       3.977   3.890  17.016  0.00  0.00    +0.000 C 
BRANCH  11  12
ATOM     12  C   UNL     1       2.844   3.325  17.773  0.00  0.00    +0.000 C 
BRANCH  12  13
ATOM     13  N   UNL     1       3.107   3.363  19.221  0.00  0.00    +0.000 NA
ATOM     14  C   UNL     1       2.052   2.672  19.978  0.00  0.00    +0.000 C 
ATOM     15  C   UNL     1       0.988   3.727  20.216  0.00  0.00    +0.000 C 
ATOM     16  C   UNL     1       1.803   4.978  20.469  0.00  0.00    +0.000 C 
ATOM     17  C   UNL     1       3.129   4.739  19.756  0.00  0.00    +0.000 C 
ENDBRANCH  12  13
ENDBRANCH  11  12
ENDBRANCH   1  10
TORSDOF 5
ENDMDL
MODEL 9
REMARK VINA RESULT:      -6.2      2.045      6.000
REMARK  Name = 
REMARK  5 active torsions:
REMARK  status: ('A' for Active; 'I' for Inactive)
REMARK    1  A    between atoms: O_1  and  C_2
REMARK    2  A    between atoms: C_2  and  C_3
REMARK    3  A    between atoms: C_2  and  C_11
REMARK    4  A    between atoms: C_4  and  C_5
REMARK    5  A    between atoms: C_5  and  N_6
REMARK                            x       y       z     vdW  Elec       q    Type
REMARK                         _______ _______ _______ _____ _____    ______ ____
ROOT
ATOM      1  C   UNL     1       3.380   3.265  17.693  0.00  0.00    +0.000 C 
ENDROOT
BRANCH   1   2
ATOM      2  C   UNL     1       2.703   3.142  19.042  0.00  0.00    +0.000 A 
ATOM      3  C   UNL     1       3.435   2.714  20.164  0.00  0.00    +0.000 A 
ATOM      4  C   UNL     1       2.814   2.568  21.407  0.00  0.00    +0.000 A 
ATOM      5  C   UNL     1       1.459   2.863  21.550  0.00  0.00    +0.000 A 
ATOM      6  C   UNL     1       0.729   3.326  20.459  0.00  0.00    +0.000 A 
ATOM      7  C   UNL     1       1.349   3.472  19.217  0.00  0.00    +0.000 A 
ENDBRANCH   1   2
BRANCH   1   8
ATOM      8  O   UNL     1       2.400   3.190  16.657  0.00  0.00    +0.000 OA
ATOM      9  H   UNL     1       1.603   2.816  17.065  0.00  0.00    +0.000 HD
ENDBRANCH   1   8
BRANCH   1  10
ATOM     10  C   UNL     1       4.128   4.526  17.570  0.00  0.00    +0.000 C 
ATOM     11  C   UNL     1       4.705   5.561  17.382  0.00  0.00    +0.000 C 
BRANCH  11  12
ATOM     12  C   UNL     1       5.330   6.842  17.007  0.00  0.00    +0.000 C 
BRANCH  12  13
ATOM     13  N   UNL     1       6.772   6.673  16.760  0.00  0.00    +0.000 NA
ATOM     14  C   UNL     1       7.302   5.486  17.447  0.00  0.00    +0.000 C 
ATOM     15  C   UNL     1       7.669   5.971  18.837  0.00  0.00    +0.000 C 
ATOM     16  C   UNL     1       8.221   7.357  18.576  0.00  0.00    +0.000 C 
ATOM     17  C   UNL     1       7.569   7.805  17.273  0.00  0.00    +0.000 C 
ENDBRANCH  12  13
ENDBRANCH  11  12
ENDBRANCH   1  10
TORSDOF 5
ENDMDL
