MODEL 1
REMARK VINA RESULT:      -9.3      0.000      0.000
REMARK  Name = 
REMARK  4 active torsions:
REMARK  status: ('A' for Active; 'I' for Inactive)
REMARK    1  A    between atoms: O_1  and  C_2
REMARK    2  A    between atoms: C_2  and  C_3
REMARK    3  A    between atoms: N_16  and  C_17
REMARK    4  A    between atoms: C_17  and  C_18
REMARK                            x       y       z     vdW  Elec       q    Type
REMARK                         _______ _______ _______ _____ _____    ______ ____
ROOT
ATOM      1  C   UNL     1       3.972   3.408  18.209  0.00  0.00    +0.000 C 
ATOM      2  C   UNL     1       3.853   2.954  19.700  0.00  0.00    +0.000 C 
ATOM      3  C   UNL     1       2.496   3.243  20.389  0.00  0.00    +0.000 C 
ATOM      4  C   UNL     1       1.422   2.211  20.025  0.00  0.00    +0.000 C 
ATOM      5  C   UNL     1       0.653   2.857  18.874  0.00  0.00    +0.000 C 
ATOM      6  C   UNL     1       1.478   4.120  18.540  0.00  0.00    +0.000 C 
ATOM      7  C   UNL     1       2.593   3.686  17.569  0.00  0.00    +0.000 C 
ATOM      8  N   UNL     1       1.871   4.476  19.903  0.00  0.00    +0.000 NA
ENDROOT
BRANCH   1   9
ATOM      9  C   UNL     1       5.018   4.526  17.979  0.00  0.00    +0.000 A 
ATOM     10  C   UNL     1       5.996   4.870  18.936  0.00  0.00    +0.000 A 
ATOM     11  C   UNL     1       6.901   5.918  18.737  0.00  0.00    +0.000 A 
ATOM     12  C   UNL     1       6.861   6.649  17.561  0.00  0.00    +0.000 A 
ATOM     13 CL   UNL     1       7.961   7.945  17.319  0.00  0.00    +0.000 Cl
ATOM     14  C   UNL     1       5.924   6.332  16.583  0.00  0.00    +0.000 A 
ATOM     15  C   UNL     1       5.017   5.280  16.787  0.00  0.00    +0.000 A 
ENDBRANCH   1   9
BRANCH   1  16
ATOM     16  O   UNL     1       4.491   2.279  17.466  0.00  0.00    +0.000 OA
ATOM     17  H   UNL     1       4.423   2.475  16.521  0.00  0.00    +0.000 HD
ENDBRANCH   1  16
BRANCH   8  18
ATOM     18  C   UNL     1       2.637   5.668  20.243  0.00  0.00    +0.000 C 
BRANCH  18  19
ATOM     19  C   UNL     1       2.186   6.979  19.656  0.00  0.00    +0.000 A 
ATOM     20  C   UNL     1       2.602   7.355  18.389  0.00  0.00    +0.000 A 
ATOM     21  S   UNL     1       2.069   8.888  17.909  0.00  0.00    +0.000 S 
ATOM     22  C   UNL     1       1.350   9.179  19.439  0.00  0.00    +0.000 A 
ATOM     23  C   UNL     1       0.719  10.374  19.835  0.00  0.00    +0.000 A 
ATOM     24  C   UNL     1       0.205  10.471  21.125  0.00  0.00    +0.000 A 
ATOM     25  C   UNL     1       0.310   9.395  21.998  0.00  0.00    +0.000 A 
ATOM     26  C   UNL     1       0.934   8.209  21.598  0.00  0.00    +0.000 A 
ATOM     27  C   UNL     1       1.473   8.073  20.293  0.00  0.00    +0.000 A 
ENDBRANCH  18  19
ENDBRANCH   8  18
TORSDOF 4
ENDMDL
MODEL 2
REMARK VINA RESULT:      -9.0      0.398      1.003
REMARK  Name = 
REMARK  4 active torsions:
REMARK  status: ('A' for Active; 'I' for Inactive)
REMARK    1  A    between atoms: O_1  and  C_2
REMARK    2  A    between atoms: C_2  and  C_3
REMARK    3  A    between atoms: N_16  and  C_17
REMARK    4  A    between atoms: C_17  and  C_18
REMARK                            x       y       z     vdW  Elec       q    Type
REMARK                         _______ _______ _______ _____ _____    ______ ____
ROOT
ATOM      1  C   UNL     1       4.145   3.768  18.189  0.00  0.00    +0.000 C 
ATOM      2  C   UNL     1       3.986   3.280  19.666  0.00  0.00    +0.000 C 
ATOM      3  C   UNL     1       2.590   3.492  20.302  0.00  0.00    +0.000 C 
ATOM      4  C   UNL     1       1.582   2.417  19.875  0.00  0.00    +0.000 C 
ATOM      5  C   UNL     1       0.831   3.049  18.704  0.00  0.00    +0.000 C 
ATOM      6  C   UNL     1       1.609   4.355  18.427  0.00  0.00    +0.000 C 
ATOM      7  C   UNL     1       2.782   3.993  17.496  0.00  0.00    +0.000 C 
ATOM      8  N   UNL     1       1.928   4.703  19.811  0.00  0.00    +0.000 NA
ENDROOT
BRANCH   1   9
ATOM      9  C   UNL     1       5.145   4.937  18.023  0.00  0.00    +0.000 A 
ATOM     10  C   UNL     1       4.993   5.943  17.047  0.00  0.00    +0.000 A 
ATOM     11  C   UNL     1       5.934   6.965  16.873  0.00  0.00    +0.000 A 
ATOM     12  C   UNL     1       7.055   7.015  17.683  0.00  0.00    +0.000 A 
ATOM     13 CL   UNL     1       8.219   8.258  17.463  0.00  0.00    +0.000 Cl
ATOM     14  C   UNL     1       7.236   6.051  18.671  0.00  0.00    +0.000 A 
ATOM     15  C   UNL     1       6.290   5.028  18.842  0.00  0.00    +0.000 A 
ENDBRANCH   1   9
BRANCH   1  16
ATOM     16  O   UNL     1       4.747   2.678  17.449  0.00  0.00    +0.000 OA
ATOM     17  H   UNL     1       5.179   2.081  18.076  0.00  0.00    +0.000 HD
ENDBRANCH   1  16
BRANCH   8  18
ATOM     18  C   UNL     1       2.622   5.923  20.203  0.00  0.00    +0.000 C 
BRANCH  18  19
ATOM     19  C   UNL     1       2.067   7.232  19.708  0.00  0.00    +0.000 A 
ATOM     20  C   UNL     1       2.392   7.692  18.442  0.00  0.00    +0.000 A 
ATOM     21  S   UNL     1       1.750   9.212  18.069  0.00  0.00    +0.000 S 
ATOM     22  C   UNL     1       1.100   9.387  19.646  0.00  0.00    +0.000 A 
ATOM     23  C   UNL     1       0.426  10.524  20.135  0.00  0.00    +0.000 A 
ATOM     24  C   UNL     1      -0.022  10.529  21.453  0.00  0.00    +0.000 A 
ATOM     25  C   UNL     1       0.191   9.420  22.264  0.00  0.00    +0.000 A 
ATOM     26  C   UNL     1       0.857   8.293  21.772  0.00  0.00    +0.000 A 
ATOM     27  C   UNL     1       1.330   8.251  20.436  0.00  0.00    +0.000 A 
ENDBRANCH  18  19
ENDBRANCH   8  18
TORSDOF 4
ENDMDL
MODEL 3
REMARK VINA RESULT:      -8.7      1.088      1.744
REMARK  Name = 
REMARK  4 active torsions:
REMARK  status: ('A' for Active; 'I' for Inactive)
REMARK    1  A    between atoms: O_1  and  C_2
REMARK    2  A    between atoms: C_2  and  C_3
REMARK    3  A    between atoms: N_16  and  C_17
REMARK    4  A    between atoms: C_17  and  C_18
REMARK                            x       y       z     vdW  Elec       q    Type
REMARK                         _______ _______ _______ _____ _____    ______ ____
ROOT
ATOM      1  C   UNL     1       4.068   3.556  18.134  0.00  0.00    +0.000 C 
ATOM      2  C   UNL     1       3.950   3.043  19.606  0.00  0.00    +0.000 C 
ATOM      3  C   UNL     1       2.586   3.281  20.299  0.00  0.00    +0.000 C 
ATOM      4  C   UNL     1       1.532   2.246  19.890  0.00  0.00    +0.000 C 
ATOM      5  C   UNL     1       0.756   2.923  18.761  0.00  0.00    +0.000 C 
ATOM      6  C   UNL     1       1.561   4.212  18.480  0.00  0.00    +0.000 C 
ATOM      7  C   UNL     1       2.687   3.835  17.498  0.00  0.00    +0.000 C 
ATOM      8  N   UNL     1       1.942   4.522  19.858  0.00  0.00    +0.000 NA
ENDROOT
BRANCH   1   9
ATOM      9  C   UNL     1       5.096   4.699  17.953  0.00  0.00    +0.000 A 
ATOM     10  C   UNL     1       6.335   4.730  18.625  0.00  0.00    +0.000 A 
ATOM     11  C   UNL     1       7.231   5.796  18.492  0.00  0.00    +0.000 A 
ATOM     12  C   UNL     1       6.916   6.864  17.669  0.00  0.00    +0.000 A 
ATOM     13 CL   UNL     1       8.007   8.181  17.515  0.00  0.00    +0.000 Cl
ATOM     14  C   UNL     1       5.710   6.866  16.973  0.00  0.00    +0.000 A 
ATOM     15  C   UNL     1       4.814   5.795  17.109  0.00  0.00    +0.000 A 
ENDBRANCH   1   9
BRANCH   1  16
ATOM     16  O   UNL     1       4.610   2.465  17.350  0.00  0.00    +0.000 OA
ATOM     17  H   UNL     1       4.242   1.634  17.683  0.00  0.00    +0.000 HD
ENDBRANCH   1  16
BRANCH   8  18
ATOM     18  C   UNL     1       2.686   5.712  20.247  0.00  0.00    +0.000 C 
BRANCH  18  19
ATOM     19  C   UNL     1       1.914   6.993  20.420  0.00  0.00    +0.000 A 
ATOM     20  C   UNL     1       1.018   7.130  21.469  0.00  0.00    +0.000 A 
ATOM     21  S   UNL     1       0.178   8.599  21.477  0.00  0.00    +0.000 S 
ATOM     22  C   UNL     1       0.889   9.079  19.992  0.00  0.00    +0.000 A 
ATOM     23  C   UNL     1       0.594  10.261  19.285  0.00  0.00    +0.000 A 
ATOM     24  C   UNL     1       1.235  10.501  18.073  0.00  0.00    +0.000 A 
ATOM     25  C   UNL     1       2.156   9.584  17.579  0.00  0.00    +0.000 A 
ATOM     26  C   UNL     1       2.447   8.413  18.287  0.00  0.00    +0.000 A 
ATOM     27  C   UNL     1       1.813   8.133  19.524  0.00  0.00    +0.000 A 
ENDBRANCH  18  19
ENDBRANCH   8  18
TORSDOF 4
ENDMDL
MODEL 4
REMARK VINA RESULT:      -8.6      1.281      1.647
REMARK  Name = 
REMARK  4 active torsions:
REMARK  status: ('A' for Active; 'I' for Inactive)
REMARK    1  A    between atoms: O_1  and  C_2
REMARK    2  A    between atoms: C_2  and  C_3
REMARK    3  A    between atoms: N_16  and  C_17
REMARK    4  A    between atoms: C_17  and  C_18
REMARK                            x       y       z     vdW  Elec       q    Type
REMARK                         _______ _______ _______ _____ _____    ______ ____
ROOT
ATOM      1  C   UNL     1       3.719   2.943  18.542  0.00  0.00    +0.000 C 
ATOM      2  C   UNL     1       3.975   3.339  20.033  0.00  0.00    +0.000 C 
ATOM      3  C   UNL     1       2.838   4.128  20.728  0.00  0.00    +0.000 C 
ATOM      4  C   UNL     1       1.698   3.217  21.203  0.00  0.00    +0.000 C 
ATOM      5  C   UNL     1       0.669   3.282  20.075  0.00  0.00    +0.000 C 
ATOM      6  C   UNL     1       1.394   4.065  18.957  0.00  0.00    +0.000 C 
ATOM      7  C   UNL     1       2.225   3.043  18.157  0.00  0.00    +0.000 C 
ATOM      8  N   UNL     1       2.120   5.011  19.805  0.00  0.00    +0.000 NA
ENDROOT
BRANCH   1   9
ATOM      9  C   UNL     1       4.682   3.625  17.541  0.00  0.00    +0.000 A 
ATOM     10  C   UNL     1       4.406   3.731  16.162  0.00  0.00    +0.000 A 
ATOM     11  C   UNL     1       5.310   4.303  15.260  0.00  0.00    +0.000 A 
ATOM     12  C   UNL     1       6.520   4.798  15.717  0.00  0.00    +0.000 A 
ATOM     13 CL   UNL     1       7.638   5.486  14.611  0.00  0.00    +0.000 Cl
ATOM     14  C   UNL     1       6.826   4.729  17.073  0.00  0.00    +0.000 A 
ATOM     15  C   UNL     1       5.916   4.155  17.975  0.00  0.00    +0.000 A 
ENDBRANCH   1   9
BRANCH   1  16
ATOM     16  O   UNL     1       4.025   1.532  18.424  0.00  0.00    +0.000 OA
ATOM     17  H   UNL     1       3.657   1.206  17.590  0.00  0.00    +0.000 HD
ENDBRANCH   1  16
BRANCH   8  18
ATOM     18  C   UNL     1       2.956   6.086  19.290  0.00  0.00    +0.000 C 
BRANCH  18  19
ATOM     19  C   UNL     1       2.312   7.431  19.075  0.00  0.00    +0.000 A 
ATOM     20  C   UNL     1       2.566   8.147  17.916  0.00  0.00    +0.000 A 
ATOM     21  S   UNL     1       1.826   9.668  17.864  0.00  0.00    +0.000 S 
ATOM     22  C   UNL     1       1.224   9.493  19.460  0.00  0.00    +0.000 A 
ATOM     23  C   UNL     1       0.507  10.469  20.178  0.00  0.00    +0.000 A 
ATOM     24  C   UNL     1       0.107  10.190  21.482  0.00  0.00    +0.000 A 
ATOM     25  C   UNL     1       0.410   8.960  22.055  0.00  0.00    +0.000 A 
ATOM     26  C   UNL     1       1.119   7.993  21.336  0.00  0.00    +0.000 A 
ATOM     27  C   UNL     1       1.546   8.241  20.006  0.00  0.00    +0.000 A 
ENDBRANCH  18  19
ENDBRANCH   8  18
TORSDOF 4
ENDMDL
MODEL 5
REMARK VINA RESULT:      -8.5      0.931      1.018
REMARK  Name = 
REMARK  4 active torsions:
REMARK  status: ('A' for Active; 'I' for Inactive)
REMARK    1  A    between atoms: O_1  and  C_2
REMARK    2  A    between atoms: C_2  and  C_3
REMARK    3  A    between atoms: N_16  and  C_17
REMARK    4  A    between atoms: C_17  and  C_18
REMARK                            x       y       z     vdW  Elec       q    Type
REMARK                         _______ _______ _______ _____ _____    ______ ____
ROOT
ATOM      1  C   UNL     1       4.818   4.143  17.977  0.00  0.00    +0.000 C 
ATOM      2  C   UNL     1       4.496   3.670  19.432  0.00  0.00    +0.000 C 
ATOM      3  C   UNL     1       3.019   3.809  19.878  0.00  0.00    +0.000 C 
ATOM      4  C   UNL     1       2.138   2.671  19.350  0.00  0.00    +0.000 C 
ATOM      5  C   UNL     1       1.512   3.238  18.076  0.00  0.00    +0.000 C 
ATOM      6  C   UNL     1       2.243   4.583  17.872  0.00  0.00    +0.000 C 
ATOM      7  C   UNL     1       3.547   4.276  17.109  0.00  0.00    +0.000 C 
ATOM      8  N   UNL     1       2.359   4.972  19.277  0.00  0.00    +0.000 NA
ENDROOT
BRANCH   1   9
ATOM      9  C   UNL     1       5.764   5.367  17.914  0.00  0.00    +0.000 A 
ATOM     10  C   UNL     1       7.014   5.404  18.566  0.00  0.00    +0.000 A 
ATOM     11  C   UNL     1       7.835   6.537  18.544  0.00  0.00    +0.000 A 
ATOM     12  C   UNL     1       7.431   7.668  17.856  0.00  0.00    +0.000 A 
ATOM     13 CL   UNL     1       8.430   9.065  17.839  0.00  0.00    +0.000 Cl
ATOM     14  C   UNL     1       6.212   7.669  17.184  0.00  0.00    +0.000 A 
ATOM     15  C   UNL     1       5.391   6.530  17.209  0.00  0.00    +0.000 A 
ENDBRANCH   1   9
BRANCH   1  16
ATOM     16  O   UNL     1       5.573   3.079  17.347  0.00  0.00    +0.000 OA
ATOM     17  H   UNL     1       6.286   2.812  17.944  0.00  0.00    +0.000 HD
ENDBRANCH   1  16
BRANCH   8  18
ATOM     18  C   UNL     1       2.926   6.236  19.726  0.00  0.00    +0.000 C 
BRANCH  18  19
ATOM     19  C   UNL     1       2.177   7.498  19.387  0.00  0.00    +0.000 A 
ATOM     20  C   UNL     1       2.431   8.159  18.195  0.00  0.00    +0.000 A 
ATOM     21  S   UNL     1       1.563   9.598  18.001  0.00  0.00    +0.000 S 
ATOM     22  C   UNL     1       0.888   9.470  19.573  0.00  0.00    +0.000 A 
ATOM     23  C   UNL     1       0.046  10.419  20.184  0.00  0.00    +0.000 A 
ATOM     24  C   UNL     1      -0.401  10.188  21.482  0.00  0.00    +0.000 A 
ATOM     25  C   UNL     1      -0.023   9.030  22.153  0.00  0.00    +0.000 A 
ATOM     26  C   UNL     1       0.811   8.090  21.539  0.00  0.00    +0.000 A 
ATOM     27  C   UNL     1       1.289   8.291  20.219  0.00  0.00    +0.000 A 
ENDBRANCH  18  19
ENDBRANCH   8  18
TORSDOF 4
ENDMDL
MODEL 6
REMARK VINA RESULT:      -7.6      1.545      2.354
REMARK  Name = 
REMARK  4 active torsions:
REMARK  status: ('A' for Active; 'I' for Inactive)
REMARK    1  A    between atoms: O_1  and  C_2
REMARK    2  A    between atoms: C_2  and  C_3
REMARK    3  A    between atoms: N_16  and  C_17
REMARK    4  A    between atoms: C_17  and  C_18
REMARK                            x       y       z     vdW  Elec       q    Type
REMARK                         _______ _______ _______ _____ _____    ______ ____
ROOT
ATOM      1  C   UNL     1       5.230   4.177  17.449  0.00  0.00    +0.000 C 
ATOM      2  C   UNL     1       5.052   3.252  18.697  0.00  0.00    +0.000 C 
ATOM      3  C   UNL     1       3.611   3.132  19.250  0.00  0.00    +0.000 C 
ATOM      4  C   UNL     1       2.753   2.150  18.442  0.00  0.00    +0.000 C 
ATOM      5  C   UNL     1       1.996   3.036  17.453  0.00  0.00    +0.000 C 
ATOM      6  C   UNL     1       2.636   4.430  17.641  0.00  0.00    +0.000 C 
ATOM      7  C   UNL     1       3.888   4.476  16.744  0.00  0.00    +0.000 C 
ATOM      8  N   UNL     1       2.842   4.369  19.088  0.00  0.00    +0.000 NA
ENDROOT
BRANCH   1   9
ATOM      9  C   UNL     1       6.101   5.428  17.720  0.00  0.00    +0.000 A 
ATOM     10  C   UNL     1       5.907   6.656  17.054  0.00  0.00    +0.000 A 
ATOM     11  C   UNL     1       6.736   7.762  17.270  0.00  0.00    +0.000 A 
ATOM     12  C   UNL     1       7.782   7.675  18.173  0.00  0.00    +0.000 A 
ATOM     13 CL   UNL     1       8.809   9.027  18.430  0.00  0.00    +0.000 Cl
ATOM     14  C   UNL     1       7.998   6.487  18.866  0.00  0.00    +0.000 A 
ATOM     15  C   UNL     1       7.165   5.379  18.646  0.00  0.00    +0.000 A 
ENDBRANCH   1   9
BRANCH   1  16
ATOM     16  O   UNL     1       5.988   3.424  16.471  0.00  0.00    +0.000 OA
ATOM     17  H   UNL     1       6.921   3.671  16.548  0.00  0.00    +0.000 HD
ENDBRANCH   1  16
BRANCH   8  18
ATOM     18  C   UNL     1       3.375   5.470  19.879  0.00  0.00    +0.000 C 
BRANCH  18  19
ATOM     19  C   UNL     1       2.464   6.638  20.152  0.00  0.00    +0.000 A 
ATOM     20  C   UNL     1       1.599   6.608  21.235  0.00  0.00    +0.000 A 
ATOM     21  S   UNL     1       0.593   7.963  21.357  0.00  0.00    +0.000 S 
ATOM     22  C   UNL     1       1.186   8.607  19.882  0.00  0.00    +0.000 A 
ATOM     23  C   UNL     1       0.728   9.784  19.257  0.00  0.00    +0.000 A 
ATOM     24  C   UNL     1       1.290  10.165  18.042  0.00  0.00    +0.000 A 
ATOM     25  C   UNL     1       2.293   9.394  17.466  0.00  0.00    +0.000 A 
ATOM     26  C   UNL     1       2.746   8.229  18.093  0.00  0.00    +0.000 A 
ATOM     27  C   UNL     1       2.196   7.806  19.331  0.00  0.00    +0.000 A 
ENDBRANCH  18  19
ENDBRANCH   8  18
TORSDOF 4
ENDMDL
MODEL 7
REMARK VINA RESULT:      -7.5      1.467      2.231
REMARK  Name = 
REMARK  4 active torsions:
REMARK  status: ('A' for Active; 'I' for Inactive)
REMARK    1  A    between atoms: O_1  and  C_2
REMARK    2  A    between atoms: C_2  and  C_3
REMARK    3  A    between atoms: N_16  and  C_17
REMARK    4  A    between atoms: C_17  and  C_18
REMARK                            x       y       z     vdW  Elec       q    Type
REMARK                         _______ _______ _______ _____ _____    ______ ____
ROOT
ATOM      1  C   UNL     1       3.581   2.745  18.791  0.00  0.00    +0.000 C 
ATOM      2  C   UNL     1       3.678   3.048  20.321  0.00  0.00    +0.000 C 
ATOM      3  C   UNL     1       2.416   3.668  20.970  0.00  0.00    +0.000 C 
ATOM      4  C   UNL     1       1.341   2.619  21.281  0.00  0.00    +0.000 C 
ATOM      5  C   UNL     1       0.403   2.673  20.076  0.00  0.00    +0.000 C 
ATOM      6  C   UNL     1       1.130   3.605  19.082  0.00  0.00    +0.000 C 
ATOM      7  C   UNL     1       2.120   2.732  18.287  0.00  0.00    +0.000 C 
ATOM      8  N   UNL     1       1.688   4.547  20.052  0.00  0.00    +0.000 NA
ENDROOT
BRANCH   1   9
ATOM      9  C   UNL     1       4.547   3.591  17.925  0.00  0.00    +0.000 A 
ATOM     10  C   UNL     1       4.410   3.719  16.528  0.00  0.00    +0.000 A 
ATOM     11  C   UNL     1       5.321   4.444  15.751  0.00  0.00    +0.000 A 
ATOM     12  C   UNL     1       6.396   5.074  16.357  0.00  0.00    +0.000 A 
ATOM     13 CL   UNL     1       7.524   5.952  15.405  0.00  0.00    +0.000 Cl
ATOM     14  C   UNL     1       6.558   4.988  17.736  0.00  0.00    +0.000 A 
ATOM     15  C   UNL     1       5.642   4.260  18.512  0.00  0.00    +0.000 A 
ENDBRANCH   1   9
BRANCH   1  16
ATOM     16  O   UNL     1       4.037   1.383  18.601  0.00  0.00    +0.000 OA
ATOM     17  H   UNL     1       4.499   1.099  19.403  0.00  0.00    +0.000 HD
ENDBRANCH   1  16
BRANCH   8  18
ATOM     18  C   UNL     1       2.449   5.734  19.686  0.00  0.00    +0.000 C 
BRANCH  18  19
ATOM     19  C   UNL     1       1.922   7.070  20.142  0.00  0.00    +0.000 A 
ATOM     20  C   UNL     1       1.258   7.180  21.354  0.00  0.00    +0.000 A 
ATOM     21  S   UNL     1       0.665   8.730  21.682  0.00  0.00    +0.000 S 
ATOM     22  C   UNL     1       1.164   9.308  20.146  0.00  0.00    +0.000 A 
ATOM     23  C   UNL     1       0.930  10.602  19.641  0.00  0.00    +0.000 A 
ATOM     24  C   UNL     1       1.374  10.916  18.359  0.00  0.00    +0.000 A 
ATOM     25  C   UNL     1       2.043   9.962  17.601  0.00  0.00    +0.000 A 
ATOM     26  C   UNL     1       2.275   8.680  18.109  0.00  0.00    +0.000 A 
ATOM     27  C   UNL     1       1.836   8.321  19.410  0.00  0.00    +0.000 A 
ENDBRANCH  18  19
ENDBRANCH   8  18
TORSDOF 4
ENDMDL
MODEL 8
REMARK VINA RESULT:      -7.0      2.881      6.237
REMARK  Name = 
REMARK  4 active torsions:
REMARK  status: ('A' for Active; 'I' for Inactive)
REMARK    1  A    between atoms: O_1  and  C_2
REMARK    2  A    between atoms: C_2  and  C_3
REMARK    3  A    between atoms: N_16  and  C_17
REMARK    4  A    between atoms: C_17  and  C_18
REMARK                            x       y       z     vdW  Elec       q    Type
REMARK                         _______ _______ _______ _____ _____    ______ ____
ROOT
ATOM      1  C   UNL     1       2.101   4.542  19.689  0.00  0.00    +0.000 C 
ATOM      2  C   UNL     1       1.432   3.647  18.596  0.00  0.00    +0.000 C 
ATOM      3  C   UNL     1       2.375   2.667  17.855  0.00  0.00    +0.000 C 
ATOM      4  C   UNL     1       2.660   1.399  18.669  0.00  0.00    +0.000 C 
ATOM      5  C   UNL     1       3.984   1.693  19.373  0.00  0.00    +0.000 C 
ATOM      6  C   UNL     1       4.245   3.184  19.063  0.00  0.00    +0.000 C 
ATOM      7  C   UNL     1       3.484   4.005  20.122  0.00  0.00    +0.000 C 
ATOM      8  N   UNL     1       3.729   3.204  17.694  0.00  0.00    +0.000 NA
ENDROOT
BRANCH   1   9
ATOM      9  C   UNL     1       2.079   6.054  19.356  0.00  0.00    +0.000 A 
ATOM     10  C   UNL     1       1.763   7.044  20.309  0.00  0.00    +0.000 A 
ATOM     11  C   UNL     1       1.695   8.403  19.981  0.00  0.00    +0.000 A 
ATOM     12  C   UNL     1       1.955   8.813  18.684  0.00  0.00    +0.000 A 
ATOM     13 CL   UNL     1       1.858  10.478  18.275  0.00  0.00    +0.000 Cl
ATOM     14  C   UNL     1       2.288   7.870  17.716  0.00  0.00    +0.000 A 
ATOM     15  C   UNL     1       2.355   6.508  18.049  0.00  0.00    +0.000 A 
ENDBRANCH   1   9
BRANCH   1  16
ATOM     16  O   UNL     1       1.285   4.431  20.881  0.00  0.00    +0.000 OA
ATOM     17  H   UNL     1       1.672   4.986  21.572  0.00  0.00    +0.000 HD
ENDBRANCH   1  16
BRANCH   8  18
ATOM     18  C   UNL     1       3.772   4.373  16.826  0.00  0.00    +0.000 C 
BRANCH  18  19
ATOM     19  C   UNL     1       5.110   4.779  16.267  0.00  0.00    +0.000 A 
ATOM     20  C   UNL     1       5.906   5.683  16.953  0.00  0.00    +0.000 A 
ATOM     21  S   UNL     1       7.341   6.091  16.154  0.00  0.00    +0.000 S 
ATOM     22  C   UNL     1       6.906   5.162  14.780  0.00  0.00    +0.000 A 
ATOM     23  C   UNL     1       7.647   5.068  13.585  0.00  0.00    +0.000 A 
ATOM     24  C   UNL     1       7.148   4.294  12.541  0.00  0.00    +0.000 A 
ATOM     25  C   UNL     1       5.941   3.621  12.689  0.00  0.00    +0.000 A 
ATOM     26  C   UNL     1       5.212   3.715  13.878  0.00  0.00    +0.000 A 
ATOM     27  C   UNL     1       5.685   4.496  14.964  0.00  0.00    +0.000 A 
ENDBRANCH  18  19
ENDBRANCH   8  18
TORSDOF 4
ENDMDL
MODEL 9
REMARK VINA RESULT:      -7.0      6.766      9.836
REMARK  Name = 
REMARK  4 active torsions:
REMARK  status: ('A' for Active; 'I' for Inactive)
REMARK    1  A    between atoms: O_1  and  C_2
REMARK    2  A    between atoms: C_2  and  C_3
REMARK    3  A    between atoms: N_16  and  C_17
REMARK    4  A    between atoms: C_17  and  C_18
REMARK                            x       y       z     vdW  Elec       q    Type
REMARK                         _______ _______ _______ _____ _____    ______ ____
ROOT
ATOM      1  C   UNL     1      -0.954  13.360  22.179  0.00  0.00    +0.000 C 
ATOM      2  C   UNL     1      -1.405  14.087  20.871  0.00  0.00    +0.000 C 
ATOM      3  C   UNL     1      -2.896  14.499  20.805  0.00  0.00    +0.000 C 
ATOM      4  C   UNL     1      -3.182  15.791  21.580  0.00  0.00    +0.000 C 
ATOM      5  C   UNL     1      -3.668  15.311  22.947  0.00  0.00    +0.000 C 
ATOM      6  C   UNL     1      -3.428  13.785  22.910  0.00  0.00    +0.000 C 
ATOM      7  C   UNL     1      -1.965  13.549  23.333  0.00  0.00    +0.000 C 
ATOM      8  N   UNL     1      -3.771  13.556  21.507  0.00  0.00    +0.000 NA
ENDROOT
BRANCH   1   9
ATOM      9  C   UNL     1      -0.508  11.894  21.957  0.00  0.00    +0.000 A 
ATOM     10  C   UNL     1      -0.795  10.858  22.869  0.00  0.00    +0.000 A 
ATOM     11  C   UNL     1      -0.340   9.549  22.681  0.00  0.00    +0.000 A 
ATOM     12  C   UNL     1       0.412   9.234  21.562  0.00  0.00    +0.000 A 
ATOM     13 CL   UNL     1       0.985   7.631  21.336  0.00  0.00    +0.000 Cl
ATOM     14  C   UNL     1       0.704  10.223  20.627  0.00  0.00    +0.000 A 
ATOM     15  C   UNL     1       0.245  11.535  20.819  0.00  0.00    +0.000 A 
ENDBRANCH   1   9
BRANCH   1  16
ATOM     16  O   UNL     1       0.245  14.028  22.641  0.00  0.00    +0.000 OA
ATOM     17  H   UNL     1       0.972  13.389  22.645  0.00  0.00    +0.000 HD
ENDBRANCH   1  16
BRANCH   8  18
ATOM     18  C   UNL     1      -3.797  12.240  20.882  0.00  0.00    +0.000 C 
BRANCH  18  19
ATOM     19  C   UNL     1      -4.217  12.161  19.438  0.00  0.00    +0.000 A 
ATOM     20  C   UNL     1      -5.462  12.629  19.048  0.00  0.00    +0.000 A 
ATOM     21  S   UNL     1      -5.808  12.397  17.408  0.00  0.00    +0.000 S 
ATOM     22  C   UNL     1      -4.343  11.540  17.161  0.00  0.00    +0.000 A 
ATOM     23  C   UNL     1      -3.940  10.934  15.955  0.00  0.00    +0.000 A 
ATOM     24  C   UNL     1      -2.731  10.245  15.917  0.00  0.00    +0.000 A 
ATOM     25  C   UNL     1      -1.937  10.169  17.056  0.00  0.00    +0.000 A 
ATOM     26  C   UNL     1      -2.341  10.776  18.250  0.00  0.00    +0.000 A 
ATOM     27  C   UNL     1      -3.567  11.484  18.329  0.00  0.00    +0.000 A 
ENDBRANCH  18  19
ENDBRANCH   8  18
TORSDOF 4
ENDMDL
