MODEL 1
REMARK VINA RESULT:      -8.3      0.000      0.000
REMARK  Name = 
REMARK  9 active torsions:
REMARK  status: ('A' for Active; 'I' for Inactive)
REMARK    1  A    between atoms: C_1  and  O_2
REMARK    2  A    between atoms: O_2  and  C_3
REMARK    3  A    between atoms: C_7  and  C_8
REMARK    4  A    between atoms: C_9  and  C_10
REMARK    5  A    between atoms: C_13  and  C_14
REMARK    6  A    between atoms: C_14  and  C_15
REMARK    7  A    between atoms: C_15  and  C_16
REMARK    8  A    between atoms: C_15  and  N_17
REMARK    9  A    between atoms: C_18  and  C_19
REMARK                            x       y       z     vdW  Elec       q    Type
REMARK                         _______ _______ _______ _____ _____    ______ ____
ROOT
ATOM      1  C   UNL     1       7.156   7.074  17.677  0.00  0.00    +0.000 A 
ATOM      2  C   UNL     1       5.969   7.202  16.954  0.00  0.00    +0.000 A 
ATOM      3  C   UNL     1       5.162   6.083  16.716  0.00  0.00    +0.000 A 
ATOM      4  C   UNL     1       5.534   4.816  17.184  0.00  0.00    +0.000 A 
ATOM      5  C   UNL     1       6.753   4.689  17.870  0.00  0.00    +0.000 A 
ATOM      6  C   UNL     1       7.557   5.811  18.116  0.00  0.00    +0.000 A 
ENDROOT
BRANCH   1   8
ATOM      7  C   UNL     1       8.575   9.195  18.329  0.00  0.00    +0.000 C 
ATOM      8  C   UNL     1       7.924   8.231  18.013  0.00  0.00    +0.000 C 
BRANCH   7  13
ATOM      9  C   UNL     1      10.847  12.598  19.467  0.00  0.00    +0.000 A 
ATOM     10  C   UNL     1      10.781  12.190  18.131  0.00  0.00    +0.000 A 
ATOM     11  F   UNL     1      11.446  12.876  17.187  0.00  0.00    +0.000 F 
ATOM     12  C   UNL     1      10.028  11.084  17.737  0.00  0.00    +0.000 A 
ATOM     13  C   UNL     1       9.332  10.350  18.695  0.00  0.00    +0.000 A 
ATOM     14  C   UNL     1       9.389  10.735  20.032  0.00  0.00    +0.000 A 
ATOM     15  C   UNL     1      10.141  11.846  20.409  0.00  0.00    +0.000 A 
ATOM     16  F   UNL     1      10.182  12.139  21.715  0.00  0.00    +0.000 F 
BRANCH   9  18
ATOM     17  C   UNL     1      11.000  14.920  19.928  0.00  0.00    +0.000 C 
ATOM     18  O   UNL     1      11.654  13.671  19.731  0.00  0.00    +0.000 OA
ENDBRANCH   9  18
ENDBRANCH   7  13
ENDBRANCH   1   8
BRANCH   4  19
ATOM     19  C   UNL     1       4.606   3.624  17.034  0.00  0.00    +0.000 C 
BRANCH  19  20
ATOM     20  C   UNL     1       3.644   3.367  18.217  0.00  0.00    +0.000 C 
ATOM     21  C   UNL     1       4.214   2.340  19.193  0.00  0.00    +0.000 C 
BRANCH  20  22
ATOM     22  N   UNL     1       3.359   4.605  18.953  0.00  0.00    +0.000 N 
ATOM     23  C   UNL     1       2.125   4.876  19.500  0.00  0.00    +0.000 C 
ATOM     24  C   UNL     1       2.035   6.203  20.213  0.00  0.00    +0.000 C 
ATOM     25  O   UNL     1       1.166   4.116  19.424  0.00  0.00    +0.000 OA
ATOM     26  H   UNL     1       4.083   5.309  19.009  0.00  0.00    +0.000 HD
ENDBRANCH  20  22
ENDBRANCH  19  20
ENDBRANCH   4  19
TORSDOF 6
ENDMDL
MODEL 2
REMARK VINA RESULT:      -8.3      1.055      2.069
REMARK  Name = 
REMARK  9 active torsions:
REMARK  status: ('A' for Active; 'I' for Inactive)
REMARK    1  A    between atoms: C_1  and  O_2
REMARK    2  A    between atoms: O_2  and  C_3
REMARK    3  A    between atoms: C_7  and  C_8
REMARK    4  A    between atoms: C_9  and  C_10
REMARK    5  A    between atoms: C_13  and  C_14
REMARK    6  A    between atoms: C_14  and  C_15
REMARK    7  A    between atoms: C_15  and  C_16
REMARK    8  A    between atoms: C_15  and  N_17
REMARK    9  A    between atoms: C_18  and  C_19
REMARK                            x       y       z     vdW  Elec       q    Type
REMARK                         _______ _______ _______ _____ _____    ______ ____
ROOT
ATOM      1  C   UNL     1       7.491   7.387  18.030  0.00  0.00    +0.000 A 
ATOM      2  C   UNL     1       6.418   7.426  17.139  0.00  0.00    +0.000 A 
ATOM      3  C   UNL     1       5.601   6.302  16.965  0.00  0.00    +0.000 A 
ATOM      4  C   UNL     1       5.852   5.117  17.668  0.00  0.00    +0.000 A 
ATOM      5  C   UNL     1       6.962   5.072  18.527  0.00  0.00    +0.000 A 
ATOM      6  C   UNL     1       7.775   6.200  18.708  0.00  0.00    +0.000 A 
ENDROOT
BRANCH   1   8
ATOM      7  C   UNL     1       8.884   9.576  18.482  0.00  0.00    +0.000 C 
ATOM      8  C   UNL     1       8.257   8.565  18.288  0.00  0.00    +0.000 C 
BRANCH   7  13
ATOM      9  C   UNL     1      11.124  13.131  19.103  0.00  0.00    +0.000 A 
ATOM     10  C   UNL     1      10.433  12.521  20.156  0.00  0.00    +0.000 A 
ATOM     11  F   UNL     1      10.470  13.063  21.384  0.00  0.00    +0.000 F 
ATOM     12  C   UNL     1       9.706  11.345  19.974  0.00  0.00    +0.000 A 
ATOM     13  C   UNL     1       9.645  10.764  18.709  0.00  0.00    +0.000 A 
ATOM     14  C   UNL     1      10.320  11.358  17.645  0.00  0.00    +0.000 A 
ATOM     15  C   UNL     1      11.048  12.529  17.845  0.00  0.00    +0.000 A 
ATOM     16  F   UNL     1      11.643  13.067  16.772  0.00  0.00    +0.000 F 
BRANCH   9  18
ATOM     17  C   UNL     1      11.073  15.502  19.074  0.00  0.00    +0.000 C 
ATOM     18  O   UNL     1      11.765  14.303  19.401  0.00  0.00    +0.000 OA
ENDBRANCH   9  18
ENDBRANCH   7  13
ENDBRANCH   1   8
BRANCH   4  19
ATOM     19  C   UNL     1       4.902   3.937  17.575  0.00  0.00    +0.000 C 
BRANCH  19  20
ATOM     20  C   UNL     1       3.497   4.155  18.183  0.00  0.00    +0.000 C 
ATOM     21  C   UNL     1       2.393   3.825  17.180  0.00  0.00    +0.000 C 
BRANCH  20  22
ATOM     22  N   UNL     1       3.299   3.334  19.383  0.00  0.00    +0.000 N 
ATOM     23  C   UNL     1       2.565   3.764  20.465  0.00  0.00    +0.000 C 
ATOM     24  C   UNL     1       2.485   2.773  21.600  0.00  0.00    +0.000 C 
ATOM     25  O   UNL     1       2.016   4.858  20.521  0.00  0.00    +0.000 OA
ATOM     26  H   UNL     1       3.770   2.440  19.438  0.00  0.00    +0.000 HD
ENDBRANCH  20  22
ENDBRANCH  19  20
ENDBRANCH   4  19
TORSDOF 6
ENDMDL
MODEL 3
REMARK VINA RESULT:      -8.2      0.507      1.089
REMARK  Name = 
REMARK  9 active torsions:
REMARK  status: ('A' for Active; 'I' for Inactive)
REMARK    1  A    between atoms: C_1  and  O_2
REMARK    2  A    between atoms: O_2  and  C_3
REMARK    3  A    between atoms: C_7  and  C_8
REMARK    4  A    between atoms: C_9  and  C_10
REMARK    5  A    between atoms: C_13  and  C_14
REMARK    6  A    between atoms: C_14  and  C_15
REMARK    7  A    between atoms: C_15  and  C_16
REMARK    8  A    between atoms: C_15  and  N_17
REMARK    9  A    between atoms: C_18  and  C_19
REMARK                            x       y       z     vdW  Elec       q    Type
REMARK                         _______ _______ _______ _____ _____    ______ ____
ROOT
ATOM      1  C   UNL     1       7.215   7.182  17.885  0.00  0.00    +0.000 A 
ATOM      2  C   UNL     1       7.585   5.908  18.317  0.00  0.00    +0.000 A 
ATOM      3  C   UNL     1       6.840   4.786  17.933  0.00  0.00    +0.000 A 
ATOM      4  C   UNL     1       5.705   4.922  17.122  0.00  0.00    +0.000 A 
ATOM      5  C   UNL     1       5.313   6.212  16.732  0.00  0.00    +0.000 A 
ATOM      6  C   UNL     1       6.064   7.334  17.109  0.00  0.00    +0.000 A 
ENDROOT
BRANCH   1   8
ATOM      7  C   UNL     1       8.699   9.284  18.448  0.00  0.00    +0.000 C 
ATOM      8  C   UNL     1       8.035   8.312  18.187  0.00  0.00    +0.000 C 
BRANCH   7  13
ATOM      9  C   UNL     1      11.086  12.674  19.366  0.00  0.00    +0.000 A 
ATOM     10  C   UNL     1      10.995  12.191  18.057  0.00  0.00    +0.000 A 
ATOM     11  F   UNL     1      11.672  12.799  17.069  0.00  0.00    +0.000 F 
ATOM     12  C   UNL     1      10.203  11.089  17.734  0.00  0.00    +0.000 A 
ATOM     13  C   UNL     1       9.495  10.434  18.739  0.00  0.00    +0.000 A 
ATOM     14  C   UNL     1       9.577  10.894  20.051  0.00  0.00    +0.000 A 
ATOM     15  C   UNL     1      10.367  12.001  20.357  0.00  0.00    +0.000 A 
ATOM     16  F   UNL     1      10.430  12.368  21.643  0.00  0.00    +0.000 F 
BRANCH   9  18
ATOM     17  C   UNL     1      11.326  15.023  19.590  0.00  0.00    +0.000 C 
ATOM     18  O   UNL     1      11.929  13.735  19.560  0.00  0.00    +0.000 OA
ENDBRANCH   9  18
ENDBRANCH   7  13
ENDBRANCH   1   8
BRANCH   4  19
ATOM     19  C   UNL     1       4.964   3.702  16.604  0.00  0.00    +0.000 C 
BRANCH  19  20
ATOM     20  C   UNL     1       3.690   3.307  17.385  0.00  0.00    +0.000 C 
ATOM     21  C   UNL     1       3.776   1.877  17.916  0.00  0.00    +0.000 C 
BRANCH  20  22
ATOM     22  N   UNL     1       3.452   4.212  18.515  0.00  0.00    +0.000 N 
ATOM     23  C   UNL     1       2.192   4.475  19.004  0.00  0.00    +0.000 C 
ATOM     24  C   UNL     1       2.161   5.437  20.167  0.00  0.00    +0.000 C 
ATOM     25  O   UNL     1       1.169   3.980  18.546  0.00  0.00    +0.000 OA
ATOM     26  H   UNL     1       4.241   4.706  18.911  0.00  0.00    +0.000 HD
ENDBRANCH  20  22
ENDBRANCH  19  20
ENDBRANCH   4  19
TORSDOF 6
ENDMDL
MODEL 4
REMARK VINA RESULT:      -8.1      0.506      1.975
REMARK  Name = 
REMARK  9 active torsions:
REMARK  status: ('A' for Active; 'I' for Inactive)
REMARK    1  A    between atoms: C_1  and  O_2
REMARK    2  A    between atoms: O_2  and  C_3
REMARK    3  A    between atoms: C_7  and  C_8
REMARK    4  A    between atoms: C_9  and  C_10
REMARK    5  A    between atoms: C_13  and  C_14
REMARK    6  A    between atoms: C_14  and  C_15
REMARK    7  A    between atoms: C_15  and  C_16
REMARK    8  A    between atoms: C_15  and  N_17
REMARK    9  A    between atoms: C_18  and  C_19
REMARK                            x       y       z     vdW  Elec       q    Type
REMARK                         _______ _______ _______ _____ _____    ______ ____
ROOT
ATOM      1  C   UNL     1       7.070   7.157  17.824  0.00  0.00    +0.000 A 
ATOM      2  C   UNL     1       7.459   5.887  18.254  0.00  0.00    +0.000 A 
ATOM      3  C   UNL     1       6.717   4.758  17.887  0.00  0.00    +0.000 A 
ATOM      4  C   UNL     1       5.566   4.881  17.097  0.00  0.00    +0.000 A 
ATOM      5  C   UNL     1       5.157   6.167  16.709  0.00  0.00    +0.000 A 
ATOM      6  C   UNL     1       5.905   7.297  17.069  0.00  0.00    +0.000 A 
ENDROOT
BRANCH   1   8
ATOM      7  C   UNL     1       8.583   9.241  18.379  0.00  0.00    +0.000 C 
ATOM      8  C   UNL     1       7.887   8.295  18.108  0.00  0.00    +0.000 C 
BRANCH   7  13
ATOM      9  C   UNL     1      10.965  12.642  19.269  0.00  0.00    +0.000 A 
ATOM     10  C   UNL     1      10.352  11.905  20.288  0.00  0.00    +0.000 A 
ATOM     11  F   UNL     1      10.511  12.273  21.570  0.00  0.00    +0.000 F 
ATOM     12  C   UNL     1       9.580  10.776  20.015  0.00  0.00    +0.000 A 
ATOM     13  C   UNL     1       9.392  10.374  18.694  0.00  0.00    +0.000 A 
ATOM     14  C   UNL     1       9.988  11.098  17.664  0.00  0.00    +0.000 A 
ATOM     15  C   UNL     1      10.763  12.220  17.953  0.00  0.00    +0.000 A 
ATOM     16  F   UNL     1      11.276  12.890  16.913  0.00  0.00    +0.000 F 
BRANCH   9  18
ATOM     17  C   UNL     1      10.986  14.999  19.538  0.00  0.00    +0.000 C 
ATOM     18  O   UNL     1      11.661  13.753  19.663  0.00  0.00    +0.000 OA
ENDBRANCH   9  18
ENDBRANCH   7  13
ENDBRANCH   1   8
BRANCH   4  19
ATOM     19  C   UNL     1       4.827   3.653  16.596  0.00  0.00    +0.000 C 
BRANCH  19  20
ATOM     20  C   UNL     1       3.602   3.218  17.432  0.00  0.00    +0.000 C 
ATOM     21  C   UNL     1       3.707   1.758  17.866  0.00  0.00    +0.000 C 
BRANCH  20  22
ATOM     22  N   UNL     1       3.448   4.052  18.630  0.00  0.00    +0.000 N 
ATOM     23  C   UNL     1       2.219   4.351  19.175  0.00  0.00    +0.000 C 
ATOM     24  C   UNL     1       2.275   5.226  20.402  0.00  0.00    +0.000 C 
ATOM     25  O   UNL     1       1.157   3.949  18.714  0.00  0.00    +0.000 OA
ATOM     26  H   UNL     1       4.275   4.470  19.036  0.00  0.00    +0.000 HD
ENDBRANCH  20  22
ENDBRANCH  19  20
ENDBRANCH   4  19
TORSDOF 6
ENDMDL
MODEL 5
REMARK VINA RESULT:      -8.1      1.123      1.136
REMARK  Name = 
REMARK  9 active torsions:
REMARK  status: ('A' for Active; 'I' for Inactive)
REMARK    1  A    between atoms: C_1  and  O_2
REMARK    2  A    between atoms: O_2  and  C_3
REMARK    3  A    between atoms: C_7  and  C_8
REMARK    4  A    between atoms: C_9  and  C_10
REMARK    5  A    between atoms: C_13  and  C_14
REMARK    6  A    between atoms: C_14  and  C_15
REMARK    7  A    between atoms: C_15  and  C_16
REMARK    8  A    between atoms: C_15  and  N_17
REMARK    9  A    between atoms: C_18  and  C_19
REMARK                            x       y       z     vdW  Elec       q    Type
REMARK                         _______ _______ _______ _____ _____    ______ ____
ROOT
ATOM      1  C   UNL     1       7.235   7.092  17.511  0.00  0.00    +0.000 A 
ATOM      2  C   UNL     1       6.151   7.053  16.633  0.00  0.00    +0.000 A 
ATOM      3  C   UNL     1       5.484   5.847  16.385  0.00  0.00    +0.000 A 
ATOM      4  C   UNL     1       5.899   4.658  17.001  0.00  0.00    +0.000 A 
ATOM      5  C   UNL     1       7.019   4.700  17.846  0.00  0.00    +0.000 A 
ATOM      6  C   UNL     1       7.681   5.908  18.101  0.00  0.00    +0.000 A 
ENDROOT
BRANCH   1   8
ATOM      7  C   UNL     1       8.393   9.378  18.122  0.00  0.00    +0.000 C 
ATOM      8  C   UNL     1       7.846   8.340  17.846  0.00  0.00    +0.000 C 
BRANCH   7  13
ATOM      9  C   UNL     1      10.343  13.008  19.149  0.00  0.00    +0.000 A 
ATOM     10  C   UNL     1       9.357  12.976  18.158  0.00  0.00    +0.000 A 
ATOM     11  F   UNL     1       9.018  14.104  17.513  0.00  0.00    +0.000 F 
ATOM     12  C   UNL     1       8.695  11.796  17.818  0.00  0.00    +0.000 A 
ATOM     13  C   UNL     1       9.030  10.609  18.467  0.00  0.00    +0.000 A 
ATOM     14  C   UNL     1      10.014  10.617  19.453  0.00  0.00    +0.000 A 
ATOM     15  C   UNL     1      10.662  11.805  19.785  0.00  0.00    +0.000 A 
ATOM     16  F   UNL     1      11.622  11.736  20.716  0.00  0.00    +0.000 F 
BRANCH   9  18
ATOM     17  C   UNL     1      12.210  14.412  18.732  0.00  0.00    +0.000 C 
ATOM     18  O   UNL     1      10.948  14.217  19.360  0.00  0.00    +0.000 OA
ENDBRANCH   9  18
ENDBRANCH   7  13
ENDBRANCH   1   8
BRANCH   4  19
ATOM     19  C   UNL     1       5.108   3.373  16.832  0.00  0.00    +0.000 C 
BRANCH  19  20
ATOM     20  C   UNL     1       3.660   3.398  17.373  0.00  0.00    +0.000 C 
ATOM     21  C   UNL     1       3.225   2.024  17.879  0.00  0.00    +0.000 C 
BRANCH  20  22
ATOM     22  N   UNL     1       3.514   4.367  18.466  0.00  0.00    +0.000 N 
ATOM     23  C   UNL     1       2.418   5.191  18.587  0.00  0.00    +0.000 C 
ATOM     24  C   UNL     1       2.461   6.117  19.777  0.00  0.00    +0.000 C 
ATOM     25  O   UNL     1       1.476   5.187  17.803  0.00  0.00    +0.000 OA
ATOM     26  H   UNL     1       4.277   4.471  19.123  0.00  0.00    +0.000 HD
ENDBRANCH  20  22
ENDBRANCH  19  20
ENDBRANCH   4  19
TORSDOF 6
ENDMDL
MODEL 6
REMARK VINA RESULT:      -8.1      1.044      1.218
REMARK  Name = 
REMARK  9 active torsions:
REMARK  status: ('A' for Active; 'I' for Inactive)
REMARK    1  A    between atoms: C_1  and  O_2
REMARK    2  A    between atoms: O_2  and  C_3
REMARK    3  A    between atoms: C_7  and  C_8
REMARK    4  A    between atoms: C_9  and  C_10
REMARK    5  A    between atoms: C_13  and  C_14
REMARK    6  A    between atoms: C_14  and  C_15
REMARK    7  A    between atoms: C_15  and  C_16
REMARK    8  A    between atoms: C_15  and  N_17
REMARK    9  A    between atoms: C_18  and  C_19
REMARK                            x       y       z     vdW  Elec       q    Type
REMARK                         _______ _______ _______ _____ _____    ______ ____
ROOT
ATOM      1  C   UNL     1       7.687   7.396  18.092  0.00  0.00    +0.000 A 
ATOM      2  C   UNL     1       6.645   7.371  17.163  0.00  0.00    +0.000 A 
ATOM      3  C   UNL     1       5.863   6.220  17.007  0.00  0.00    +0.000 A 
ATOM      4  C   UNL     1       6.119   5.071  17.767  0.00  0.00    +0.000 A 
ATOM      5  C   UNL     1       7.199   5.090  18.664  0.00  0.00    +0.000 A 
ATOM      6  C   UNL     1       7.976   6.245  18.826  0.00  0.00    +0.000 A 
ENDROOT
BRANCH   1   8
ATOM      7  C   UNL     1       9.008   9.638  18.500  0.00  0.00    +0.000 C 
ATOM      8  C   UNL     1       8.414   8.604  18.327  0.00  0.00    +0.000 C 
BRANCH   7  13
ATOM      9  C   UNL     1      11.175  13.230  19.162  0.00  0.00    +0.000 A 
ATOM     10  C   UNL     1      11.162  12.618  17.904  0.00  0.00    +0.000 A 
ATOM     11  F   UNL     1      11.846  13.165  16.885  0.00  0.00    +0.000 F 
ATOM     12  C   UNL     1      10.444  11.446  17.665  0.00  0.00    +0.000 A 
ATOM     13  C   UNL     1       9.730  10.853  18.704  0.00  0.00    +0.000 A 
ATOM     14  C   UNL     1       9.735  11.443  19.966  0.00  0.00    +0.000 A 
ATOM     15  C   UNL     1      10.452  12.617  20.188  0.00  0.00    +0.000 A 
ATOM     16  F   UNL     1      10.443  13.111  21.432  0.00  0.00    +0.000 F 
BRANCH   9  18
ATOM     17  C   UNL     1      11.275  15.600  19.203  0.00  0.00    +0.000 C 
ATOM     18  O   UNL     1      11.952  14.351  19.279  0.00  0.00    +0.000 OA
ENDBRANCH   9  18
ENDBRANCH   7  13
ENDBRANCH   1   8
BRANCH   4  19
ATOM     19  C   UNL     1       5.202   3.863  17.690  0.00  0.00    +0.000 C 
BRANCH  19  20
ATOM     20  C   UNL     1       3.731   4.109  18.096  0.00  0.00    +0.000 C 
ATOM     21  C   UNL     1       2.761   3.547  17.059  0.00  0.00    +0.000 C 
BRANCH  20  22
ATOM     22  N   UNL     1       3.426   3.504  19.398  0.00  0.00    +0.000 N 
ATOM     23  C   UNL     1       2.647   4.130  20.344  0.00  0.00    +0.000 C 
ATOM     24  C   UNL     1       2.457   3.344  21.618  0.00  0.00    +0.000 C 
ATOM     25  O   UNL     1       2.143   5.236  20.184  0.00  0.00    +0.000 OA
ATOM     26  H   UNL     1       3.855   2.617  19.629  0.00  0.00    +0.000 HD
ENDBRANCH  20  22
ENDBRANCH  19  20
ENDBRANCH   4  19
TORSDOF 6
ENDMDL
MODEL 7
REMARK VINA RESULT:      -8.1      1.165      1.613
REMARK  Name = 
REMARK  9 active torsions:
REMARK  status: ('A' for Active; 'I' for Inactive)
REMARK    1  A    between atoms: C_1  and  O_2
REMARK    2  A    between atoms: O_2  and  C_3
REMARK    3  A    between atoms: C_7  and  C_8
REMARK    4  A    between atoms: C_9  and  C_10
REMARK    5  A    between atoms: C_13  and  C_14
REMARK    6  A    between atoms: C_14  and  C_15
REMARK    7  A    between atoms: C_15  and  C_16
REMARK    8  A    between atoms: C_15  and  N_17
REMARK    9  A    between atoms: C_18  and  C_19
REMARK                            x       y       z     vdW  Elec       q    Type
REMARK                         _______ _______ _______ _____ _____    ______ ____
ROOT
ATOM      1  C   UNL     1       7.267   7.305  17.699  0.00  0.00    +0.000 A 
ATOM      2  C   UNL     1       6.171   7.276  16.835  0.00  0.00    +0.000 A 
ATOM      3  C   UNL     1       5.425   6.103  16.678  0.00  0.00    +0.000 A 
ATOM      4  C   UNL     1       5.769   4.935  17.372  0.00  0.00    +0.000 A 
ATOM      5  C   UNL     1       6.902   4.961  18.202  0.00  0.00    +0.000 A 
ATOM      6  C   UNL     1       7.644   6.138  18.366  0.00  0.00    +0.000 A 
ENDROOT
BRANCH   1   8
ATOM      7  C   UNL     1       8.561   9.550  18.174  0.00  0.00    +0.000 C 
ATOM      8  C   UNL     1       7.962   8.530  17.940  0.00  0.00    +0.000 C 
BRANCH   7  13
ATOM      9  C   UNL     1      10.566  13.203  18.994  0.00  0.00    +0.000 A 
ATOM     10  C   UNL     1      11.015  11.996  19.542  0.00  0.00    +0.000 A 
ATOM     11  F   UNL     1      12.092  11.984  20.343  0.00  0.00    +0.000 F 
ATOM     12  C   UNL     1      10.378  10.785  19.271  0.00  0.00    +0.000 A 
ATOM     13  C   UNL     1       9.254  10.769  18.447  0.00  0.00    +0.000 A 
ATOM     14  C   UNL     1       8.787  11.960  17.897  0.00  0.00    +0.000 A 
ATOM     15  C   UNL     1       9.438  13.161  18.171  0.00  0.00    +0.000 A 
ATOM     16  F   UNL     1       8.915  14.273  17.639  0.00  0.00    +0.000 F 
BRANCH   9  18
ATOM     17  C   UNL     1      12.092  14.914  18.384  0.00  0.00    +0.000 C 
ATOM     18  O   UNL     1      11.250  14.327  19.370  0.00  0.00    +0.000 OA
ENDBRANCH   9  18
ENDBRANCH   7  13
ENDBRANCH   1   8
BRANCH   4  19
ATOM     19  C   UNL     1       4.895   3.696  17.300  0.00  0.00    +0.000 C 
BRANCH  19  20
ATOM     20  C   UNL     1       3.900   3.505  18.468  0.00  0.00    +0.000 C 
ATOM     21  C   UNL     1       4.439   2.528  19.511  0.00  0.00    +0.000 C 
BRANCH  20  22
ATOM     22  N   UNL     1       3.603   4.780  19.131  0.00  0.00    +0.000 N 
ATOM     23  C   UNL     1       2.526   5.565  18.786  0.00  0.00    +0.000 C 
ATOM     24  C   UNL     1       2.397   6.838  19.584  0.00  0.00    +0.000 C 
ATOM     25  O   UNL     1       1.727   5.269  17.904  0.00  0.00    +0.000 OA
ATOM     26  H   UNL     1       4.250   5.122  19.831  0.00  0.00    +0.000 HD
ENDBRANCH  20  22
ENDBRANCH  19  20
ENDBRANCH   4  19
TORSDOF 6
ENDMDL
MODEL 8
REMARK VINA RESULT:      -8.1      0.526      1.734
REMARK  Name = 
REMARK  9 active torsions:
REMARK  status: ('A' for Active; 'I' for Inactive)
REMARK    1  A    between atoms: C_1  and  O_2
REMARK    2  A    between atoms: O_2  and  C_3
REMARK    3  A    between atoms: C_7  and  C_8
REMARK    4  A    between atoms: C_9  and  C_10
REMARK    5  A    between atoms: C_13  and  C_14
REMARK    6  A    between atoms: C_14  and  C_15
REMARK    7  A    between atoms: C_15  and  C_16
REMARK    8  A    between atoms: C_15  and  N_17
REMARK    9  A    between atoms: C_18  and  C_19
REMARK                            x       y       z     vdW  Elec       q    Type
REMARK                         _______ _______ _______ _____ _____    ______ ____
ROOT
ATOM      1  C   UNL     1       7.313   7.070  17.560  0.00  0.00    +0.000 A 
ATOM      2  C   UNL     1       6.143   7.194  16.809  0.00  0.00    +0.000 A 
ATOM      3  C   UNL     1       5.405   6.058  16.458  0.00  0.00    +0.000 A 
ATOM      4  C   UNL     1       5.831   4.778  16.839  0.00  0.00    +0.000 A 
ATOM      5  C   UNL     1       7.034   4.661  17.553  0.00  0.00    +0.000 A 
ATOM      6  C   UNL     1       7.769   5.799  17.913  0.00  0.00    +0.000 A 
ENDROOT
BRANCH   1   8
ATOM      7  C   UNL     1       8.584   9.234  18.361  0.00  0.00    +0.000 C 
ATOM      8  C   UNL     1       8.007   8.235  18.010  0.00  0.00    +0.000 C 
BRANCH   7  13
ATOM      9  C   UNL     1      10.640  12.752  19.557  0.00  0.00    +0.000 A 
ATOM     10  C   UNL     1      10.001  11.936  20.497  0.00  0.00    +0.000 A 
ATOM     11  F   UNL     1      10.030  12.265  21.799  0.00  0.00    +0.000 F 
ATOM     12  C   UNL     1       9.334  10.770  20.124  0.00  0.00    +0.000 A 
ATOM     13  C   UNL     1       9.283  10.407  18.780  0.00  0.00    +0.000 A 
ATOM     14  C   UNL     1       9.907  11.209  17.827  0.00  0.00    +0.000 A 
ATOM     15  C   UNL     1      10.575  12.368  18.216  0.00  0.00    +0.000 A 
ATOM     16  F   UNL     1      11.122  13.111  17.245  0.00  0.00    +0.000 F 
BRANCH   9  18
ATOM     17  C   UNL     1      10.540  15.112  19.781  0.00  0.00    +0.000 C 
ATOM     18  O   UNL     1      11.222  13.891  20.044  0.00  0.00    +0.000 OA
ENDBRANCH   9  18
ENDBRANCH   7  13
ENDBRANCH   1   8
BRANCH   4  19
ATOM     19  C   UNL     1       4.974   3.556  16.565  0.00  0.00    +0.000 C 
BRANCH  19  20
ATOM     20  C   UNL     1       3.721   3.399  17.457  0.00  0.00    +0.000 C 
ATOM     21  C   UNL     1       3.713   2.056  18.185  0.00  0.00    +0.000 C 
BRANCH  20  22
ATOM     22  N   UNL     1       3.636   4.473  18.454  0.00  0.00    +0.000 N 
ATOM     23  C   UNL     1       2.442   5.049  18.826  0.00  0.00    +0.000 C 
ATOM     24  C   UNL     1       2.570   6.139  19.862  0.00  0.00    +0.000 C 
ATOM     25  O   UNL     1       1.356   4.719  18.364  0.00  0.00    +0.000 OA
ATOM     26  H   UNL     1       4.496   4.841  18.840  0.00  0.00    +0.000 HD
ENDBRANCH  20  22
ENDBRANCH  19  20
ENDBRANCH   4  19
TORSDOF 6
ENDMDL
MODEL 9
REMARK VINA RESULT:      -7.8      1.318      2.327
REMARK  Name = 
REMARK  9 active torsions:
REMARK  status: ('A' for Active; 'I' for Inactive)
REMARK    1  A    between atoms: C_1  and  O_2
REMARK    2  A    between atoms: O_2  and  C_3
REMARK    3  A    between atoms: C_7  and  C_8
REMARK    4  A    between atoms: C_9  and  C_10
REMARK    5  A    between atoms: C_13  and  C_14
REMARK    6  A    between atoms: C_14  and  C_15
REMARK    7  A    between atoms: C_15  and  C_16
REMARK    8  A    between atoms: C_15  and  N_17
REMARK    9  A    between atoms: C_18  and  C_19
REMARK                            x       y       z     vdW  Elec       q    Type
REMARK                         _______ _______ _______ _____ _____    ______ ____
ROOT
ATOM      1  C   UNL     1       7.391   7.235  17.706  0.00  0.00    +0.000 A 
ATOM      2  C   UNL     1       6.599   7.227  16.557  0.00  0.00    +0.000 A 
ATOM      3  C   UNL     1       5.822   6.107  16.240  0.00  0.00    +0.000 A 
ATOM      4  C   UNL     1       5.835   4.970  17.059  0.00  0.00    +0.000 A 
ATOM      5  C   UNL     1       6.672   4.969  18.187  0.00  0.00    +0.000 A 
ATOM      6  C   UNL     1       7.443   6.094  18.509  0.00  0.00    +0.000 A 
ENDROOT
BRANCH   1   8
ATOM      7  C   UNL     1       8.690   9.406  18.440  0.00  0.00    +0.000 C 
ATOM      8  C   UNL     1       8.099   8.417  18.086  0.00  0.00    +0.000 C 
BRANCH   7  13
ATOM      9  C   UNL     1      10.708  12.956  19.605  0.00  0.00    +0.000 A 
ATOM     10  C   UNL     1      10.202  12.069  20.561  0.00  0.00    +0.000 A 
ATOM     11  F   UNL     1      10.349  12.337  21.868  0.00  0.00    +0.000 F 
ATOM     12  C   UNL     1       9.551  10.891  20.196  0.00  0.00    +0.000 A 
ATOM     13  C   UNL     1       9.378  10.589  18.847  0.00  0.00    +0.000 A 
ATOM     14  C   UNL     1       9.869  11.463  17.879  0.00  0.00    +0.000 A 
ATOM     15  C   UNL     1      10.524  12.633  18.259  0.00  0.00    +0.000 A 
ATOM     16  F   UNL     1      10.937  13.445  17.278  0.00  0.00    +0.000 F 
BRANCH   9  18
ATOM     17  C   UNL     1      10.454  15.247  20.168  0.00  0.00    +0.000 C 
ATOM     18  O   UNL     1      11.289  14.097  20.089  0.00  0.00    +0.000 OA
ENDBRANCH   9  18
ENDBRANCH   7  13
ENDBRANCH   1   8
BRANCH   4  19
ATOM     19  C   UNL     1       4.906   3.800  16.788  0.00  0.00    +0.000 C 
BRANCH  19  20
ATOM     20  C   UNL     1       3.942   3.426  17.937  0.00  0.00    +0.000 C 
ATOM     21  C   UNL     1       2.641   2.827  17.407  0.00  0.00    +0.000 C 
BRANCH  20  22
ATOM     22  N   UNL     1       4.558   2.466  18.861  0.00  0.00    +0.000 N 
ATOM     23  C   UNL     1       4.164   2.342  20.174  0.00  0.00    +0.000 C 
ATOM     24  C   UNL     1       4.924   1.301  20.959  0.00  0.00    +0.000 C 
ATOM     25  O   UNL     1       3.272   3.012  20.682  0.00  0.00    +0.000 OA
ATOM     26  H   UNL     1       5.341   1.916  18.533  0.00  0.00    +0.000 HD
ENDBRANCH  20  22
ENDBRANCH  19  20
ENDBRANCH   4  19
TORSDOF 6
ENDMDL
