MODEL 1
REMARK VINA RESULT:      -8.2      0.000      0.000
REMARK  Name = 
REMARK  6 active torsions:
REMARK  status: ('A' for Active; 'I' for Inactive)
REMARK    1  A    between atoms: C_2  and  C_3
REMARK    2  A    between atoms: C_3  and  O_4
REMARK    3  A    between atoms: O_4  and  C_5
REMARK    4  A    between atoms: C_8  and  S_9
REMARK    5  A    between atoms: S_9  and  N_12
REMARK    6  A    between atoms: N_23  and  C_24
REMARK                            x       y       z     vdW  Elec       q    Type
REMARK                         _______ _______ _______ _____ _____    ______ ____
ROOT
ATOM      1  O   UNL     1       7.938   8.622  17.467  0.00  0.00    +0.000 OA
ENDROOT
BRANCH   1   2
ATOM      2  C   UNL     1       8.491   9.704  18.096  0.00  0.00    +0.000 A 
ATOM      3  C   UNL     1       8.346  10.918  17.418  0.00  0.00    +0.000 A 
ATOM      4  C   UNL     1       8.792  12.114  17.989  0.00  0.00    +0.000 A 
ATOM      5  C   UNL     1       9.315  12.115  19.284  0.00  0.00    +0.000 A 
ATOM      6  C   UNL     1       9.532  10.899  19.936  0.00  0.00    +0.000 A 
ATOM      7  C   UNL     1       9.124   9.695  19.339  0.00  0.00    +0.000 A 
BRANCH   5   8
ATOM      8  S   UNL     1       9.878  13.634  20.028  0.00  0.00    +0.000 S 
ATOM      9  O   UNL     1      10.487  13.301  21.299  0.00  0.00    +0.000 OA
ATOM     10  O   UNL     1      10.657  14.312  19.009  0.00  0.00    +0.000 OA
BRANCH   8  11
ATOM     11  N   UNL     1       8.480  14.572  20.397  0.00  0.00    +0.000 NA
ATOM     12  C   UNL     1       7.595  15.031  19.283  0.00  0.00    +0.000 C 
ATOM     13  C   UNL     1       8.295  16.083  18.417  0.00  0.00    +0.000 C 
ATOM     14  O   UNL     1       8.682  17.225  19.197  0.00  0.00    +0.000 OA
ATOM     15  C   UNL     1       9.475  16.881  20.346  0.00  0.00    +0.000 C 
ATOM     16  C   UNL     1       8.800  15.805  21.215  0.00  0.00    +0.000 C 
ENDBRANCH   8  11
ENDBRANCH   5   8
ENDBRANCH   1   2
BRANCH   1  17
ATOM     17  C   UNL     1       7.928   7.383  18.167  0.00  0.00    +0.000 C 
BRANCH  17  19
ATOM     18  O   UNL     1       7.647   6.206  16.088  0.00  0.00    +0.000 OA
ATOM     19  C   UNL     1       7.326   6.287  17.277  0.00  0.00    +0.000 C 
ATOM     20  N   UNL     1       6.454   5.380  17.862  0.00  0.00    +0.000 N 
ATOM     21  C   UNL     1       5.869   5.518  19.206  0.00  0.00    +0.000 C 
ATOM     22  C   UNL     1       4.405   5.973  19.109  0.00  0.00    +0.000 C 
ATOM     23  N   UNL     1       3.638   5.062  18.241  0.00  0.00    +0.000 N 
ATOM     24  C   UNL     1       4.216   4.829  16.899  0.00  0.00    +0.000 C 
ATOM     25  C   UNL     1       5.710   4.435  17.012  0.00  0.00    +0.000 C 
BRANCH  23  26
ATOM     26  C   UNL     1       2.635   4.243  18.739  0.00  0.00    +0.000 A 
ATOM     27  C   UNL     1       2.042   4.503  19.981  0.00  0.00    +0.000 A 
ATOM     28  C   UNL     1       1.069   3.656  20.530  0.00  0.00    +0.000 A 
ATOM     29  C   UNL     1       0.659   2.526  19.833  0.00  0.00    +0.000 A 
ATOM     30  C   UNL     1       1.215   2.250  18.592  0.00  0.00    +0.000 A 
ATOM     31  C   UNL     1       2.192   3.101  18.054  0.00  0.00    +0.000 A 
ENDBRANCH  23  26
ENDBRANCH  17  19
ENDBRANCH   1  17
TORSDOF 6
ENDMDL
MODEL 2
REMARK VINA RESULT:      -8.2      3.267     11.268
REMARK  Name = 
REMARK  6 active torsions:
REMARK  status: ('A' for Active; 'I' for Inactive)
REMARK    1  A    between atoms: C_2  and  C_3
REMARK    2  A    between atoms: C_3  and  O_4
REMARK    3  A    between atoms: O_4  and  C_5
REMARK    4  A    between atoms: C_8  and  S_9
REMARK    5  A    between atoms: S_9  and  N_12
REMARK    6  A    between atoms: N_23  and  C_24
REMARK                            x       y       z     vdW  Elec       q    Type
REMARK                         _______ _______ _______ _____ _____    ______ ____
ROOT
ATOM      1  O   UNL     1       8.024   8.213  17.208  0.00  0.00    +0.000 OA
ENDROOT
BRANCH   1   2
ATOM      2  C   UNL     1       7.140   7.191  17.421  0.00  0.00    +0.000 A 
ATOM      3  C   UNL     1       7.521   6.278  18.409  0.00  0.00    +0.000 A 
ATOM      4  C   UNL     1       6.670   5.234  18.785  0.00  0.00    +0.000 A 
ATOM      5  C   UNL     1       5.393   5.142  18.229  0.00  0.00    +0.000 A 
ATOM      6  C   UNL     1       5.035   6.003  17.189  0.00  0.00    +0.000 A 
ATOM      7  C   UNL     1       5.910   7.023  16.784  0.00  0.00    +0.000 A 
BRANCH   5   8
ATOM      8  S   UNL     1       4.294   3.821  18.705  0.00  0.00    +0.000 S 
ATOM      9  O   UNL     1       4.005   3.040  17.520  0.00  0.00    +0.000 OA
ATOM     10  O   UNL     1       4.909   3.187  19.856  0.00  0.00    +0.000 OA
BRANCH   8  11
ATOM     11  N   UNL     1       2.803   4.542  19.180  0.00  0.00    +0.000 NA
ATOM     12  C   UNL     1       2.505   4.712  20.635  0.00  0.00    +0.000 C 
ATOM     13  C   UNL     1       2.276   3.359  21.315  0.00  0.00    +0.000 C 
ATOM     14  O   UNL     1       1.189   2.647  20.705  0.00  0.00    +0.000 OA
ATOM     15  C   UNL     1       1.341   2.499  19.282  0.00  0.00    +0.000 C 
ATOM     16  C   UNL     1       1.598   3.845  18.583  0.00  0.00    +0.000 C 
ENDBRANCH   8  11
ENDBRANCH   5   8
ENDBRANCH   1   2
BRANCH   1  17
ATOM     17  C   UNL     1       7.714   9.484  17.767  0.00  0.00    +0.000 C 
BRANCH  17  19
ATOM     18  O   UNL     1       9.262   9.245  19.591  0.00  0.00    +0.000 OA
ATOM     19  C   UNL     1       8.867   9.955  18.663  0.00  0.00    +0.000 C 
ATOM     20  N   UNL     1       9.466  11.172  18.368  0.00  0.00    +0.000 N 
ATOM     21  C   UNL     1       8.939  12.162  17.415  0.00  0.00    +0.000 C 
ATOM     22  C   UNL     1       8.284  13.331  18.166  0.00  0.00    +0.000 C 
ATOM     23  N   UNL     1       9.228  13.915  19.136  0.00  0.00    +0.000 N 
ATOM     24  C   UNL     1       9.845  12.953  20.076  0.00  0.00    +0.000 C 
ATOM     25  C   UNL     1      10.443  11.749  19.307  0.00  0.00    +0.000 C 
BRANCH  23  26
ATOM     26  C   UNL     1       9.740  15.195  18.984  0.00  0.00    +0.000 A 
ATOM     27  C   UNL     1       9.360  16.000  17.903  0.00  0.00    +0.000 A 
ATOM     28  C   UNL     1       9.910  17.274  17.697  0.00  0.00    +0.000 A 
ATOM     29  C   UNL     1      10.852  17.775  18.587  0.00  0.00    +0.000 A 
ATOM     30  C   UNL     1      11.237  17.008  19.678  0.00  0.00    +0.000 A 
ATOM     31  C   UNL     1      10.685  15.733  19.871  0.00  0.00    +0.000 A 
ENDBRANCH  23  26
ENDBRANCH  17  19
ENDBRANCH   1  17
TORSDOF 6
ENDMDL
MODEL 3
REMARK VINA RESULT:      -8.1      1.586      2.483
REMARK  Name = 
REMARK  6 active torsions:
REMARK  status: ('A' for Active; 'I' for Inactive)
REMARK    1  A    between atoms: C_2  and  C_3
REMARK    2  A    between atoms: C_3  and  O_4
REMARK    3  A    between atoms: O_4  and  C_5
REMARK    4  A    between atoms: C_8  and  S_9
REMARK    5  A    between atoms: S_9  and  N_12
REMARK    6  A    between atoms: N_23  and  C_24
REMARK                            x       y       z     vdW  Elec       q    Type
REMARK                         _______ _______ _______ _____ _____    ______ ____
ROOT
ATOM      1  O   UNL     1       8.239   8.680  17.375  0.00  0.00    +0.000 OA
ENDROOT
BRANCH   1   2
ATOM      2  C   UNL     1       8.556   9.851  18.008  0.00  0.00    +0.000 A 
ATOM      3  C   UNL     1       9.286   9.704  19.190  0.00  0.00    +0.000 A 
ATOM      4  C   UNL     1       9.747  10.823  19.891  0.00  0.00    +0.000 A 
ATOM      5  C   UNL     1       9.548  12.102  19.368  0.00  0.00    +0.000 A 
ATOM      6  C   UNL     1       8.757  12.261  18.228  0.00  0.00    +0.000 A 
ATOM      7  C   UNL     1       8.258  11.136  17.552  0.00  0.00    +0.000 A 
BRANCH   5   8
ATOM      8  S   UNL     1      10.138  13.537  20.245  0.00  0.00    +0.000 S 
ATOM      9  O   UNL     1       9.494  14.700  19.670  0.00  0.00    +0.000 OA
ATOM     10  O   UNL     1       9.967  13.241  21.655  0.00  0.00    +0.000 OA
BRANCH   8  11
ATOM     11  N   UNL     1      11.818  13.697  19.895  0.00  0.00    +0.000 NA
ATOM     12  C   UNL     1      12.333  14.998  19.370  0.00  0.00    +0.000 C 
ATOM     13  C   UNL     1      11.827  15.262  17.949  0.00  0.00    +0.000 C 
ATOM     14  O   UNL     1      12.227  14.215  17.052  0.00  0.00    +0.000 OA
ATOM     15  C   UNL     1      11.846  12.905  17.509  0.00  0.00    +0.000 C 
ATOM     16  C   UNL     1      12.323  12.630  18.946  0.00  0.00    +0.000 C 
ENDBRANCH   8  11
ENDBRANCH   5   8
ENDBRANCH   1   2
BRANCH   1  17
ATOM     17  C   UNL     1       7.771   7.600  18.176  0.00  0.00    +0.000 C 
BRANCH  17  19
ATOM     18  O   UNL     1       7.498   6.466  16.073  0.00  0.00    +0.000 OA
ATOM     19  C   UNL     1       7.225   6.483  17.277  0.00  0.00    +0.000 C 
ATOM     20  N   UNL     1       6.461   5.487  17.867  0.00  0.00    +0.000 N 
ATOM     21  C   UNL     1       5.928   5.534  19.239  0.00  0.00    +0.000 C 
ATOM     22  C   UNL     1       4.428   5.863  19.220  0.00  0.00    +0.000 C 
ATOM     23  N   UNL     1       3.703   4.914  18.356  0.00  0.00    +0.000 N 
ATOM     24  C   UNL     1       4.237   4.772  16.983  0.00  0.00    +0.000 C 
ATOM     25  C   UNL     1       5.763   4.506  17.019  0.00  0.00    +0.000 C 
BRANCH  23  26
ATOM     26  C   UNL     1       2.798   3.997  18.868  0.00  0.00    +0.000 A 
ATOM     27  C   UNL     1       1.918   3.304  18.027  0.00  0.00    +0.000 A 
ATOM     28  C   UNL     1       0.956   2.416  18.528  0.00  0.00    +0.000 A 
ATOM     29  C   UNL     1       0.862   2.195  19.897  0.00  0.00    +0.000 A 
ATOM     30  C   UNL     1       1.731   2.854  20.756  0.00  0.00    +0.000 A 
ATOM     31  C   UNL     1       2.686   3.743  20.244  0.00  0.00    +0.000 A 
ENDBRANCH  23  26
ENDBRANCH  17  19
ENDBRANCH   1  17
TORSDOF 6
ENDMDL
MODEL 4
REMARK VINA RESULT:      -8.0      3.201     11.413
REMARK  Name = 
REMARK  6 active torsions:
REMARK  status: ('A' for Active; 'I' for Inactive)
REMARK    1  A    between atoms: C_2  and  C_3
REMARK    2  A    between atoms: C_3  and  O_4
REMARK    3  A    between atoms: O_4  and  C_5
REMARK    4  A    between atoms: C_8  and  S_9
REMARK    5  A    between atoms: S_9  and  N_12
REMARK    6  A    between atoms: N_23  and  C_24
REMARK                            x       y       z     vdW  Elec       q    Type
REMARK                         _______ _______ _______ _____ _____    ______ ____
ROOT
ATOM      1  O   UNL     1       8.754   8.369  18.493  0.00  0.00    +0.000 OA
ENDROOT
BRANCH   1   2
ATOM      2  C   UNL     1       7.780   7.462  18.175  0.00  0.00    +0.000 A 
ATOM      3  C   UNL     1       7.818   6.275  18.911  0.00  0.00    +0.000 A 
ATOM      4  C   UNL     1       6.831   5.298  18.744  0.00  0.00    +0.000 A 
ATOM      5  C   UNL     1       5.749   5.539  17.895  0.00  0.00    +0.000 A 
ATOM      6  C   UNL     1       5.744   6.689  17.103  0.00  0.00    +0.000 A 
ATOM      7  C   UNL     1       6.762   7.647  17.240  0.00  0.00    +0.000 A 
BRANCH   5   8
ATOM      8  S   UNL     1       4.478   4.308  17.681  0.00  0.00    +0.000 S 
ATOM      9  O   UNL     1       3.252   4.997  17.334  0.00  0.00    +0.000 OA
ATOM     10  O   UNL     1       5.030   3.319  16.774  0.00  0.00    +0.000 OA
BRANCH   8  11
ATOM     11  N   UNL     1       4.203   3.582  19.219  0.00  0.00    +0.000 NA
ATOM     12  C   UNL     1       3.921   2.116  19.294  0.00  0.00    +0.000 C 
ATOM     13  C   UNL     1       2.553   1.784  18.691  0.00  0.00    +0.000 C 
ATOM     14  O   UNL     1       1.501   2.489  19.367  0.00  0.00    +0.000 OA
ATOM     15  C   UNL     1       1.718   3.910  19.421  0.00  0.00    +0.000 C 
ATOM     16  C   UNL     1       3.099   4.264  20.000  0.00  0.00    +0.000 C 
ENDBRANCH   8  11
ENDBRANCH   5   8
ENDBRANCH   1   2
BRANCH   1  17
ATOM     17  C   UNL     1       8.482   9.745  18.253  0.00  0.00    +0.000 C 
BRANCH  17  19
ATOM     18  O   UNL     1       9.456  10.224  20.399  0.00  0.00    +0.000 OA
ATOM     19  C   UNL     1       9.270  10.613  19.242  0.00  0.00    +0.000 C 
ATOM     20  N   UNL     1       9.794  11.813  18.783  0.00  0.00    +0.000 N 
ATOM     21  C   UNL     1       9.459  12.441  17.494  0.00  0.00    +0.000 C 
ATOM     22  C   UNL     1       8.493  13.616  17.706  0.00  0.00    +0.000 C 
ATOM     23  N   UNL     1       9.049  14.572  18.681  0.00  0.00    +0.000 N 
ATOM     24  C   UNL     1       9.470  13.985  19.973  0.00  0.00    +0.000 C 
ATOM     25  C   UNL     1      10.390  12.761  19.739  0.00  0.00    +0.000 C 
BRANCH  23  26
ATOM     26  C   UNL     1       9.441  15.850  18.315  0.00  0.00    +0.000 A 
ATOM     27  C   UNL     1      10.640  16.067  17.624  0.00  0.00    +0.000 A 
ATOM     28  C   UNL     1      11.086  17.355  17.296  0.00  0.00    +0.000 A 
ATOM     29  C   UNL     1      10.325  18.463  17.649  0.00  0.00    +0.000 A 
ATOM     30  C   UNL     1       9.123  18.281  18.319  0.00  0.00    +0.000 A 
ATOM     31  C   UNL     1       8.690  16.988  18.647  0.00  0.00    +0.000 A 
ENDBRANCH  23  26
ENDBRANCH  17  19
ENDBRANCH   1  17
TORSDOF 6
ENDMDL
MODEL 5
REMARK VINA RESULT:      -8.0      5.850     10.705
REMARK  Name = 
REMARK  6 active torsions:
REMARK  status: ('A' for Active; 'I' for Inactive)
REMARK    1  A    between atoms: C_2  and  C_3
REMARK    2  A    between atoms: C_3  and  O_4
REMARK    3  A    between atoms: O_4  and  C_5
REMARK    4  A    between atoms: C_8  and  S_9
REMARK    5  A    between atoms: S_9  and  N_12
REMARK    6  A    between atoms: N_23  and  C_24
REMARK                            x       y       z     vdW  Elec       q    Type
REMARK                         _______ _______ _______ _____ _____    ______ ____
ROOT
ATOM      1  O   UNL     1       0.573   8.328  20.924  0.00  0.00    +0.000 OA
ENDROOT
BRANCH   1   2
ATOM      2  C   UNL     1       1.400   7.416  20.327  0.00  0.00    +0.000 A 
ATOM      3  C   UNL     1       2.065   7.880  19.188  0.00  0.00    +0.000 A 
ATOM      4  C   UNL     1       3.003   7.077  18.530  0.00  0.00    +0.000 A 
ATOM      5  C   UNL     1       3.343   5.829  19.057  0.00  0.00    +0.000 A 
ATOM      6  C   UNL     1       2.629   5.329  20.149  0.00  0.00    +0.000 A 
ATOM      7  C   UNL     1       1.656   6.121  20.779  0.00  0.00    +0.000 A 
BRANCH   5   8
ATOM      8  S   UNL     1       4.543   4.800  18.235  0.00  0.00    +0.000 S 
ATOM      9  O   UNL     1       5.353   4.168  19.256  0.00  0.00    +0.000 OA
ATOM     10  O   UNL     1       3.794   3.982  17.300  0.00  0.00    +0.000 OA
BRANCH   8  11
ATOM     11  N   UNL     1       5.600   5.843  17.361  0.00  0.00    +0.000 NA
ATOM     12  C   UNL     1       5.794   5.624  15.895  0.00  0.00    +0.000 C 
ATOM     13  C   UNL     1       6.559   4.325  15.625  0.00  0.00    +0.000 C 
ATOM     14  O   UNL     1       7.846   4.338  16.261  0.00  0.00    +0.000 OA
ATOM     15  C   UNL     1       7.776   4.621  17.669  0.00  0.00    +0.000 C 
ATOM     16  C   UNL     1       6.988   5.910  17.963  0.00  0.00    +0.000 C 
ENDBRANCH   8  11
ENDBRANCH   5   8
ENDBRANCH   1   2
BRANCH   1  17
ATOM     17  C   UNL     1       0.302   9.536  20.222  0.00  0.00    +0.000 C 
BRANCH  17  19
ATOM     18  O   UNL     1       0.846  10.673  22.270  0.00  0.00    +0.000 OA
ATOM     19  C   UNL     1       0.800  10.736  21.038  0.00  0.00    +0.000 C 
ATOM     20  N   UNL     1       1.230  11.860  20.348  0.00  0.00    +0.000 N 
ATOM     21  C   UNL     1       1.029  12.094  18.909  0.00  0.00    +0.000 C 
ATOM     22  C   UNL     1      -0.104  13.107  18.684  0.00  0.00    +0.000 C 
ATOM     23  N   UNL     1       0.158  14.348  19.435  0.00  0.00    +0.000 N 
ATOM     24  C   UNL     1       0.437  14.169  20.878  0.00  0.00    +0.000 C 
ATOM     25  C   UNL     1       1.535  13.096  21.088  0.00  0.00    +0.000 C 
BRANCH  23  26
ATOM     26  C   UNL     1       0.434  15.549  18.798  0.00  0.00    +0.000 A 
ATOM     27  C   UNL     1       1.754  15.968  18.592  0.00  0.00    +0.000 A 
ATOM     28  C   UNL     1       2.057  17.204  18.003  0.00  0.00    +0.000 A 
ATOM     29  C   UNL     1       1.030  18.049  17.596  0.00  0.00    +0.000 A 
ATOM     30  C   UNL     1      -0.289  17.654  17.771  0.00  0.00    +0.000 A 
ATOM     31  C   UNL     1      -0.580  16.417  18.366  0.00  0.00    +0.000 A 
ENDBRANCH  23  26
ENDBRANCH  17  19
ENDBRANCH   1  17
TORSDOF 6
ENDMDL
MODEL 6
REMARK VINA RESULT:      -7.9      7.730     10.538
REMARK  Name = 
REMARK  6 active torsions:
REMARK  status: ('A' for Active; 'I' for Inactive)
REMARK    1  A    between atoms: C_2  and  C_3
REMARK    2  A    between atoms: C_3  and  O_4
REMARK    3  A    between atoms: O_4  and  C_5
REMARK    4  A    between atoms: C_8  and  S_9
REMARK    5  A    between atoms: S_9  and  N_12
REMARK    6  A    between atoms: N_23  and  C_24
REMARK                            x       y       z     vdW  Elec       q    Type
REMARK                         _______ _______ _______ _____ _____    ______ ____
ROOT
ATOM      1  O   UNL     1       0.575   9.988  19.812  0.00  0.00    +0.000 OA
ENDROOT
BRANCH   1   2
ATOM      2  C   UNL     1       1.317   8.895  19.456  0.00  0.00    +0.000 A 
ATOM      3  C   UNL     1       1.859   8.944  18.169  0.00  0.00    +0.000 A 
ATOM      4  C   UNL     1       2.706   7.930  17.709  0.00  0.00    +0.000 A 
ATOM      5  C   UNL     1       3.083   6.895  18.568  0.00  0.00    +0.000 A 
ATOM      6  C   UNL     1       2.487   6.800  19.828  0.00  0.00    +0.000 A 
ATOM      7  C   UNL     1       1.602   7.797  20.268  0.00  0.00    +0.000 A 
BRANCH   5   8
ATOM      8  S   UNL     1       4.170   5.602  18.000  0.00  0.00    +0.000 S 
ATOM      9  O   UNL     1       5.013   5.216  19.113  0.00  0.00    +0.000 OA
ATOM     10  O   UNL     1       3.317   4.615  17.365  0.00  0.00    +0.000 OA
BRANCH   8  11
ATOM     11  N   UNL     1       5.217   6.294  16.821  0.00  0.00    +0.000 NA
ATOM     12  C   UNL     1       5.529   5.523  15.579  0.00  0.00    +0.000 C 
ATOM     13  C   UNL     1       6.393   4.297  15.890  0.00  0.00    +0.000 C 
ATOM     14  O   UNL     1       7.628   4.676  16.516  0.00  0.00    +0.000 OA
ATOM     15  C   UNL     1       7.440   5.494  17.684  0.00  0.00    +0.000 C 
ATOM     16  C   UNL     1       6.552   6.718  17.398  0.00  0.00    +0.000 C 
ENDBRANCH   8  11
ENDBRANCH   5   8
ENDBRANCH   1   2
BRANCH   1  17
ATOM     17  C   UNL     1       0.986  11.257  19.317  0.00  0.00    +0.000 C 
BRANCH  17  19
ATOM     18  O   UNL     1       0.581  12.906  21.021  0.00  0.00    +0.000 OA
ATOM     19  C   UNL     1       0.169  12.368  19.989  0.00  0.00    +0.000 C 
ATOM     20  N   UNL     1      -1.012  12.768  19.379  0.00  0.00    +0.000 N 
ATOM     21  C   UNL     1      -1.671  12.058  18.270  0.00  0.00    +0.000 C 
ATOM     22  C   UNL     1      -2.887  11.273  18.785  0.00  0.00    +0.000 C 
ATOM     23  N   UNL     1      -3.803  12.164  19.519  0.00  0.00    +0.000 N 
ATOM     24  C   UNL     1      -3.181  12.958  20.602  0.00  0.00    +0.000 C 
ATOM     25  C   UNL     1      -1.919  13.691  20.082  0.00  0.00    +0.000 C 
BRANCH  23  26
ATOM     26  C   UNL     1      -5.067  12.475  19.041  0.00  0.00    +0.000 A 
ATOM     27  C   UNL     1      -5.392  12.292  17.691  0.00  0.00    +0.000 A 
ATOM     28  C   UNL     1      -6.643  12.655  17.173  0.00  0.00    +0.000 A 
ATOM     29  C   UNL     1      -7.608  13.203  18.010  0.00  0.00    +0.000 A 
ATOM     30  C   UNL     1      -7.323  13.381  19.356  0.00  0.00    +0.000 A 
ATOM     31  C   UNL     1      -6.066  13.020  19.862  0.00  0.00    +0.000 A 
ENDBRANCH  23  26
ENDBRANCH  17  19
ENDBRANCH   1  17
TORSDOF 6
ENDMDL
MODEL 7
REMARK VINA RESULT:      -7.9      0.567      1.036
REMARK  Name = 
REMARK  6 active torsions:
REMARK  status: ('A' for Active; 'I' for Inactive)
REMARK    1  A    between atoms: C_2  and  C_3
REMARK    2  A    between atoms: C_3  and  O_4
REMARK    3  A    between atoms: O_4  and  C_5
REMARK    4  A    between atoms: C_8  and  S_9
REMARK    5  A    between atoms: S_9  and  N_12
REMARK    6  A    between atoms: N_23  and  C_24
REMARK                            x       y       z     vdW  Elec       q    Type
REMARK                         _______ _______ _______ _____ _____    ______ ____
ROOT
ATOM      1  O   UNL     1       8.360   8.640  17.562  0.00  0.00    +0.000 OA
ENDROOT
BRANCH   1   2
ATOM      2  C   UNL     1       8.723   9.744  18.284  0.00  0.00    +0.000 A 
ATOM      3  C   UNL     1       8.564  10.962  17.618  0.00  0.00    +0.000 A 
ATOM      4  C   UNL     1       8.819  12.173  18.270  0.00  0.00    +0.000 A 
ATOM      5  C   UNL     1       9.159  12.176  19.624  0.00  0.00    +0.000 A 
ATOM      6  C   UNL     1       9.392  10.962  20.275  0.00  0.00    +0.000 A 
ATOM      7  C   UNL     1       9.179   9.748  19.602  0.00  0.00    +0.000 A 
BRANCH   5   8
ATOM      8  S   UNL     1       9.477  13.712  20.471  0.00  0.00    +0.000 S 
ATOM      9  O   UNL     1       9.974  13.391  21.793  0.00  0.00    +0.000 OA
ATOM     10  O   UNL     1      10.290  14.504  19.568  0.00  0.00    +0.000 OA
BRANCH   8  11
ATOM     11  N   UNL     1       7.959  14.492  20.705  0.00  0.00    +0.000 NA
ATOM     12  C   UNL     1       7.385  15.319  19.600  0.00  0.00    +0.000 C 
ATOM     13  C   UNL     1       8.208  16.591  19.376  0.00  0.00    +0.000 C 
ATOM     14  O   UNL     1       8.264  17.391  20.567  0.00  0.00    +0.000 OA
ATOM     15  C   UNL     1       8.730  16.661  21.715  0.00  0.00    +0.000 C 
ATOM     16  C   UNL     1       7.932  15.366  21.942  0.00  0.00    +0.000 C 
ENDBRANCH   8  11
ENDBRANCH   5   8
ENDBRANCH   1   2
BRANCH   1  17
ATOM     17  C   UNL     1       8.024   7.459  18.281  0.00  0.00    +0.000 C 
BRANCH  17  19
ATOM     18  O   UNL     1       7.653   6.445  16.132  0.00  0.00    +0.000 OA
ATOM     19  C   UNL     1       7.378   6.439  17.335  0.00  0.00    +0.000 C 
ATOM     20  N   UNL     1       6.519   5.496  17.882  0.00  0.00    +0.000 N 
ATOM     21  C   UNL     1       5.987   5.536  19.254  0.00  0.00    +0.000 C 
ATOM     22  C   UNL     1       4.525   6.008  19.248  0.00  0.00    +0.000 C 
ATOM     23  N   UNL     1       3.716   5.171  18.344  0.00  0.00    +0.000 N 
ATOM     24  C   UNL     1       4.241   5.036  16.967  0.00  0.00    +0.000 C 
ATOM     25  C   UNL     1       5.734   4.624  16.993  0.00  0.00    +0.000 C 
BRANCH  23  26
ATOM     26  C   UNL     1       2.725   4.324  18.816  0.00  0.00    +0.000 A 
ATOM     27  C   UNL     1       2.367   3.168  18.111  0.00  0.00    +0.000 A 
ATOM     28  C   UNL     1       1.329   2.329  18.539  0.00  0.00    +0.000 A 
ATOM     29  C   UNL     1       0.627   2.630  19.700  0.00  0.00    +0.000 A 
ATOM     30  C   UNL     1       0.969   3.759  20.431  0.00  0.00    +0.000 A 
ATOM     31  C   UNL     1       2.006   4.594  19.991  0.00  0.00    +0.000 A 
ENDBRANCH  23  26
ENDBRANCH  17  19
ENDBRANCH   1  17
TORSDOF 6
ENDMDL
MODEL 8
REMARK VINA RESULT:      -7.9      5.667      7.485
REMARK  Name = 
REMARK  6 active torsions:
REMARK  status: ('A' for Active; 'I' for Inactive)
REMARK    1  A    between atoms: C_2  and  C_3
REMARK    2  A    between atoms: C_3  and  O_4
REMARK    3  A    between atoms: O_4  and  C_5
REMARK    4  A    between atoms: C_8  and  S_9
REMARK    5  A    between atoms: S_9  and  N_12
REMARK    6  A    between atoms: N_23  and  C_24
REMARK                            x       y       z     vdW  Elec       q    Type
REMARK                         _______ _______ _______ _____ _____    ______ ____
ROOT
ATOM      1  O   UNL     1       3.048   5.528  18.824  0.00  0.00    +0.000 OA
ENDROOT
BRANCH   1   2
ATOM      2  C   UNL     1       2.509   6.694  19.293  0.00  0.00    +0.000 A 
ATOM      3  C   UNL     1       2.468   7.739  18.366  0.00  0.00    +0.000 A 
ATOM      4  C   UNL     1       1.866   8.960  18.689  0.00  0.00    +0.000 A 
ATOM      5  C   UNL     1       1.226   9.116  19.921  0.00  0.00    +0.000 A 
ATOM      6  C   UNL     1       1.328   8.104  20.878  0.00  0.00    +0.000 A 
ATOM      7  C   UNL     1       1.973   6.897  20.565  0.00  0.00    +0.000 A 
BRANCH   5   8
ATOM      8  S   UNL     1       0.446  10.662  20.343  0.00  0.00    +0.000 S 
ATOM      9  O   UNL     1      -0.973  10.523  20.088  0.00  0.00    +0.000 OA
ATOM     10  O   UNL     1       0.910  10.991  21.678  0.00  0.00    +0.000 OA
BRANCH   8  11
ATOM     11  N   UNL     1       1.020  11.846  19.231  0.00  0.00    +0.000 NA
ATOM     12  C   UNL     1       2.000  12.873  19.700  0.00  0.00    +0.000 C 
ATOM     13  C   UNL     1       1.351  13.850  20.684  0.00  0.00    +0.000 C 
ATOM     14  O   UNL     1       0.232  14.523  20.086  0.00  0.00    +0.000 OA
ATOM     15  C   UNL     1      -0.738  13.618  19.530  0.00  0.00    +0.000 C 
ATOM     16  C   UNL     1      -0.100  12.611  18.557  0.00  0.00    +0.000 C 
ENDBRANCH   8  11
ENDBRANCH   5   8
ENDBRANCH   1   2
BRANCH   1  17
ATOM     17  C   UNL     1       3.901   4.795  19.696  0.00  0.00    +0.000 C 
BRANCH  17  19
ATOM     18  O   UNL     1       6.186   5.515  19.911  0.00  0.00    +0.000 OA
ATOM     19  C   UNL     1       5.356   4.914  19.223  0.00  0.00    +0.000 C 
ATOM     20  N   UNL     1       5.707   4.294  18.032  0.00  0.00    +0.000 N 
ATOM     21  C   UNL     1       4.754   3.732  17.061  0.00  0.00    +0.000 C 
ATOM     22  C   UNL     1       4.606   4.668  15.852  0.00  0.00    +0.000 C 
ATOM     23  N   UNL     1       5.925   4.956  15.260  0.00  0.00    +0.000 N 
ATOM     24  C   UNL     1       6.947   5.459  16.204  0.00  0.00    +0.000 C 
ATOM     25  C   UNL     1       7.036   4.539  17.448  0.00  0.00    +0.000 C 
BRANCH  23  26
ATOM     26  C   UNL     1       6.279   4.501  13.999  0.00  0.00    +0.000 A 
ATOM     27  C   UNL     1       7.349   5.075  13.300  0.00  0.00    +0.000 A 
ATOM     28  C   UNL     1       7.688   4.671  12.000  0.00  0.00    +0.000 A 
ATOM     29  C   UNL     1       6.960   3.666  11.374  0.00  0.00    +0.000 A 
ATOM     30  C   UNL     1       5.905   3.066  12.047  0.00  0.00    +0.000 A 
ATOM     31  C   UNL     1       5.571   3.482  13.344  0.00  0.00    +0.000 A 
ENDBRANCH  23  26
ENDBRANCH  17  19
ENDBRANCH   1  17
TORSDOF 6
ENDMDL
MODEL 9
REMARK VINA RESULT:      -7.9      7.656     11.149
REMARK  Name = 
REMARK  6 active torsions:
REMARK  status: ('A' for Active; 'I' for Inactive)
REMARK    1  A    between atoms: C_2  and  C_3
REMARK    2  A    between atoms: C_3  and  O_4
REMARK    3  A    between atoms: O_4  and  C_5
REMARK    4  A    between atoms: C_8  and  S_9
REMARK    5  A    between atoms: S_9  and  N_12
REMARK    6  A    between atoms: N_23  and  C_24
REMARK                            x       y       z     vdW  Elec       q    Type
REMARK                         _______ _______ _______ _____ _____    ______ ____
ROOT
ATOM      1  O   UNL     1       0.753  11.096  18.718  0.00  0.00    +0.000 OA
ENDROOT
BRANCH   1   2
ATOM      2  C   UNL     1       1.350   9.872  18.847  0.00  0.00    +0.000 A 
ATOM      3  C   UNL     1       1.140   9.241  20.076  0.00  0.00    +0.000 A 
ATOM      4  C   UNL     1       1.623   7.949  20.309  0.00  0.00    +0.000 A 
ATOM      5  C   UNL     1       2.255   7.246  19.281  0.00  0.00    +0.000 A 
ATOM      6  C   UNL     1       2.534   7.897  18.077  0.00  0.00    +0.000 A 
ATOM      7  C   UNL     1       2.086   9.211  17.864  0.00  0.00    +0.000 A 
BRANCH   5   8
ATOM      8  S   UNL     1       2.868   5.596  19.561  0.00  0.00    +0.000 S 
ATOM      9  O   UNL     1       4.314   5.648  19.503  0.00  0.00    +0.000 OA
ATOM     10  O   UNL     1       2.210   5.125  20.765  0.00  0.00    +0.000 OA
BRANCH   8  11
ATOM     11  N   UNL     1       2.369   4.631  18.224  0.00  0.00    +0.000 NA
ATOM     12  C   UNL     1       1.259   3.646  18.408  0.00  0.00    +0.000 C 
ATOM     13  C   UNL     1       1.691   2.489  19.314  0.00  0.00    +0.000 C 
ATOM     14  O   UNL     1       2.829   1.802  18.774  0.00  0.00    +0.000 OA
ATOM     15  C   UNL     1       3.932   2.678  18.484  0.00  0.00    +0.000 C 
ATOM     16  C   UNL     1       3.513   3.863  17.595  0.00  0.00    +0.000 C 
ENDBRANCH   8  11
ENDBRANCH   5   8
ENDBRANCH   1   2
BRANCH   1  17
ATOM     17  C   UNL     1       1.543  12.250  18.983  0.00  0.00    +0.000 C 
BRANCH  17  19
ATOM     18  O   UNL     1       2.219  12.684  21.250  0.00  0.00    +0.000 OA
ATOM     19  C   UNL     1       1.305  12.726  20.422  0.00  0.00    +0.000 C 
ATOM     20  N   UNL     1       0.054  13.236  20.740  0.00  0.00    +0.000 N 
ATOM     21  C   UNL     1      -1.138  13.142  19.882  0.00  0.00    +0.000 C 
ATOM     22  C   UNL     1      -2.092  12.059  20.408  0.00  0.00    +0.000 C 
ATOM     23  N   UNL     1      -2.423  12.305  21.823  0.00  0.00    +0.000 N 
ATOM     24  C   UNL     1      -1.261  12.478  22.724  0.00  0.00    +0.000 C 
ATOM     25  C   UNL     1      -0.277  13.526  22.146  0.00  0.00    +0.000 C 
BRANCH  23  26
ATOM     26  C   UNL     1      -3.700  12.661  22.229  0.00  0.00    +0.000 A 
ATOM     27  C   UNL     1      -3.967  12.992  23.563  0.00  0.00    +0.000 A 
ATOM     28  C   UNL     1      -5.262  13.297  24.007  0.00  0.00    +0.000 A 
ATOM     29  C   UNL     1      -6.323  13.288  23.111  0.00  0.00    +0.000 A 
ATOM     30  C   UNL     1      -6.088  12.981  21.777  0.00  0.00    +0.000 A 
ATOM     31  C   UNL     1      -4.790  12.672  21.345  0.00  0.00    +0.000 A 
ENDBRANCH  23  26
ENDBRANCH  17  19
ENDBRANCH   1  17
TORSDOF 6
ENDMDL
