MODEL 1
REMARK VINA RESULT:      -7.5      0.000      0.000
REMARK  Name = 
REMARK  5 active torsions:
REMARK  status: ('A' for Active; 'I' for Inactive)
REMARK    1  A    between atoms: C_1  and  O_2
REMARK    2  A    between atoms: O_2  and  C_3
REMARK    3  A    between atoms: C_8  and  C_9
REMARK    4  A    between atoms: N_11  and  C_12
REMARK    5  A    between atoms: C_15  and  C_16
REMARK                            x       y       z     vdW  Elec       q    Type
REMARK                         _______ _______ _______ _____ _____    ______ ____
ROOT
ATOM      1  C   UNL     1       7.413   7.327  17.475  0.00  0.00    +0.000 C 
ATOM      2  O   UNL     1       7.899   6.683  16.551  0.00  0.00    +0.000 OA
ATOM      3  N   UNL     1       6.285   6.972  18.194  0.00  0.00    +0.000 N 
ATOM      4  H   UNL     1       5.902   7.670  18.816  0.00  0.00    +0.000 HD
ENDROOT
BRANCH   1  10
ATOM      5  C   UNL     1       9.786  12.694  19.074  0.00  0.00    +0.000 A 
ATOM      6  C   UNL     1      10.258  11.925  20.139  0.00  0.00    +0.000 A 
ATOM      7  C   UNL     1       9.972  10.553  20.229  0.00  0.00    +0.000 A 
ATOM      8  C   UNL     1       9.198   9.985  19.210  0.00  0.00    +0.000 A 
ATOM      9  N   UNL     1       8.755   8.696  19.031  0.00  0.00    +0.000 N 
ATOM     10  C   UNL     1       8.006   8.588  17.874  0.00  0.00    +0.000 A 
ATOM     11  C   UNL     1       7.979   9.848  17.306  0.00  0.00    +0.000 A 
ATOM     12  C   UNL     1       8.722  10.727  18.135  0.00  0.00    +0.000 A 
ATOM     13  C   UNL     1       9.024  12.096  18.067  0.00  0.00    +0.000 A 
ATOM     14  H   UNL     1       8.932   7.919  19.655  0.00  0.00    +0.000 HD
BRANCH   5  16
ATOM     15  C   UNL     1       9.300  14.921  19.756  0.00  0.00    +0.000 C 
ATOM     16  O   UNL     1       9.991  14.034  18.888  0.00  0.00    +0.000 OA
ENDBRANCH   5  16
ENDBRANCH   1  10
BRANCH   3  17
ATOM     17  C   UNL     1       5.546   5.780  18.069  0.00  0.00    +0.000 A 
ATOM     18  C   UNL     1       4.765   5.486  16.951  0.00  0.00    +0.000 A 
ATOM     19  C   UNL     1       4.031   4.297  16.877  0.00  0.00    +0.000 A 
ATOM     20  C   UNL     1       4.076   3.374  17.924  0.00  0.00    +0.000 A 
ATOM     21  C   UNL     1       4.876   3.657  19.039  0.00  0.00    +0.000 A 
ATOM     22  C   UNL     1       5.615   4.845  19.108  0.00  0.00    +0.000 A 
BRANCH  20  23
ATOM     23  C   UNL     1       3.307   2.097  17.906  0.00  0.00    +0.000 C 
ATOM     24  N   UNL     1       3.917   0.961  18.363  0.00  0.00    +0.000 N 
ATOM     25  O   UNL     1       2.152   2.052  17.499  0.00  0.00    +0.000 OA
ATOM     26  H   UNL     1       4.850   0.907  18.735  0.00  0.00    +0.000 HD
ATOM     27  H   UNL     1       3.367   0.112  18.352  0.00  0.00    +0.000 HD
ENDBRANCH  20  23
ENDBRANCH   3  17
TORSDOF 4
ENDMDL
MODEL 2
REMARK VINA RESULT:      -7.5      6.407      7.558
REMARK  Name = 
REMARK  5 active torsions:
REMARK  status: ('A' for Active; 'I' for Inactive)
REMARK    1  A    between atoms: C_1  and  O_2
REMARK    2  A    between atoms: O_2  and  C_3
REMARK    3  A    between atoms: C_8  and  C_9
REMARK    4  A    between atoms: N_11  and  C_12
REMARK    5  A    between atoms: C_15  and  C_16
REMARK                            x       y       z     vdW  Elec       q    Type
REMARK                         _______ _______ _______ _____ _____    ______ ____
ROOT
ATOM      1  C   UNL     1       2.164   8.546  18.217  0.00  0.00    +0.000 C 
ATOM      2  O   UNL     1       2.215   9.034  17.093  0.00  0.00    +0.000 OA
ATOM      3  N   UNL     1       2.793   7.378  18.614  0.00  0.00    +0.000 N 
ATOM      4  H   UNL     1       2.537   7.007  19.517  0.00  0.00    +0.000 HD
ENDROOT
BRANCH   1  10
ATOM      5  C   UNL     1      -1.254  11.271  22.446  0.00  0.00    +0.000 A 
ATOM      6  C   UNL     1      -0.792  10.195  23.205  0.00  0.00    +0.000 A 
ATOM      7  C   UNL     1       0.076   9.237  22.656  0.00  0.00    +0.000 A 
ATOM      8  C   UNL     1       0.462   9.402  21.320  0.00  0.00    +0.000 A 
ATOM      9  N   UNL     1       1.277   8.639  20.519  0.00  0.00    +0.000 N 
ATOM     10  C   UNL     1       1.372   9.182  19.251  0.00  0.00    +0.000 A 
ATOM     11  C   UNL     1       0.592  10.323  19.255  0.00  0.00    +0.000 A 
ATOM     12  C   UNL     1       0.021  10.468  20.545  0.00  0.00    +0.000 A 
ATOM     13  C   UNL     1      -0.844  11.415  21.117  0.00  0.00    +0.000 A 
ATOM     14  H   UNL     1       1.745   7.785  20.797  0.00  0.00    +0.000 HD
BRANCH   5  16
ATOM     15  C   UNL     1      -1.534  13.517  23.179  0.00  0.00    +0.000 C 
ATOM     16  O   UNL     1      -2.106  12.255  22.869  0.00  0.00    +0.000 OA
ENDBRANCH   5  16
ENDBRANCH   1  10
BRANCH   3  17
ATOM     17  C   UNL     1       3.672   6.592  17.845  0.00  0.00    +0.000 A 
ATOM     18  C   UNL     1       3.602   5.199  17.802  0.00  0.00    +0.000 A 
ATOM     19  C   UNL     1       4.508   4.455  17.039  0.00  0.00    +0.000 A 
ATOM     20  C   UNL     1       5.499   5.099  16.295  0.00  0.00    +0.000 A 
ATOM     21  C   UNL     1       5.560   6.499  16.321  0.00  0.00    +0.000 A 
ATOM     22  C   UNL     1       4.647   7.242  17.080  0.00  0.00    +0.000 A 
BRANCH  20  23
ATOM     23  C   UNL     1       6.500   4.359  15.475  0.00  0.00    +0.000 C 
ATOM     24  N   UNL     1       6.059   3.649  14.391  0.00  0.00    +0.000 N 
ATOM     25  O   UNL     1       7.694   4.381  15.750  0.00  0.00    +0.000 OA
ATOM     26  H   UNL     1       5.104   3.591  14.079  0.00  0.00    +0.000 HD
ATOM     27  H   UNL     1       6.761   3.167  13.845  0.00  0.00    +0.000 HD
ENDBRANCH  20  23
ENDBRANCH   3  17
TORSDOF 4
ENDMDL
MODEL 3
REMARK VINA RESULT:      -7.4      2.904      9.773
REMARK  Name = 
REMARK  5 active torsions:
REMARK  status: ('A' for Active; 'I' for Inactive)
REMARK    1  A    between atoms: C_1  and  O_2
REMARK    2  A    between atoms: O_2  and  C_3
REMARK    3  A    between atoms: C_8  and  C_9
REMARK    4  A    between atoms: N_11  and  C_12
REMARK    5  A    between atoms: C_15  and  C_16
REMARK                            x       y       z     vdW  Elec       q    Type
REMARK                         _______ _______ _______ _____ _____    ______ ____
ROOT
ATOM      1  C   UNL     1       9.012  10.368  18.745  0.00  0.00    +0.000 C 
ATOM      2  O   UNL     1       9.561  10.505  19.833  0.00  0.00    +0.000 OA
ATOM      3  N   UNL     1       8.839  11.366  17.801  0.00  0.00    +0.000 N 
ATOM      4  H   UNL     1       8.229  11.158  17.024  0.00  0.00    +0.000 HD
ENDROOT
BRANCH   1  10
ATOM      5  C   UNL     1       6.650   5.032  17.027  0.00  0.00    +0.000 A 
ATOM      6  C   UNL     1       7.298   4.615  18.191  0.00  0.00    +0.000 A 
ATOM      7  C   UNL     1       8.015   5.521  18.989  0.00  0.00    +0.000 A 
ATOM      8  C   UNL     1       8.055   6.858  18.575  0.00  0.00    +0.000 A 
ATOM      9  N   UNL     1       8.673   7.953  19.132  0.00  0.00    +0.000 N 
ATOM     10  C   UNL     1       8.448   9.086  18.371  0.00  0.00    +0.000 A 
ATOM     11  C   UNL     1       7.664   8.691  17.304  0.00  0.00    +0.000 A 
ATOM     12  C   UNL     1       7.413   7.301  17.424  0.00  0.00    +0.000 A 
ATOM     13  C   UNL     1       6.699   6.376  16.645  0.00  0.00    +0.000 A 
ATOM     14  H   UNL     1       9.230   7.950  19.977  0.00  0.00    +0.000 HD
BRANCH   5  16
ATOM     15  C   UNL     1       5.585   4.803  14.913  0.00  0.00    +0.000 C 
ATOM     16  O   UNL     1       5.934   4.242  16.170  0.00  0.00    +0.000 OA
ENDBRANCH   5  16
ENDBRANCH   1  10
BRANCH   3  17
ATOM     17  C   UNL     1       9.335  12.682  17.867  0.00  0.00    +0.000 A 
ATOM     18  C   UNL     1       8.639  13.725  18.479  0.00  0.00    +0.000 A 
ATOM     19  C   UNL     1       9.161  15.023  18.504  0.00  0.00    +0.000 A 
ATOM     20  C   UNL     1      10.400  15.296  17.922  0.00  0.00    +0.000 A 
ATOM     21  C   UNL     1      11.111  14.246  17.323  0.00  0.00    +0.000 A 
ATOM     22  C   UNL     1      10.589  12.947  17.306  0.00  0.00    +0.000 A 
BRANCH  20  23
ATOM     23  C   UNL     1      11.001  16.660  17.906  0.00  0.00    +0.000 C 
ATOM     24  N   UNL     1      10.761  17.468  16.828  0.00  0.00    +0.000 N 
ATOM     25  O   UNL     1      11.692  17.065  18.834  0.00  0.00    +0.000 OA
ATOM     26  H   UNL     1      10.191  17.229  16.034  0.00  0.00    +0.000 HD
ATOM     27  H   UNL     1      11.170  18.393  16.851  0.00  0.00    +0.000 HD
ENDBRANCH  20  23
ENDBRANCH   3  17
TORSDOF 4
ENDMDL
MODEL 4
REMARK VINA RESULT:      -7.4      2.791      9.800
REMARK  Name = 
REMARK  5 active torsions:
REMARK  status: ('A' for Active; 'I' for Inactive)
REMARK    1  A    between atoms: C_1  and  O_2
REMARK    2  A    between atoms: O_2  and  C_3
REMARK    3  A    between atoms: C_8  and  C_9
REMARK    4  A    between atoms: N_11  and  C_12
REMARK    5  A    between atoms: C_15  and  C_16
REMARK                            x       y       z     vdW  Elec       q    Type
REMARK                         _______ _______ _______ _____ _____    ______ ____
ROOT
ATOM      1  C   UNL     1       9.087  10.390  18.677  0.00  0.00    +0.000 C 
ATOM      2  O   UNL     1       9.743  10.511  19.706  0.00  0.00    +0.000 OA
ATOM      3  N   UNL     1       8.839  11.396  17.759  0.00  0.00    +0.000 N 
ATOM      4  H   UNL     1       8.152  11.203  17.044  0.00  0.00    +0.000 HD
ENDROOT
BRANCH   1  10
ATOM      5  C   UNL     1       6.478   5.103  17.179  0.00  0.00    +0.000 A 
ATOM      6  C   UNL     1       7.201   4.677  18.294  0.00  0.00    +0.000 A 
ATOM      7  C   UNL     1       7.997   5.570  19.030  0.00  0.00    +0.000 A 
ATOM      8  C   UNL     1       8.038   6.903  18.604  0.00  0.00    +0.000 A 
ATOM      9  N   UNL     1       8.721   7.985  19.105  0.00  0.00    +0.000 N 
ATOM     10  C   UNL     1       8.467   9.119  18.356  0.00  0.00    +0.000 A 
ATOM     11  C   UNL     1       7.595   8.738  17.352  0.00  0.00    +0.000 A 
ATOM     12  C   UNL     1       7.322   7.354  17.502  0.00  0.00    +0.000 A 
ATOM     13  C   UNL     1       6.530   6.443  16.784  0.00  0.00    +0.000 A 
ATOM     14  H   UNL     1       9.340   7.974  19.906  0.00  0.00    +0.000 HD
BRANCH   5  16
ATOM     15  C   UNL     1       4.415   3.950  16.906  0.00  0.00    +0.000 C 
ATOM     16  O   UNL     1       5.681   4.326  16.383  0.00  0.00    +0.000 OA
ENDBRANCH   5  16
ENDBRANCH   1  10
BRANCH   3  17
ATOM     17  C   UNL     1       9.362  12.703  17.781  0.00  0.00    +0.000 A 
ATOM     18  C   UNL     1      10.656  13.009  17.359  0.00  0.00    +0.000 A 
ATOM     19  C   UNL     1      11.142  14.319  17.416  0.00  0.00    +0.000 A 
ATOM     20  C   UNL     1      10.332  15.352  17.891  0.00  0.00    +0.000 A 
ATOM     21  C   UNL     1       9.024  15.051  18.298  0.00  0.00    +0.000 A 
ATOM     22  C   UNL     1       8.538  13.739  18.232  0.00  0.00    +0.000 A 
BRANCH  20  23
ATOM     23  C   UNL     1      10.798  16.765  17.987  0.00  0.00    +0.000 C 
ATOM     24  N   UNL     1      10.634  17.582  16.903  0.00  0.00    +0.000 N 
ATOM     25  O   UNL     1      11.316  17.199  19.010  0.00  0.00    +0.000 OA
ATOM     26  H   UNL     1      10.202  17.320  16.032  0.00  0.00    +0.000 HD
ATOM     27  H   UNL     1      10.948  18.539  17.000  0.00  0.00    +0.000 HD
ENDBRANCH  20  23
ENDBRANCH   3  17
TORSDOF 4
ENDMDL
MODEL 5
REMARK VINA RESULT:      -7.4      6.400      9.004
REMARK  Name = 
REMARK  5 active torsions:
REMARK  status: ('A' for Active; 'I' for Inactive)
REMARK    1  A    between atoms: C_1  and  O_2
REMARK    2  A    between atoms: O_2  and  C_3
REMARK    3  A    between atoms: C_8  and  C_9
REMARK    4  A    between atoms: N_11  and  C_12
REMARK    5  A    between atoms: C_15  and  C_16
REMARK                            x       y       z     vdW  Elec       q    Type
REMARK                         _______ _______ _______ _____ _____    ______ ____
ROOT
ATOM      1  C   UNL     1       1.838   7.407  19.981  0.00  0.00    +0.000 C 
ATOM      2  O   UNL     1       1.480   6.693  20.912  0.00  0.00    +0.000 OA
ATOM      3  N   UNL     1       1.454   8.723  19.785  0.00  0.00    +0.000 N 
ATOM      4  H   UNL     1       1.691   9.139  18.896  0.00  0.00    +0.000 HD
ENDROOT
BRANCH   1  10
ATOM      5  C   UNL     1       5.574   5.318  15.659  0.00  0.00    +0.000 A 
ATOM      6  C   UNL     1       5.229   4.101  16.251  0.00  0.00    +0.000 A 
ATOM      7  C   UNL     1       4.343   4.047  17.340  0.00  0.00    +0.000 A 
ATOM      8  C   UNL     1       3.818   5.257  17.809  0.00  0.00    +0.000 A 
ATOM      9  N   UNL     1       2.953   5.520  18.843  0.00  0.00    +0.000 N 
ATOM     10  C   UNL     1       2.710   6.877  18.951  0.00  0.00    +0.000 A 
ATOM     11  C   UNL     1       3.445   7.487  17.952  0.00  0.00    +0.000 A 
ATOM     12  C   UNL     1       4.140   6.481  17.233  0.00  0.00    +0.000 A 
ATOM     13  C   UNL     1       5.026   6.509  16.144  0.00  0.00    +0.000 A 
ATOM     14  H   UNL     1       2.544   4.830  19.461  0.00  0.00    +0.000 HD
BRANCH   5  16
ATOM     15  C   UNL     1       6.719   4.354  13.811  0.00  0.00    +0.000 C 
ATOM     16  O   UNL     1       6.430   5.494  14.607  0.00  0.00    +0.000 OA
ENDBRANCH   5  16
ENDBRANCH   1  10
BRANCH   3  17
ATOM     17  C   UNL     1       0.670   9.509  20.651  0.00  0.00    +0.000 A 
ATOM     18  C   UNL     1       0.546   9.242  22.014  0.00  0.00    +0.000 A 
ATOM     19  C   UNL     1      -0.259  10.038  22.834  0.00  0.00    +0.000 A 
ATOM     20  C   UNL     1      -0.951  11.128  22.300  0.00  0.00    +0.000 A 
ATOM     21  C   UNL     1      -0.812  11.411  20.934  0.00  0.00    +0.000 A 
ATOM     22  C   UNL     1       0.001  10.616  20.117  0.00  0.00    +0.000 A 
BRANCH  20  23
ATOM     23  C   UNL     1      -1.833  12.004  23.122  0.00  0.00    +0.000 C 
ATOM     24  N   UNL     1      -1.429  13.287  23.373  0.00  0.00    +0.000 N 
ATOM     25  O   UNL     1      -2.901  11.600  23.566  0.00  0.00    +0.000 OA
ATOM     26  H   UNL     1      -0.582  13.711  23.033  0.00  0.00    +0.000 HD
ATOM     27  H   UNL     1      -2.054  13.864  23.922  0.00  0.00    +0.000 HD
ENDBRANCH  20  23
ENDBRANCH   3  17
TORSDOF 4
ENDMDL
MODEL 6
REMARK VINA RESULT:      -7.2      6.494      7.688
REMARK  Name = 
REMARK  5 active torsions:
REMARK  status: ('A' for Active; 'I' for Inactive)
REMARK    1  A    between atoms: C_1  and  O_2
REMARK    2  A    between atoms: O_2  and  C_3
REMARK    3  A    between atoms: C_8  and  C_9
REMARK    4  A    between atoms: N_11  and  C_12
REMARK    5  A    between atoms: C_15  and  C_16
REMARK                            x       y       z     vdW  Elec       q    Type
REMARK                         _______ _______ _______ _____ _____    ______ ____
ROOT
ATOM      1  C   UNL     1       2.074   8.621  18.292  0.00  0.00    +0.000 C 
ATOM      2  O   UNL     1       2.071   9.060  17.147  0.00  0.00    +0.000 OA
ATOM      3  N   UNL     1       2.786   7.516  18.726  0.00  0.00    +0.000 N 
ATOM      4  H   UNL     1       2.571   7.168  19.650  0.00  0.00    +0.000 HD
ENDROOT
BRANCH   1  10
ATOM      5  C   UNL     1      -1.446  11.300  22.467  0.00  0.00    +0.000 A 
ATOM      6  C   UNL     1      -0.906  10.286  23.260  0.00  0.00    +0.000 A 
ATOM      7  C   UNL     1       0.012   9.361  22.735  0.00  0.00    +0.000 A 
ATOM      8  C   UNL     1       0.366   9.495  21.387  0.00  0.00    +0.000 A 
ATOM      9  N   UNL     1       1.215   8.751  20.604  0.00  0.00    +0.000 N 
ATOM     10  C   UNL     1       1.258   9.248  19.314  0.00  0.00    +0.000 A 
ATOM     11  C   UNL     1       0.409  10.338  19.285  0.00  0.00    +0.000 A 
ATOM     12  C   UNL     1      -0.151  10.500  20.578  0.00  0.00    +0.000 A 
ATOM     13  C   UNL     1      -1.065  11.414  21.127  0.00  0.00    +0.000 A 
ATOM     14  H   UNL     1       1.740   7.941  20.907  0.00  0.00    +0.000 HD
BRANCH   5  16
ATOM     15  C   UNL     1      -3.074  12.918  21.844  0.00  0.00    +0.000 C 
ATOM     16  O   UNL     1      -2.351  12.245  22.865  0.00  0.00    +0.000 OA
ENDBRANCH   5  16
ENDBRANCH   1  10
BRANCH   3  17
ATOM     17  C   UNL     1       3.702   6.755  17.974  0.00  0.00    +0.000 A 
ATOM     18  C   UNL     1       4.872   7.291  17.438  0.00  0.00    +0.000 A 
ATOM     19  C   UNL     1       5.745   6.504  16.680  0.00  0.00    +0.000 A 
ATOM     20  C   UNL     1       5.461   5.155  16.454  0.00  0.00    +0.000 A 
ATOM     21  C   UNL     1       4.296   4.608  17.008  0.00  0.00    +0.000 A 
ATOM     22  C   UNL     1       3.427   5.398  17.772  0.00  0.00    +0.000 A 
BRANCH  20  23
ATOM     23  C   UNL     1       6.346   4.270  15.644  0.00  0.00    +0.000 C 
ATOM     24  N   UNL     1       5.947   2.983  15.411  0.00  0.00    +0.000 N 
ATOM     25  O   UNL     1       7.409   4.674  15.187  0.00  0.00    +0.000 OA
ATOM     26  H   UNL     1       5.084   2.572  15.727  0.00  0.00    +0.000 HD
ATOM     27  H   UNL     1       6.560   2.409  14.848  0.00  0.00    +0.000 HD
ENDBRANCH  20  23
ENDBRANCH   3  17
TORSDOF 4
ENDMDL
MODEL 7
REMARK VINA RESULT:      -7.2      6.499      9.169
REMARK  Name = 
REMARK  5 active torsions:
REMARK  status: ('A' for Active; 'I' for Inactive)
REMARK    1  A    between atoms: C_1  and  O_2
REMARK    2  A    between atoms: O_2  and  C_3
REMARK    3  A    between atoms: C_8  and  C_9
REMARK    4  A    between atoms: N_11  and  C_12
REMARK    5  A    between atoms: C_15  and  C_16
REMARK                            x       y       z     vdW  Elec       q    Type
REMARK                         _______ _______ _______ _____ _____    ______ ____
ROOT
ATOM      1  C   UNL     1       1.688   8.570  18.807  0.00  0.00    +0.000 C 
ATOM      2  O   UNL     1       1.208   9.421  18.066  0.00  0.00    +0.000 OA
ATOM      3  N   UNL     1       1.550   8.534  20.184  0.00  0.00    +0.000 N 
ATOM      4  H   UNL     1       2.130   7.875  20.684  0.00  0.00    +0.000 HD
ENDROOT
BRANCH   1  10
ATOM      5  C   UNL     1       5.233   4.196  16.504  0.00  0.00    +0.000 A 
ATOM      6  C   UNL     1       4.322   3.394  17.193  0.00  0.00    +0.000 A 
ATOM      7  C   UNL     1       3.257   3.956  17.914  0.00  0.00    +0.000 A 
ATOM      8  C   UNL     1       3.141   5.352  17.916  0.00  0.00    +0.000 A 
ATOM      9  N   UNL     1       2.227   6.176  18.527  0.00  0.00    +0.000 N 
ATOM     10  C   UNL     1       2.504   7.504  18.258  0.00  0.00    +0.000 A 
ATOM     11  C   UNL     1       3.627   7.515  17.452  0.00  0.00    +0.000 A 
ATOM     12  C   UNL     1       4.030   6.173  17.233  0.00  0.00    +0.000 A 
ATOM     13  C   UNL     1       5.086   5.586  16.516  0.00  0.00    +0.000 A 
ATOM     14  H   UNL     1       1.455   5.874  19.108  0.00  0.00    +0.000 HD
BRANCH   5  16
ATOM     15  C   UNL     1       7.047   4.746  15.067  0.00  0.00    +0.000 C 
ATOM     16  O   UNL     1       6.310   3.763  15.780  0.00  0.00    +0.000 OA
ENDBRANCH   5  16
ENDBRANCH   1  10
BRANCH   3  17
ATOM     17  C   UNL     1       0.768   9.398  20.975  0.00  0.00    +0.000 A 
ATOM     18  C   UNL     1       0.062   8.967  22.098  0.00  0.00    +0.000 A 
ATOM     19  C   UNL     1      -0.718   9.855  22.844  0.00  0.00    +0.000 A 
ATOM     20  C   UNL     1      -0.798  11.201  22.479  0.00  0.00    +0.000 A 
ATOM     21  C   UNL     1      -0.075  11.642  21.362  0.00  0.00    +0.000 A 
ATOM     22  C   UNL     1       0.712  10.751  20.622  0.00  0.00    +0.000 A 
BRANCH  20  23
ATOM     23  C   UNL     1      -1.623  12.192  23.228  0.00  0.00    +0.000 C 
ATOM     24  N   UNL     1      -2.935  11.894  23.476  0.00  0.00    +0.000 N 
ATOM     25  O   UNL     1      -1.149  13.251  23.621  0.00  0.00    +0.000 OA
ATOM     26  H   UNL     1      -3.403  11.044  23.211  0.00  0.00    +0.000 HD
ATOM     27  H   UNL     1      -3.468  12.579  23.997  0.00  0.00    +0.000 HD
ENDBRANCH  20  23
ENDBRANCH   3  17
TORSDOF 4
ENDMDL
MODEL 8
REMARK VINA RESULT:      -7.2      6.373      8.734
REMARK  Name = 
REMARK  5 active torsions:
REMARK  status: ('A' for Active; 'I' for Inactive)
REMARK    1  A    between atoms: C_1  and  O_2
REMARK    2  A    between atoms: O_2  and  C_3
REMARK    3  A    between atoms: C_8  and  C_9
REMARK    4  A    between atoms: N_11  and  C_12
REMARK    5  A    between atoms: C_15  and  C_16
REMARK                            x       y       z     vdW  Elec       q    Type
REMARK                         _______ _______ _______ _____ _____    ______ ____
ROOT
ATOM      1  C   UNL     1       1.851   7.431  20.098  0.00  0.00    +0.000 C 
ATOM      2  O   UNL     1       1.259   6.694  20.879  0.00  0.00    +0.000 OA
ATOM      3  N   UNL     1       1.604   8.783  19.926  0.00  0.00    +0.000 N 
ATOM      4  H   UNL     1       2.049   9.232  19.138  0.00  0.00    +0.000 HD
ENDROOT
BRANCH   1  10
ATOM      5  C   UNL     1       6.181   5.318  16.386  0.00  0.00    +0.000 A 
ATOM      6  C   UNL     1       6.494   4.574  17.525  0.00  0.00    +0.000 A 
ATOM      7  C   UNL     1       5.745   4.704  18.707  0.00  0.00    +0.000 A 
ATOM      8  C   UNL     1       4.673   5.604  18.699  0.00  0.00    +0.000 A 
ATOM      9  N   UNL     1       3.782   5.948  19.687  0.00  0.00    +0.000 N 
ATOM     10  C   UNL     1       2.883   6.896  19.232  0.00  0.00    +0.000 A 
ATOM     11  C   UNL     1       3.220   7.155  17.917  0.00  0.00    +0.000 A 
ATOM     12  C   UNL     1       4.337   6.352  17.576  0.00  0.00    +0.000 A 
ATOM     13  C   UNL     1       5.099   6.202  16.406  0.00  0.00    +0.000 A 
ATOM     14  H   UNL     1       3.773   5.578  20.629  0.00  0.00    +0.000 HD
BRANCH   5  16
ATOM     15  C   UNL     1       6.330   4.411  14.192  0.00  0.00    +0.000 C 
ATOM     16  O   UNL     1       6.842   5.284  15.188  0.00  0.00    +0.000 OA
ENDBRANCH   5  16
ENDBRANCH   1  10
BRANCH   3  17
ATOM     17  C   UNL     1       0.709   9.577  20.669  0.00  0.00    +0.000 A 
ATOM     18  C   UNL     1      -0.101  10.552  20.088  0.00  0.00    +0.000 A 
ATOM     19  C   UNL     1      -0.962  11.332  20.866  0.00  0.00    +0.000 A 
ATOM     20  C   UNL     1      -1.032  11.140  22.248  0.00  0.00    +0.000 A 
ATOM     21  C   UNL     1      -0.234  10.147  22.833  0.00  0.00    +0.000 A 
ATOM     22  C   UNL     1       0.622   9.362  22.049  0.00  0.00    +0.000 A 
BRANCH  20  23
ATOM     23  C   UNL     1      -1.921  11.948  23.130  0.00  0.00    +0.000 C 
ATOM     24  N   UNL     1      -1.572  13.243  23.398  0.00  0.00    +0.000 N 
ATOM     25  O   UNL     1      -2.946  11.477  23.609  0.00  0.00    +0.000 OA
ATOM     26  H   UNL     1      -0.763  13.719  23.034  0.00  0.00    +0.000 HD
ATOM     27  H   UNL     1      -2.200  13.773  23.989  0.00  0.00    +0.000 HD
ENDBRANCH  20  23
ENDBRANCH   3  17
TORSDOF 4
ENDMDL
MODEL 9
REMARK VINA RESULT:      -7.1      6.145      8.870
REMARK  Name = 
REMARK  5 active torsions:
REMARK  status: ('A' for Active; 'I' for Inactive)
REMARK    1  A    between atoms: C_1  and  O_2
REMARK    2  A    between atoms: O_2  and  C_3
REMARK    3  A    between atoms: C_8  and  C_9
REMARK    4  A    between atoms: N_11  and  C_12
REMARK    5  A    between atoms: C_15  and  C_16
REMARK                            x       y       z     vdW  Elec       q    Type
REMARK                         _______ _______ _______ _____ _____    ______ ____
ROOT
ATOM      1  C   UNL     1       1.930   6.827  20.192  0.00  0.00    +0.000 C 
ATOM      2  O   UNL     1       1.279   6.148  20.980  0.00  0.00    +0.000 OA
ATOM      3  N   UNL     1       1.836   8.201  20.049  0.00  0.00    +0.000 N 
ATOM      4  H   UNL     1       2.308   8.610  19.255  0.00  0.00    +0.000 HD
ENDROOT
BRANCH   1  10
ATOM      5  C   UNL     1       5.793   4.225  16.280  0.00  0.00    +0.000 A 
ATOM      6  C   UNL     1       6.656   4.372  17.368  0.00  0.00    +0.000 A 
ATOM      7  C   UNL     1       6.216   4.943  18.573  0.00  0.00    +0.000 A 
ATOM      8  C   UNL     1       4.881   5.358  18.645  0.00  0.00    +0.000 A 
ATOM      9  N   UNL     1       4.177   5.949  19.667  0.00  0.00    +0.000 N 
ATOM     10  C   UNL     1       2.870   6.192  19.289  0.00  0.00    +0.000 A 
ATOM     11  C   UNL     1       2.747   5.740  17.988  0.00  0.00    +0.000 A 
ATOM     12  C   UNL     1       4.000   5.216  17.579  0.00  0.00    +0.000 A 
ATOM     13  C   UNL     1       4.462   4.639  16.385  0.00  0.00    +0.000 A 
ATOM     14  H   UNL     1       4.549   6.190  20.577  0.00  0.00    +0.000 HD
BRANCH   5  16
ATOM     15  C   UNL     1       6.781   4.547  14.140  0.00  0.00    +0.000 C 
ATOM     16  O   UNL     1       6.111   3.696  15.059  0.00  0.00    +0.000 OA
ENDBRANCH   5  16
ENDBRANCH   1  10
BRANCH   3  17
ATOM     17  C   UNL     1       1.059   9.078  20.829  0.00  0.00    +0.000 A 
ATOM     18  C   UNL     1       0.800   8.861  22.183  0.00  0.00    +0.000 A 
ATOM     19  C   UNL     1       0.006   9.749  22.916  0.00  0.00    +0.000 A 
ATOM     20  C   UNL     1      -0.537  10.880  22.303  0.00  0.00    +0.000 A 
ATOM     21  C   UNL     1      -0.263  11.111  20.948  0.00  0.00    +0.000 A 
ATOM     22  C   UNL     1       0.538  10.224  20.218  0.00  0.00    +0.000 A 
BRANCH  20  23
ATOM     23  C   UNL     1      -1.401  11.854  23.030  0.00  0.00    +0.000 C 
ATOM     24  N   UNL     1      -2.676  11.481  23.357  0.00  0.00    +0.000 N 
ATOM     25  O   UNL     1      -0.990  12.967  23.338  0.00  0.00    +0.000 OA
ATOM     26  H   UNL     1      -3.090  10.584  23.164  0.00  0.00    +0.000 HD
ATOM     27  H   UNL     1      -3.235  12.156  23.861  0.00  0.00    +0.000 HD
ENDBRANCH  20  23
ENDBRANCH   3  17
TORSDOF 4
ENDMDL
