MODEL 1
REMARK VINA RESULT:      -7.4      0.000      0.000
REMARK  Name = 
REMARK  7 active torsions:
REMARK  status: ('A' for Active; 'I' for Inactive)
REMARK    1  A    between atoms: C_1  and  C_2
REMARK    2  A    between atoms: N_8  and  C_9
REMARK    3  A    between atoms: C_9  and  C_10
REMARK    4  A    between atoms: C_16  and  N_17
REMARK    5  A    between atoms: N_17  and  S_18
REMARK    6  A    between atoms: S_18  and  C_19
REMARK    7  A    between atoms: C_22  and  C_23
REMARK                            x       y       z     vdW  Elec       q    Type
REMARK                         _______ _______ _______ _____ _____    ______ ____
ROOT
ATOM      1  C   UNL     1      -0.114   9.442  22.939  0.00  0.00    +0.000 C 
ATOM      2  C   UNL     1       0.346   9.545  21.501  0.00  0.00    +0.000 A 
ATOM      3  C   UNL     1       1.333   8.642  21.067  0.00  0.00    +0.000 A 
ATOM      4  C   UNL     1       1.648   8.624  19.707  0.00  0.00    +0.000 A 
ATOM      5  C   UNL     1       1.059   9.485  18.787  0.00  0.00    +0.000 A 
ATOM      6  N   UNL     1       1.505   9.213  17.509  0.00  0.00    +0.000 NA
ATOM      7  C   UNL     1       2.353   8.220  17.645  0.00  0.00    +0.000 A 
ATOM      8  N   UNL     1       2.448   7.807  18.946  0.00  0.00    +0.000 N 
ATOM      9  C   UNL     1       0.088  10.413  19.226  0.00  0.00    +0.000 A 
ATOM     10  C   UNL     1      -0.252  10.460  20.599  0.00  0.00    +0.000 A 
ATOM     11  C   UNL     1      -1.294  11.426  21.109  0.00  0.00    +0.000 C 
ENDROOT
BRANCH   9  12
ATOM     12  N   UNL     1      -0.678  11.150  18.262  0.00  0.00    +0.000 N 
ATOM     13  H   UNL     1      -0.782  12.131  18.514  0.00  0.00    +0.000 HD
BRANCH  12  14
ATOM     14  S   UNL     1      -2.124  10.515  17.693  0.00  0.00    +0.000 S 
ATOM     15  C   UNL     1      -3.351  11.717  18.175  0.00  0.00    +0.000 C 
ATOM     16  O   UNL     1      -2.031  10.591  16.248  0.00  0.00    +0.000 OA
ATOM     17  O   UNL     1      -2.405   9.259  18.353  0.00  0.00    +0.000 OA
ENDBRANCH  12  14
ENDBRANCH   9  12
BRANCH   8  18
ATOM     18  C   UNL     1       3.132   6.605  19.396  0.00  0.00    +0.000 C 
BRANCH  18  19
ATOM     19  C   UNL     1       2.239   5.400  19.296  0.00  0.00    +0.000 A 
ATOM     20  C   UNL     1       1.623   4.868  20.442  0.00  0.00    +0.000 A 
ATOM     21  C   UNL     1       0.874   3.697  20.359  0.00  0.00    +0.000 A 
ATOM     22  C   UNL     1       0.723   3.051  19.136  0.00  0.00    +0.000 A 
ATOM     23  C   UNL     1       1.301   3.586  17.987  0.00  0.00    +0.000 A 
ATOM     24  C   UNL     1       2.049   4.759  18.064  0.00  0.00    +0.000 A 
ENDBRANCH  18  19
ENDBRANCH   8  18
TORSDOF 4
ENDMDL
MODEL 2
REMARK VINA RESULT:      -7.3      5.255      7.064
REMARK  Name = 
REMARK  7 active torsions:
REMARK  status: ('A' for Active; 'I' for Inactive)
REMARK    1  A    between atoms: C_1  and  C_2
REMARK    2  A    between atoms: N_8  and  C_9
REMARK    3  A    between atoms: C_9  and  C_10
REMARK    4  A    between atoms: C_16  and  N_17
REMARK    5  A    between atoms: N_17  and  S_18
REMARK    6  A    between atoms: S_18  and  C_19
REMARK    7  A    between atoms: C_22  and  C_23
REMARK                            x       y       z     vdW  Elec       q    Type
REMARK                         _______ _______ _______ _____ _____    ______ ____
ROOT
ATOM      1  C   UNL     1       2.366   8.596  17.812  0.00  0.00    +0.000 C 
ATOM      2  C   UNL     1       3.066   7.281  18.072  0.00  0.00    +0.000 A 
ATOM      3  C   UNL     1       4.120   6.923  17.212  0.00  0.00    +0.000 A 
ATOM      4  C   UNL     1       4.873   5.794  17.538  0.00  0.00    +0.000 A 
ATOM      5  C   UNL     1       4.596   4.998  18.644  0.00  0.00    +0.000 A 
ATOM      6  N   UNL     1       5.529   3.988  18.764  0.00  0.00    +0.000 NA
ATOM      7  C   UNL     1       6.349   4.154  17.751  0.00  0.00    +0.000 A 
ATOM      8  N   UNL     1       6.015   5.250  17.002  0.00  0.00    +0.000 N 
ATOM      9  C   UNL     1       3.520   5.340  19.494  0.00  0.00    +0.000 A 
ATOM     10  C   UNL     1       2.734   6.477  19.190  0.00  0.00    +0.000 A 
ATOM     11  C   UNL     1       1.584   6.887  20.080  0.00  0.00    +0.000 C 
ENDROOT
BRANCH   9  12
ATOM     12  N   UNL     1       3.362   4.660  20.748  0.00  0.00    +0.000 N 
ATOM     13  H   UNL     1       4.226   4.629  21.287  0.00  0.00    +0.000 HD
BRANCH  12  14
ATOM     14  S   UNL     1       2.568   3.181  20.793  0.00  0.00    +0.000 S 
ATOM     15  C   UNL     1       0.870   3.583  20.419  0.00  0.00    +0.000 C 
ATOM     16  O   UNL     1       3.068   2.446  19.647  0.00  0.00    +0.000 OA
ATOM     17  O   UNL     1       2.642   2.621  22.123  0.00  0.00    +0.000 OA
ENDBRANCH  12  14
ENDBRANCH   9  12
BRANCH   8  18
ATOM     18  C   UNL     1       6.835   5.824  15.948  0.00  0.00    +0.000 C 
BRANCH  18  19
ATOM     19  C   UNL     1       6.627   5.105  14.644  0.00  0.00    +0.000 A 
ATOM     20  C   UNL     1       5.489   4.306  14.440  0.00  0.00    +0.000 A 
ATOM     21  C   UNL     1       5.349   3.568  13.268  0.00  0.00    +0.000 A 
ATOM     22  C   UNL     1       6.333   3.625  12.285  0.00  0.00    +0.000 A 
ATOM     23  C   UNL     1       7.449   4.439  12.461  0.00  0.00    +0.000 A 
ATOM     24  C   UNL     1       7.593   5.182  13.631  0.00  0.00    +0.000 A 
ENDBRANCH  18  19
ENDBRANCH   8  18
TORSDOF 4
ENDMDL
MODEL 3
REMARK VINA RESULT:      -7.3      5.090      7.127
REMARK  Name = 
REMARK  7 active torsions:
REMARK  status: ('A' for Active; 'I' for Inactive)
REMARK    1  A    between atoms: C_1  and  C_2
REMARK    2  A    between atoms: N_8  and  C_9
REMARK    3  A    between atoms: C_9  and  C_10
REMARK    4  A    between atoms: C_16  and  N_17
REMARK    5  A    between atoms: N_17  and  S_18
REMARK    6  A    between atoms: S_18  and  C_19
REMARK    7  A    between atoms: C_22  and  C_23
REMARK                            x       y       z     vdW  Elec       q    Type
REMARK                         _______ _______ _______ _____ _____    ______ ____
ROOT
ATOM      1  C   UNL     1       2.343   8.714  17.778  0.00  0.00    +0.000 C 
ATOM      2  C   UNL     1       3.044   7.402  18.057  0.00  0.00    +0.000 A 
ATOM      3  C   UNL     1       4.085   7.023  17.191  0.00  0.00    +0.000 A 
ATOM      4  C   UNL     1       4.839   5.899  17.531  0.00  0.00    +0.000 A 
ATOM      5  C   UNL     1       4.574   5.127  18.657  0.00  0.00    +0.000 A 
ATOM      6  N   UNL     1       5.505   4.116  18.786  0.00  0.00    +0.000 NA
ATOM      7  C   UNL     1       6.313   4.259  17.760  0.00  0.00    +0.000 A 
ATOM      8  N   UNL     1       5.973   5.340  16.992  0.00  0.00    +0.000 N 
ATOM      9  C   UNL     1       3.510   5.490  19.513  0.00  0.00    +0.000 A 
ATOM     10  C   UNL     1       2.723   6.622  19.196  0.00  0.00    +0.000 A 
ATOM     11  C   UNL     1       1.586   7.054  20.091  0.00  0.00    +0.000 C 
ENDROOT
BRANCH   9  12
ATOM     12  N   UNL     1       3.365   4.836  20.782  0.00  0.00    +0.000 N 
ATOM     13  H   UNL     1       4.254   4.728  21.269  0.00  0.00    +0.000 HD
BRANCH  12  14
ATOM     14  S   UNL     1       2.442   3.438  20.893  0.00  0.00    +0.000 S 
ATOM     15  C   UNL     1       3.582   2.127  20.487  0.00  0.00    +0.000 C 
ATOM     16  O   UNL     1       2.146   3.289  22.305  0.00  0.00    +0.000 OA
ATOM     17  O   UNL     1       1.382   3.467  19.912  0.00  0.00    +0.000 OA
ENDBRANCH  12  14
ENDBRANCH   9  12
BRANCH   8  18
ATOM     18  C   UNL     1       6.781   5.890  15.916  0.00  0.00    +0.000 C 
BRANCH  18  19
ATOM     19  C   UNL     1       6.648   5.070  14.662  0.00  0.00    +0.000 A 
ATOM     20  C   UNL     1       7.621   5.145  13.651  0.00  0.00    +0.000 A 
ATOM     21  C   UNL     1       7.445   4.457  12.453  0.00  0.00    +0.000 A 
ATOM     22  C   UNL     1       6.305   3.683  12.254  0.00  0.00    +0.000 A 
ATOM     23  C   UNL     1       5.350   3.575  13.262  0.00  0.00    +0.000 A 
ATOM     24  C   UNL     1       5.522   4.259  14.463  0.00  0.00    +0.000 A 
ENDBRANCH  18  19
ENDBRANCH   8  18
TORSDOF 4
ENDMDL
MODEL 4
REMARK VINA RESULT:      -7.2      4.851      6.796
REMARK  Name = 
REMARK  7 active torsions:
REMARK  status: ('A' for Active; 'I' for Inactive)
REMARK    1  A    between atoms: C_1  and  C_2
REMARK    2  A    between atoms: N_8  and  C_9
REMARK    3  A    between atoms: C_9  and  C_10
REMARK    4  A    between atoms: C_16  and  N_17
REMARK    5  A    between atoms: N_17  and  S_18
REMARK    6  A    between atoms: S_18  and  C_19
REMARK    7  A    between atoms: C_22  and  C_23
REMARK                            x       y       z     vdW  Elec       q    Type
REMARK                         _______ _______ _______ _____ _____    ______ ____
ROOT
ATOM      1  C   UNL     1       2.204   8.942  18.168  0.00  0.00    +0.000 C 
ATOM      2  C   UNL     1       2.822   7.571  18.335  0.00  0.00    +0.000 A 
ATOM      3  C   UNL     1       3.820   7.191  17.420  0.00  0.00    +0.000 A 
ATOM      4  C   UNL     1       4.506   5.999  17.661  0.00  0.00    +0.000 A 
ATOM      5  C   UNL     1       4.211   5.165  18.734  0.00  0.00    +0.000 A 
ATOM      6  N   UNL     1       5.077   4.090  18.769  0.00  0.00    +0.000 NA
ATOM      7  C   UNL     1       5.873   4.256  17.737  0.00  0.00    +0.000 A 
ATOM      8  N   UNL     1       5.590   5.410  17.058  0.00  0.00    +0.000 N 
ATOM      9  C   UNL     1       3.189   5.531  19.639  0.00  0.00    +0.000 A 
ATOM     10  C   UNL     1       2.472   6.732  19.422  0.00  0.00    +0.000 A 
ATOM     11  C   UNL     1       1.382   7.169  20.372  0.00  0.00    +0.000 C 
ENDROOT
BRANCH   9  12
ATOM     12  N   UNL     1       3.025   4.797  20.860  0.00  0.00    +0.000 N 
ATOM     13  H   UNL     1       3.914   4.494  21.256  0.00  0.00    +0.000 HD
BRANCH  12  14
ATOM     14  S   UNL     1       1.879   3.573  20.943  0.00  0.00    +0.000 S 
ATOM     15  C   UNL     1       2.520   2.298  19.874  0.00  0.00    +0.000 C 
ATOM     16  O   UNL     1       1.976   3.053  22.293  0.00  0.00    +0.000 OA
ATOM     17  O   UNL     1       0.616   4.043  20.419  0.00  0.00    +0.000 OA
ENDBRANCH  12  14
ENDBRANCH   9  12
BRANCH   8  18
ATOM     18  C   UNL     1       6.413   5.984  16.005  0.00  0.00    +0.000 C 
BRANCH  18  19
ATOM     19  C   UNL     1       6.323   5.175  14.741  0.00  0.00    +0.000 A 
ATOM     20  C   UNL     1       5.189   4.390  14.472  0.00  0.00    +0.000 A 
ATOM     21  C   UNL     1       5.152   3.570  13.348  0.00  0.00    +0.000 A 
ATOM     22  C   UNL     1       6.238   3.529  12.477  0.00  0.00    +0.000 A 
ATOM     23  C   UNL     1       7.354   4.328  12.715  0.00  0.00    +0.000 A 
ATOM     24  C   UNL     1       7.395   5.152  13.838  0.00  0.00    +0.000 A 
ENDBRANCH  18  19
ENDBRANCH   8  18
TORSDOF 4
ENDMDL
MODEL 5
REMARK VINA RESULT:      -7.1      0.128      1.015
REMARK  Name = 
REMARK  7 active torsions:
REMARK  status: ('A' for Active; 'I' for Inactive)
REMARK    1  A    between atoms: C_1  and  C_2
REMARK    2  A    between atoms: N_8  and  C_9
REMARK    3  A    between atoms: C_9  and  C_10
REMARK    4  A    between atoms: C_16  and  N_17
REMARK    5  A    between atoms: N_17  and  S_18
REMARK    6  A    between atoms: S_18  and  C_19
REMARK    7  A    between atoms: C_22  and  C_23
REMARK                            x       y       z     vdW  Elec       q    Type
REMARK                         _______ _______ _______ _____ _____    ______ ____
ROOT
ATOM      1  C   UNL     1      -0.035   9.404  22.911  0.00  0.00    +0.000 C 
ATOM      2  C   UNL     1       0.405   9.504  21.467  0.00  0.00    +0.000 A 
ATOM      3  C   UNL     1       1.408   8.620  21.029  0.00  0.00    +0.000 A 
ATOM      4  C   UNL     1       1.706   8.596  19.666  0.00  0.00    +0.000 A 
ATOM      5  C   UNL     1       1.085   9.433  18.744  0.00  0.00    +0.000 A 
ATOM      6  N   UNL     1       1.522   9.158  17.464  0.00  0.00    +0.000 NA
ATOM      7  C   UNL     1       2.396   8.187  17.599  0.00  0.00    +0.000 A 
ATOM      8  N   UNL     1       2.516   7.790  18.903  0.00  0.00    +0.000 N 
ATOM      9  C   UNL     1       0.097  10.341  19.186  0.00  0.00    +0.000 A 
ATOM     10  C   UNL     1      -0.227  10.394  20.563  0.00  0.00    +0.000 A 
ATOM     11  C   UNL     1      -1.286  11.340  21.077  0.00  0.00    +0.000 C 
ENDROOT
BRANCH   9  12
ATOM     12  N   UNL     1      -0.698  11.049  18.224  0.00  0.00    +0.000 N 
ATOM     13  H   UNL     1      -0.814  12.033  18.463  0.00  0.00    +0.000 HD
BRANCH  12  14
ATOM     14  S   UNL     1      -2.144  10.381  17.694  0.00  0.00    +0.000 S 
ATOM     15  C   UNL     1      -3.355  11.653  18.006  0.00  0.00    +0.000 C 
ATOM     16  O   UNL     1      -2.016  10.293  16.252  0.00  0.00    +0.000 OA
ATOM     17  O   UNL     1      -2.467   9.213  18.482  0.00  0.00    +0.000 OA
ENDBRANCH  12  14
ENDBRANCH   9  12
BRANCH   8  18
ATOM     18  C   UNL     1       3.235   6.610  19.356  0.00  0.00    +0.000 C 
BRANCH  18  19
ATOM     19  C   UNL     1       2.364   5.386  19.298  0.00  0.00    +0.000 A 
ATOM     20  C   UNL     1       2.153   4.713  18.082  0.00  0.00    +0.000 A 
ATOM     21  C   UNL     1       1.270   3.639  18.017  0.00  0.00    +0.000 A 
ATOM     22  C   UNL     1       0.597   3.218  19.161  0.00  0.00    +0.000 A 
ATOM     23  C   UNL     1       0.824   3.854  20.379  0.00  0.00    +0.000 A 
ATOM     24  C   UNL     1       1.708   4.929  20.450  0.00  0.00    +0.000 A 
ENDBRANCH  18  19
ENDBRANCH   8  18
TORSDOF 4
ENDMDL
MODEL 6
REMARK VINA RESULT:      -7.0      3.910      7.042
REMARK  Name = 
REMARK  7 active torsions:
REMARK  status: ('A' for Active; 'I' for Inactive)
REMARK    1  A    between atoms: C_1  and  C_2
REMARK    2  A    between atoms: N_8  and  C_9
REMARK    3  A    between atoms: C_9  and  C_10
REMARK    4  A    between atoms: C_16  and  N_17
REMARK    5  A    between atoms: N_17  and  S_18
REMARK    6  A    between atoms: S_18  and  C_19
REMARK    7  A    between atoms: C_22  and  C_23
REMARK                            x       y       z     vdW  Elec       q    Type
REMARK                         _______ _______ _______ _____ _____    ______ ____
ROOT
ATOM      1  C   UNL     1       2.286   3.892  21.506  0.00  0.00    +0.000 C 
ATOM      2  C   UNL     1       2.479   4.829  20.333  0.00  0.00    +0.000 A 
ATOM      3  C   UNL     1       1.847   6.084  20.392  0.00  0.00    +0.000 A 
ATOM      4  C   UNL     1       2.147   7.012  19.394  0.00  0.00    +0.000 A 
ATOM      5  C   UNL     1       3.003   6.729  18.335  0.00  0.00    +0.000 A 
ATOM      6  N   UNL     1       3.169   7.839  17.532  0.00  0.00    +0.000 NA
ATOM      7  C   UNL     1       2.425   8.774  18.078  0.00  0.00    +0.000 A 
ATOM      8  N   UNL     1       1.816   8.334  19.222  0.00  0.00    +0.000 N 
ATOM      9  C   UNL     1       3.616   5.458  18.258  0.00  0.00    +0.000 A 
ATOM     10  C   UNL     1       3.331   4.492  19.253  0.00  0.00    +0.000 A 
ATOM     11  C   UNL     1       3.976   3.127  19.217  0.00  0.00    +0.000 C 
ENDROOT
BRANCH   9  12
ATOM     12  N   UNL     1       4.661   5.230  17.301  0.00  0.00    +0.000 N 
ATOM     13  H   UNL     1       4.666   4.274  16.950  0.00  0.00    +0.000 HD
BRANCH  12  14
ATOM     14  S   UNL     1       6.219   5.761  17.633  0.00  0.00    +0.000 S 
ATOM     15  C   UNL     1       7.270   4.523  16.894  0.00  0.00    +0.000 C 
ATOM     16  O   UNL     1       6.389   6.961  16.838  0.00  0.00    +0.000 OA
ATOM     17  O   UNL     1       6.439   5.780  19.062  0.00  0.00    +0.000 OA
ENDBRANCH  12  14
ENDBRANCH   9  12
BRANCH   8  18
ATOM     18  C   UNL     1       1.102   9.178  20.167  0.00  0.00    +0.000 C 
BRANCH  18  19
ATOM     19  C   UNL     1       0.377  10.292  19.463  0.00  0.00    +0.000 A 
ATOM     20  C   UNL     1       0.812  11.622  19.590  0.00  0.00    +0.000 A 
ATOM     21  C   UNL     1       0.082  12.659  19.015  0.00  0.00    +0.000 A 
ATOM     22  C   UNL     1      -1.080  12.381  18.300  0.00  0.00    +0.000 A 
ATOM     23  C   UNL     1      -1.503  11.064  18.139  0.00  0.00    +0.000 A 
ATOM     24  C   UNL     1      -0.775  10.022  18.711  0.00  0.00    +0.000 A 
ENDBRANCH  18  19
ENDBRANCH   8  18
TORSDOF 4
ENDMDL
MODEL 7
REMARK VINA RESULT:      -7.0      3.872      7.035
REMARK  Name = 
REMARK  7 active torsions:
REMARK  status: ('A' for Active; 'I' for Inactive)
REMARK    1  A    between atoms: C_1  and  C_2
REMARK    2  A    between atoms: N_8  and  C_9
REMARK    3  A    between atoms: C_9  and  C_10
REMARK    4  A    between atoms: C_16  and  N_17
REMARK    5  A    between atoms: N_17  and  S_18
REMARK    6  A    between atoms: S_18  and  C_19
REMARK    7  A    between atoms: C_22  and  C_23
REMARK                            x       y       z     vdW  Elec       q    Type
REMARK                         _______ _______ _______ _____ _____    ______ ____
ROOT
ATOM      1  C   UNL     1       2.242   3.711  21.387  0.00  0.00    +0.000 C 
ATOM      2  C   UNL     1       2.424   4.708  20.263  0.00  0.00    +0.000 A 
ATOM      3  C   UNL     1       1.813   5.967  20.404  0.00  0.00    +0.000 A 
ATOM      4  C   UNL     1       2.106   6.944  19.452  0.00  0.00    +0.000 A 
ATOM      5  C   UNL     1       2.937   6.708  18.361  0.00  0.00    +0.000 A 
ATOM      6  N   UNL     1       3.103   7.857  17.616  0.00  0.00    +0.000 NA
ATOM      7  C   UNL     1       2.384   8.771  18.227  0.00  0.00    +0.000 A 
ATOM      8  N   UNL     1       1.791   8.278  19.358  0.00  0.00    +0.000 N 
ATOM      9  C   UNL     1       3.530   5.435  18.203  0.00  0.00    +0.000 A 
ATOM     10  C   UNL     1       3.250   4.419  19.149  0.00  0.00    +0.000 A 
ATOM     11  C   UNL     1       3.874   3.050  19.026  0.00  0.00    +0.000 C 
ENDROOT
BRANCH   9  12
ATOM     12  N   UNL     1       4.552   5.245  17.213  0.00  0.00    +0.000 N 
ATOM     13  H   UNL     1       4.543   4.306  16.819  0.00  0.00    +0.000 HD
BRANCH  12  14
ATOM     14  S   UNL     1       6.120   5.751  17.535  0.00  0.00    +0.000 S 
ATOM     15  C   UNL     1       7.147   4.527  16.742  0.00  0.00    +0.000 C 
ATOM     16  O   UNL     1       6.289   6.973  16.772  0.00  0.00    +0.000 OA
ATOM     17  O   UNL     1       6.364   5.727  18.959  0.00  0.00    +0.000 OA
ENDBRANCH  12  14
ENDBRANCH   9  12
BRANCH   8  18
ATOM     18  C   UNL     1       1.109   9.078  20.362  0.00  0.00    +0.000 C 
BRANCH  18  19
ATOM     19  C   UNL     1       0.383  10.236  19.734  0.00  0.00    +0.000 A 
ATOM     20  C   UNL     1      -0.819  10.034  19.035  0.00  0.00    +0.000 A 
ATOM     21  C   UNL     1      -1.436  11.094  18.375  0.00  0.00    +0.000 A 
ATOM     22  C   UNL     1      -0.868  12.364  18.413  0.00  0.00    +0.000 A 
ATOM     23  C   UNL     1       0.305  12.584  19.131  0.00  0.00    +0.000 A 
ATOM     24  C   UNL     1       0.925  11.527  19.795  0.00  0.00    +0.000 A 
ENDBRANCH  18  19
ENDBRANCH   8  18
TORSDOF 4
ENDMDL
MODEL 8
REMARK VINA RESULT:      -6.9      4.100      7.134
REMARK  Name = 
REMARK  7 active torsions:
REMARK  status: ('A' for Active; 'I' for Inactive)
REMARK    1  A    between atoms: C_1  and  C_2
REMARK    2  A    between atoms: N_8  and  C_9
REMARK    3  A    between atoms: C_9  and  C_10
REMARK    4  A    between atoms: C_16  and  N_17
REMARK    5  A    between atoms: N_17  and  S_18
REMARK    6  A    between atoms: S_18  and  C_19
REMARK    7  A    between atoms: C_22  and  C_23
REMARK                            x       y       z     vdW  Elec       q    Type
REMARK                         _______ _______ _______ _____ _____    ______ ____
ROOT
ATOM      1  C   UNL     1       2.192   3.556  21.734  0.00  0.00    +0.000 C 
ATOM      2  C   UNL     1       2.465   4.499  20.583  0.00  0.00    +0.000 A 
ATOM      3  C   UNL     1       1.821   5.749  20.599  0.00  0.00    +0.000 A 
ATOM      4  C   UNL     1       2.188   6.684  19.629  0.00  0.00    +0.000 A 
ATOM      5  C   UNL     1       3.123   6.412  18.637  0.00  0.00    +0.000 A 
ATOM      6  N   UNL     1       3.341   7.526  17.852  0.00  0.00    +0.000 NA
ATOM      7  C   UNL     1       2.551   8.453  18.344  0.00  0.00    +0.000 A 
ATOM      8  N   UNL     1       1.861   8.004  19.437  0.00  0.00    +0.000 N 
ATOM      9  C   UNL     1       3.751   5.146  18.602  0.00  0.00    +0.000 A 
ATOM     10  C   UNL     1       3.399   4.173  19.568  0.00  0.00    +0.000 A 
ATOM     11  C   UNL     1       4.055   2.813  19.577  0.00  0.00    +0.000 C 
ENDROOT
BRANCH   9  12
ATOM     12  N   UNL     1       4.866   4.930  17.725  0.00  0.00    +0.000 N 
ATOM     13  H   UNL     1       4.838   4.016  17.276  0.00  0.00    +0.000 HD
BRANCH  12  14
ATOM     14  S   UNL     1       6.418   5.296  18.253  0.00  0.00    +0.000 S 
ATOM     15  C   UNL     1       6.787   6.859  17.476  0.00  0.00    +0.000 C 
ATOM     16  O   UNL     1       6.281   5.574  19.670  0.00  0.00    +0.000 OA
ATOM     17  O   UNL     1       7.349   4.297  17.779  0.00  0.00    +0.000 OA
ENDBRANCH  12  14
ENDBRANCH   9  12
BRANCH   8  18
ATOM     18  C   UNL     1       1.071   8.839  20.329  0.00  0.00    +0.000 C 
BRANCH  18  19
ATOM     19  C   UNL     1       0.558  10.061  19.619  0.00  0.00    +0.000 A 
ATOM     20  C   UNL     1       1.141  11.319  19.846  0.00  0.00    +0.000 A 
ATOM     21  C   UNL     1       0.601  12.461  19.260  0.00  0.00    +0.000 A 
ATOM     22  C   UNL     1      -0.516  12.360  18.435  0.00  0.00    +0.000 A 
ATOM     23  C   UNL     1      -1.082  11.115  18.175  0.00  0.00    +0.000 A 
ATOM     24  C   UNL     1      -0.545   9.969  18.758  0.00  0.00    +0.000 A 
ENDBRANCH  18  19
ENDBRANCH   8  18
TORSDOF 4
ENDMDL
MODEL 9
REMARK VINA RESULT:      -6.9      0.821      1.212
REMARK  Name = 
REMARK  7 active torsions:
REMARK  status: ('A' for Active; 'I' for Inactive)
REMARK    1  A    between atoms: C_1  and  C_2
REMARK    2  A    between atoms: N_8  and  C_9
REMARK    3  A    between atoms: C_9  and  C_10
REMARK    4  A    between atoms: C_16  and  N_17
REMARK    5  A    between atoms: N_17  and  S_18
REMARK    6  A    between atoms: S_18  and  C_19
REMARK    7  A    between atoms: C_22  and  C_23
REMARK                            x       y       z     vdW  Elec       q    Type
REMARK                         _______ _______ _______ _____ _____    ______ ____
ROOT
ATOM      1  C   UNL     1      -0.512   9.992  22.866  0.00  0.00    +0.000 C 
ATOM      2  C   UNL     1       0.001   9.968  21.443  0.00  0.00    +0.000 A 
ATOM      3  C   UNL     1       0.979   9.010  21.119  0.00  0.00    +0.000 A 
ATOM      4  C   UNL     1       1.340   8.875  19.778  0.00  0.00    +0.000 A 
ATOM      5  C   UNL     1       0.807   9.671  18.770  0.00  0.00    +0.000 A 
ATOM      6  N   UNL     1       1.290   9.286  17.536  0.00  0.00    +0.000 NA
ATOM      7  C   UNL     1       2.107   8.288  17.783  0.00  0.00    +0.000 A 
ATOM      8  N   UNL     1       2.145   7.980  19.116  0.00  0.00    +0.000 N 
ATOM      9  C   UNL     1      -0.155  10.654  19.097  0.00  0.00    +0.000 A 
ATOM     10  C   UNL     1      -0.542  10.820  20.449  0.00  0.00    +0.000 A 
ATOM     11  C   UNL     1      -1.576  11.847  20.841  0.00  0.00    +0.000 C 
ENDROOT
BRANCH   9  12
ATOM     12  N   UNL     1      -0.868  11.327  18.049  0.00  0.00    +0.000 N 
ATOM     13  H   UNL     1      -0.980  12.323  18.231  0.00  0.00    +0.000 HD
BRANCH  12  14
ATOM     14  S   UNL     1      -2.287  10.658  17.451  0.00  0.00    +0.000 S 
ATOM     15  C   UNL     1      -3.564  11.777  17.999  0.00  0.00    +0.000 C 
ATOM     16  O   UNL     1      -2.204  10.815  16.012  0.00  0.00    +0.000 OA
ATOM     17  O   UNL     1      -2.508   9.358  18.043  0.00  0.00    +0.000 OA
ENDBRANCH  12  14
ENDBRANCH   9  12
BRANCH   8  18
ATOM     18  C   UNL     1       2.783   6.803  19.685  0.00  0.00    +0.000 C 
BRANCH  18  19
ATOM     19  C   UNL     1       2.746   5.646  18.726  0.00  0.00    +0.000 A 
ATOM     20  C   UNL     1       1.613   4.818  18.646  0.00  0.00    +0.000 A 
ATOM     21  C   UNL     1       1.620   3.693  17.826  0.00  0.00    +0.000 A 
ATOM     22  C   UNL     1       2.750   3.386  17.072  0.00  0.00    +0.000 A 
ATOM     23  C   UNL     1       3.866   4.218  17.117  0.00  0.00    +0.000 A 
ATOM     24  C   UNL     1       3.863   5.347  17.935  0.00  0.00    +0.000 A 
ENDBRANCH  18  19
ENDBRANCH   8  18
TORSDOF 4
ENDMDL
