MODEL 1
REMARK VINA RESULT:      -9.5      0.000      0.000
REMARK  Name = 
REMARK  3 active torsions:
REMARK  status: ('A' for Active; 'I' for Inactive)
REMARK    1  A    between atoms: C_13  and  C_14
REMARK    2  A    between atoms: N_17  and  C_18
REMARK    3  A    between atoms: C_18  and  C_19
REMARK                            x       y       z     vdW  Elec       q    Type
REMARK                         _______ _______ _______ _____ _____    ______ ____
ROOT
ATOM      1  O   UNL     1       4.019   6.826  16.588  0.00  0.00    +0.000 OA
ATOM      2  C   UNL     1       3.829   6.213  17.632  0.00  0.00    +0.000 C 
ATOM      3  N   UNL     1       3.481   6.870  18.779  0.00  0.00    +0.000 N 
ATOM      4  C   UNL     1       2.515   6.411  19.637  0.00  0.00    +0.000 C 
ATOM      5  O   UNL     1       1.901   7.182  20.364  0.00  0.00    +0.000 OA
ATOM      6  C   UNL     1       2.198   4.965  19.590  0.00  0.00    +0.000 A 
ATOM      7  C   UNL     1       1.195   4.477  20.440  0.00  0.00    +0.000 A 
ATOM      8  C   UNL     1       0.862   3.127  20.421  0.00  0.00    +0.000 A 
ATOM      9  C   UNL     1       1.525   2.269  19.549  0.00  0.00    +0.000 A 
ATOM     10  C   UNL     1       2.516   2.758  18.689  0.00  0.00    +0.000 A 
ATOM     11  C   UNL     1       2.876   4.117  18.696  0.00  0.00    +0.000 A 
ATOM     12  C   UNL     1       3.868   4.722  17.766  0.00  0.00    +0.000 C 
ATOM     13  C   UNL     1       4.776   3.993  17.080  0.00  0.00    +0.000 C 
ATOM     14  H   UNL     1       3.494   7.876  18.699  0.00  0.00    +0.000 HD
ENDROOT
BRANCH  13  15
ATOM     15  C   UNL     1       5.804   4.422  16.185  0.00  0.00    +0.000 A 
ATOM     16  C   UNL     1       6.898   5.297  16.360  0.00  0.00    +0.000 A 
ATOM     17  N   UNL     1       7.627   5.436  15.249  0.00  0.00    +0.000 NA
ATOM     18  N   UNL     1       6.940   4.722  14.333  0.00  0.00    +0.000 N 
ATOM     19  C   UNL     1       5.913   3.997  14.879  0.00  0.00    +0.000 A 
BRANCH  18  20
ATOM     20  C   UNL     1       7.246   4.862  12.913  0.00  0.00    +0.000 C 
BRANCH  20  21
ATOM     21  C   UNL     1       6.708   3.675  12.145  0.00  0.00    +0.000 A 
ATOM     22  C   UNL     1       5.322   3.510  11.982  0.00  0.00    +0.000 A 
ATOM     23  C   UNL     1       4.807   2.349  11.409  0.00  0.00    +0.000 A 
ATOM     24  C   UNL     1       5.671   1.350  10.967  0.00  0.00    +0.000 A 
ATOM     25  C   UNL     1       7.049   1.525  11.074  0.00  0.00    +0.000 A 
ATOM     26  C   UNL     1       7.569   2.683  11.656  0.00  0.00    +0.000 A 
ENDBRANCH  20  21
ENDBRANCH  18  20
ENDBRANCH  13  15
TORSDOF 3
ENDMDL
MODEL 2
REMARK VINA RESULT:      -9.1      0.384      1.028
REMARK  Name = 
REMARK  3 active torsions:
REMARK  status: ('A' for Active; 'I' for Inactive)
REMARK    1  A    between atoms: C_13  and  C_14
REMARK    2  A    between atoms: N_17  and  C_18
REMARK    3  A    between atoms: C_18  and  C_19
REMARK                            x       y       z     vdW  Elec       q    Type
REMARK                         _______ _______ _______ _____ _____    ______ ____
ROOT
ATOM      1  O   UNL     1       3.904   6.737  16.669  0.00  0.00    +0.000 OA
ATOM      2  C   UNL     1       3.761   6.195  17.759  0.00  0.00    +0.000 C 
ATOM      3  N   UNL     1       3.375   6.914  18.856  0.00  0.00    +0.000 N 
ATOM      4  C   UNL     1       2.447   6.460  19.757  0.00  0.00    +0.000 C 
ATOM      5  O   UNL     1       1.786   7.242  20.429  0.00  0.00    +0.000 OA
ATOM      6  C   UNL     1       2.227   4.996  19.824  0.00  0.00    +0.000 A 
ATOM      7  C   UNL     1       1.263   4.510  20.719  0.00  0.00    +0.000 A 
ATOM      8  C   UNL     1       1.021   3.143  20.806  0.00  0.00    +0.000 A 
ATOM      9  C   UNL     1       1.735   2.267  19.996  0.00  0.00    +0.000 A 
ATOM     10  C   UNL     1       2.687   2.752  19.091  0.00  0.00    +0.000 A 
ATOM     11  C   UNL     1       2.955   4.129  18.991  0.00  0.00    +0.000 A 
ATOM     12  C   UNL     1       3.900   4.725  18.007  0.00  0.00    +0.000 C 
ATOM     13  C   UNL     1       4.850   4.007  17.369  0.00  0.00    +0.000 C 
ATOM     14  H   UNL     1       3.320   7.910  18.700  0.00  0.00    +0.000 HD
ENDROOT
BRANCH  13  15
ATOM     15  C   UNL     1       5.843   4.433  16.433  0.00  0.00    +0.000 A 
ATOM     16  C   UNL     1       6.873   5.393  16.527  0.00  0.00    +0.000 A 
ATOM     17  N   UNL     1       7.587   5.493  15.402  0.00  0.00    +0.000 NA
ATOM     18  N   UNL     1       6.949   4.660  14.553  0.00  0.00    +0.000 N 
ATOM     19  C   UNL     1       5.978   3.912  15.165  0.00  0.00    +0.000 A 
BRANCH  18  20
ATOM     20  C   UNL     1       7.240   4.706  13.123  0.00  0.00    +0.000 C 
BRANCH  20  21
ATOM     21  C   UNL     1       6.440   3.649  12.396  0.00  0.00    +0.000 A 
ATOM     22  C   UNL     1       7.080   2.513  11.874  0.00  0.00    +0.000 A 
ATOM     23  C   UNL     1       6.384   1.607  11.076  0.00  0.00    +0.000 A 
ATOM     24  C   UNL     1       5.032   1.811  10.811  0.00  0.00    +0.000 A 
ATOM     25  C   UNL     1       4.371   2.905  11.368  0.00  0.00    +0.000 A 
ATOM     26  C   UNL     1       5.068   3.820  12.161  0.00  0.00    +0.000 A 
ENDBRANCH  20  21
ENDBRANCH  18  20
ENDBRANCH  13  15
TORSDOF 3
ENDMDL
MODEL 3
REMARK VINA RESULT:      -9.0      2.191      2.661
REMARK  Name = 
REMARK  3 active torsions:
REMARK  status: ('A' for Active; 'I' for Inactive)
REMARK    1  A    between atoms: C_13  and  C_14
REMARK    2  A    between atoms: N_17  and  C_18
REMARK    3  A    between atoms: C_18  and  C_19
REMARK                            x       y       z     vdW  Elec       q    Type
REMARK                         _______ _______ _______ _____ _____    ______ ____
ROOT
ATOM      1  O   UNL     1       6.402   4.489  18.804  0.00  0.00    +0.000 OA
ATOM      2  C   UNL     1       5.435   3.758  18.980  0.00  0.00    +0.000 C 
ATOM      3  N   UNL     1       5.539   2.623  19.736  0.00  0.00    +0.000 N 
ATOM      4  C   UNL     1       4.586   2.243  20.645  0.00  0.00    +0.000 C 
ATOM      5  O   UNL     1       4.877   1.538  21.604  0.00  0.00    +0.000 OA
ATOM      6  C   UNL     1       3.219   2.780  20.459  0.00  0.00    +0.000 A 
ATOM      7  C   UNL     1       2.233   2.425  21.392  0.00  0.00    +0.000 A 
ATOM      8  C   UNL     1       0.939   2.915  21.257  0.00  0.00    +0.000 A 
ATOM      9  C   UNL     1       0.632   3.762  20.197  0.00  0.00    +0.000 A 
ATOM     10  C   UNL     1       1.619   4.130  19.273  0.00  0.00    +0.000 A 
ATOM     11  C   UNL     1       2.933   3.641  19.384  0.00  0.00    +0.000 A 
ATOM     12  C   UNL     1       4.049   4.039  18.484  0.00  0.00    +0.000 C 
ATOM     13  C   UNL     1       3.855   4.610  17.275  0.00  0.00    +0.000 C 
ATOM     14  H   UNL     1       6.480   2.412  20.036  0.00  0.00    +0.000 HD
ENDROOT
BRANCH  13  15
ATOM     15  C   UNL     1       4.809   5.016  16.292  0.00  0.00    +0.000 A 
ATOM     16  C   UNL     1       5.190   6.291  15.821  0.00  0.00    +0.000 A 
ATOM     17  N   UNL     1       6.128   6.229  14.872  0.00  0.00    +0.000 NA
ATOM     18  N   UNL     1       6.278   4.904  14.668  0.00  0.00    +0.000 N 
ATOM     19  C   UNL     1       5.601   4.141  15.582  0.00  0.00    +0.000 A 
BRANCH  18  20
ATOM     20  C   UNL     1       7.002   4.419  13.496  0.00  0.00    +0.000 C 
BRANCH  20  21
ATOM     21  C   UNL     1       6.090   3.574  12.635  0.00  0.00    +0.000 A 
ATOM     22  C   UNL     1       6.555   2.366  12.089  0.00  0.00    +0.000 A 
ATOM     23  C   UNL     1       5.780   1.653  11.176  0.00  0.00    +0.000 A 
ATOM     24  C   UNL     1       4.519   2.124  10.818  0.00  0.00    +0.000 A 
ATOM     25  C   UNL     1       4.024   3.292  11.394  0.00  0.00    +0.000 A 
ATOM     26  C   UNL     1       4.802   4.015  12.302  0.00  0.00    +0.000 A 
ENDBRANCH  20  21
ENDBRANCH  18  20
ENDBRANCH  13  15
TORSDOF 3
ENDMDL
MODEL 4
REMARK VINA RESULT:      -8.9      1.933      2.210
REMARK  Name = 
REMARK  3 active torsions:
REMARK  status: ('A' for Active; 'I' for Inactive)
REMARK    1  A    between atoms: C_13  and  C_14
REMARK    2  A    between atoms: N_17  and  C_18
REMARK    3  A    between atoms: C_18  and  C_19
REMARK                            x       y       z     vdW  Elec       q    Type
REMARK                         _______ _______ _______ _____ _____    ______ ____
ROOT
ATOM      1  O   UNL     1       6.360   4.538  18.785  0.00  0.00    +0.000 OA
ATOM      2  C   UNL     1       5.417   3.756  18.803  0.00  0.00    +0.000 C 
ATOM      3  N   UNL     1       5.381   2.717  19.691  0.00  0.00    +0.000 N 
ATOM      4  C   UNL     1       4.249   2.360  20.376  0.00  0.00    +0.000 C 
ATOM      5  O   UNL     1       4.320   1.782  21.454  0.00  0.00    +0.000 OA
ATOM      6  C   UNL     1       2.949   2.767  19.794  0.00  0.00    +0.000 A 
ATOM      7  C   UNL     1       1.777   2.435  20.490  0.00  0.00    +0.000 A 
ATOM      8  C   UNL     1       0.537   2.807  19.982  0.00  0.00    +0.000 A 
ATOM      9  C   UNL     1       0.469   3.514  18.786  0.00  0.00    +0.000 A 
ATOM     10  C   UNL     1       1.639   3.859  18.098  0.00  0.00    +0.000 A 
ATOM     11  C   UNL     1       2.904   3.487  18.587  0.00  0.00    +0.000 A 
ATOM     12  C   UNL     1       4.191   3.876  17.950  0.00  0.00    +0.000 C 
ATOM     13  C   UNL     1       4.283   4.302  16.671  0.00  0.00    +0.000 C 
ATOM     14  H   UNL     1       6.224   2.612  20.238  0.00  0.00    +0.000 HD
ENDROOT
BRANCH  13  15
ATOM     15  C   UNL     1       5.434   4.676  15.913  0.00  0.00    +0.000 A 
ATOM     16  C   UNL     1       6.416   5.670  16.122  0.00  0.00    +0.000 A 
ATOM     17  N   UNL     1       7.335   5.696  15.152  0.00  0.00    +0.000 NA
ATOM     18  N   UNL     1       6.885   4.779  14.271  0.00  0.00    +0.000 N 
ATOM     19  C   UNL     1       5.820   4.057  14.745  0.00  0.00    +0.000 A 
BRANCH  18  20
ATOM     20  C   UNL     1       7.449   4.714  12.926  0.00  0.00    +0.000 C 
BRANCH  20  21
ATOM     21  C   UNL     1       6.812   3.585  12.148  0.00  0.00    +0.000 A 
ATOM     22  C   UNL     1       5.416   3.531  11.999  0.00  0.00    +0.000 A 
ATOM     23  C   UNL     1       4.805   2.422  11.415  0.00  0.00    +0.000 A 
ATOM     24  C   UNL     1       5.583   1.366  10.949  0.00  0.00    +0.000 A 
ATOM     25  C   UNL     1       6.972   1.431  11.041  0.00  0.00    +0.000 A 
ATOM     26  C   UNL     1       7.587   2.536  11.635  0.00  0.00    +0.000 A 
ENDBRANCH  20  21
ENDBRANCH  18  20
ENDBRANCH  13  15
TORSDOF 3
ENDMDL
MODEL 5
REMARK VINA RESULT:      -8.4      3.309      5.737
REMARK  Name = 
REMARK  3 active torsions:
REMARK  status: ('A' for Active; 'I' for Inactive)
REMARK    1  A    between atoms: C_13  and  C_14
REMARK    2  A    between atoms: N_17  and  C_18
REMARK    3  A    between atoms: C_18  and  C_19
REMARK                            x       y       z     vdW  Elec       q    Type
REMARK                         _______ _______ _______ _____ _____    ______ ____
ROOT
ATOM      1  O   UNL     1       1.509   7.959  17.648  0.00  0.00    +0.000 OA
ATOM      2  C   UNL     1       1.631   8.709  18.610  0.00  0.00    +0.000 C 
ATOM      3  N   UNL     1       1.936  10.030  18.437  0.00  0.00    +0.000 N 
ATOM      4  C   UNL     1       1.329  11.035  19.146  0.00  0.00    +0.000 C 
ATOM      5  O   UNL     1       1.253  12.169  18.690  0.00  0.00    +0.000 OA
ATOM      6  C   UNL     1       0.709  10.672  20.441  0.00  0.00    +0.000 A 
ATOM      7  C   UNL     1       0.059  11.677  21.171  0.00  0.00    +0.000 A 
ATOM      8  C   UNL     1      -0.543  11.375  22.388  0.00  0.00    +0.000 A 
ATOM      9  C   UNL     1      -0.502  10.071  22.869  0.00  0.00    +0.000 A 
ATOM     10  C   UNL     1       0.133   9.062  22.133  0.00  0.00    +0.000 A 
ATOM     11  C   UNL     1       0.756   9.345  20.905  0.00  0.00    +0.000 A 
ATOM     12  C   UNL     1       1.390   8.317  20.035  0.00  0.00    +0.000 C 
ATOM     13  C   UNL     1       1.752   7.094  20.482  0.00  0.00    +0.000 C 
ATOM     14  H   UNL     1       2.138  10.286  17.482  0.00  0.00    +0.000 HD
ENDROOT
BRANCH  13  15
ATOM     15  C   UNL     1       2.393   6.020  19.790  0.00  0.00    +0.000 A 
ATOM     16  C   UNL     1       1.897   4.799  19.285  0.00  0.00    +0.000 A 
ATOM     17  N   UNL     1       2.846   4.061  18.702  0.00  0.00    +0.000 NA
ATOM     18  N   UNL     1       3.972   4.771  18.921  0.00  0.00    +0.000 N 
ATOM     19  C   UNL     1       3.729   6.009  19.457  0.00  0.00    +0.000 A 
BRANCH  18  20
ATOM     20  C   UNL     1       5.279   4.161  18.698  0.00  0.00    +0.000 C 
BRANCH  20  21
ATOM     21  C   UNL     1       5.748   4.439  17.287  0.00  0.00    +0.000 A 
ATOM     22  C   UNL     1       4.890   4.208  16.199  0.00  0.00    +0.000 A 
ATOM     23  C   UNL     1       5.355   4.317  14.890  0.00  0.00    +0.000 A 
ATOM     24  C   UNL     1       6.677   4.683  14.651  0.00  0.00    +0.000 A 
ATOM     25  C   UNL     1       7.524   4.968  15.720  0.00  0.00    +0.000 A 
ATOM     26  C   UNL     1       7.064   4.851  17.034  0.00  0.00    +0.000 A 
ENDBRANCH  20  21
ENDBRANCH  18  20
ENDBRANCH  13  15
TORSDOF 3
ENDMDL
MODEL 6
REMARK VINA RESULT:      -8.4      4.198      6.587
REMARK  Name = 
REMARK  3 active torsions:
REMARK  status: ('A' for Active; 'I' for Inactive)
REMARK    1  A    between atoms: C_13  and  C_14
REMARK    2  A    between atoms: N_17  and  C_18
REMARK    3  A    between atoms: C_18  and  C_19
REMARK                            x       y       z     vdW  Elec       q    Type
REMARK                         _______ _______ _______ _____ _____    ______ ____
ROOT
ATOM      1  O   UNL     1       1.428   8.016  17.853  0.00  0.00    +0.000 OA
ATOM      2  C   UNL     1       1.520   8.751  18.828  0.00  0.00    +0.000 C 
ATOM      3  N   UNL     1       1.829  10.075  18.684  0.00  0.00    +0.000 N 
ATOM      4  C   UNL     1       1.200  11.069  19.388  0.00  0.00    +0.000 C 
ATOM      5  O   UNL     1       1.137  12.210  18.947  0.00  0.00    +0.000 OA
ATOM      6  C   UNL     1       0.542  10.687  20.659  0.00  0.00    +0.000 A 
ATOM      7  C   UNL     1      -0.131  11.681  21.384  0.00  0.00    +0.000 A 
ATOM      8  C   UNL     1      -0.769  11.361  22.577  0.00  0.00    +0.000 A 
ATOM      9  C   UNL     1      -0.741  10.050  23.041  0.00  0.00    +0.000 A 
ATOM     10  C   UNL     1      -0.083   9.053  22.310  0.00  0.00    +0.000 A 
ATOM     11  C   UNL     1       0.577   9.354  21.105  0.00  0.00    +0.000 A 
ATOM     12  C   UNL     1       1.237   8.338  20.240  0.00  0.00    +0.000 C 
ATOM     13  C   UNL     1       1.587   7.110  20.680  0.00  0.00    +0.000 C 
ATOM     14  H   UNL     1       2.060  10.345  17.739  0.00  0.00    +0.000 HD
ENDROOT
BRANCH  13  15
ATOM     15  C   UNL     1       2.249   6.046  19.992  0.00  0.00    +0.000 A 
ATOM     16  C   UNL     1       1.777   4.815  19.488  0.00  0.00    +0.000 A 
ATOM     17  N   UNL     1       2.741   4.093  18.910  0.00  0.00    +0.000 NA
ATOM     18  N   UNL     1       3.853   4.824  19.131  0.00  0.00    +0.000 N 
ATOM     19  C   UNL     1       3.586   6.058  19.663  0.00  0.00    +0.000 A 
BRANCH  18  20
ATOM     20  C   UNL     1       5.172   4.237  18.913  0.00  0.00    +0.000 C 
BRANCH  20  21
ATOM     21  C   UNL     1       6.138   5.295  18.429  0.00  0.00    +0.000 A 
ATOM     22  C   UNL     1       7.304   5.575  19.161  0.00  0.00    +0.000 A 
ATOM     23  C   UNL     1       8.125   6.645  18.810  0.00  0.00    +0.000 A 
ATOM     24  C   UNL     1       7.806   7.432  17.707  0.00  0.00    +0.000 A 
ATOM     25  C   UNL     1       6.682   7.132  16.939  0.00  0.00    +0.000 A 
ATOM     26  C   UNL     1       5.851   6.067  17.294  0.00  0.00    +0.000 A 
ENDBRANCH  20  21
ENDBRANCH  18  20
ENDBRANCH  13  15
TORSDOF 3
ENDMDL
MODEL 7
REMARK VINA RESULT:      -8.4      1.728      2.609
REMARK  Name = 
REMARK  3 active torsions:
REMARK  status: ('A' for Active; 'I' for Inactive)
REMARK    1  A    between atoms: C_13  and  C_14
REMARK    2  A    between atoms: N_17  and  C_18
REMARK    3  A    between atoms: C_18  and  C_19
REMARK                            x       y       z     vdW  Elec       q    Type
REMARK                         _______ _______ _______ _____ _____    ______ ____
ROOT
ATOM      1  O   UNL     1       5.909   3.709  18.714  0.00  0.00    +0.000 OA
ATOM      2  C   UNL     1       4.737   4.066  18.764  0.00  0.00    +0.000 C 
ATOM      3  N   UNL     1       3.785   3.274  19.342  0.00  0.00    +0.000 N 
ATOM      4  C   UNL     1       2.809   3.765  20.170  0.00  0.00    +0.000 C 
ATOM      5  O   UNL     1       2.284   3.051  21.016  0.00  0.00    +0.000 OA
ATOM      6  C   UNL     1       2.476   5.203  20.048  0.00  0.00    +0.000 A 
ATOM      7  C   UNL     1       1.499   5.733  20.902  0.00  0.00    +0.000 A 
ATOM      8  C   UNL     1       1.163   7.081  20.824  0.00  0.00    +0.000 A 
ATOM      9  C   UNL     1       1.807   7.896  19.899  0.00  0.00    +0.000 A 
ATOM     10  C   UNL     1       2.794   7.371  19.056  0.00  0.00    +0.000 A 
ATOM     11  C   UNL     1       3.145   6.010  19.110  0.00  0.00    +0.000 A 
ATOM     12  C   UNL     1       4.228   5.395  18.297  0.00  0.00    +0.000 C 
ATOM     13  C   UNL     1       4.734   5.972  17.184  0.00  0.00    +0.000 C 
ATOM     14  H   UNL     1       4.119   2.363  19.621  0.00  0.00    +0.000 HD
ENDROOT
BRANCH  13  15
ATOM     15  C   UNL     1       5.740   5.500  16.286  0.00  0.00    +0.000 A 
ATOM     16  C   UNL     1       7.088   5.134  16.493  0.00  0.00    +0.000 A 
ATOM     17  N   UNL     1       7.695   4.749  15.366  0.00  0.00    +0.000 NA
ATOM     18  N   UNL     1       6.757   4.962  14.419  0.00  0.00    +0.000 N 
ATOM     19  C   UNL     1       5.534   5.291  14.941  0.00  0.00    +0.000 A 
BRANCH  18  20
ATOM     20  C   UNL     1       7.125   4.945  13.007  0.00  0.00    +0.000 C 
BRANCH  20  21
ATOM     21  C   UNL     1       6.631   3.672  12.357  0.00  0.00    +0.000 A 
ATOM     22  C   UNL     1       7.549   2.726  11.869  0.00  0.00    +0.000 A 
ATOM     23  C   UNL     1       7.113   1.623  11.137  0.00  0.00    +0.000 A 
ATOM     24  C   UNL     1       5.752   1.436  10.907  0.00  0.00    +0.000 A 
ATOM     25  C   UNL     1       4.827   2.337  11.432  0.00  0.00    +0.000 A 
ATOM     26  C   UNL     1       5.262   3.449  12.157  0.00  0.00    +0.000 A 
ENDBRANCH  20  21
ENDBRANCH  18  20
ENDBRANCH  13  15
TORSDOF 3
ENDMDL
MODEL 8
REMARK VINA RESULT:      -8.3      1.836      2.380
REMARK  Name = 
REMARK  3 active torsions:
REMARK  status: ('A' for Active; 'I' for Inactive)
REMARK    1  A    between atoms: C_13  and  C_14
REMARK    2  A    between atoms: N_17  and  C_18
REMARK    3  A    between atoms: C_18  and  C_19
REMARK                            x       y       z     vdW  Elec       q    Type
REMARK                         _______ _______ _______ _____ _____    ______ ____
ROOT
ATOM      1  O   UNL     1       4.835   2.451  17.252  0.00  0.00    +0.000 OA
ATOM      2  C   UNL     1       3.847   3.145  17.464  0.00  0.00    +0.000 C 
ATOM      3  N   UNL     1       2.591   2.605  17.445  0.00  0.00    +0.000 N 
ATOM      4  C   UNL     1       1.632   2.916  18.373  0.00  0.00    +0.000 C 
ATOM      5  O   UNL     1       0.727   2.131  18.631  0.00  0.00    +0.000 OA
ATOM      6  C   UNL     1       1.780   4.200  19.097  0.00  0.00    +0.000 A 
ATOM      7  C   UNL     1       0.825   4.527  20.071  0.00  0.00    +0.000 A 
ATOM      8  C   UNL     1       0.933   5.719  20.778  0.00  0.00    +0.000 A 
ATOM      9  C   UNL     1       1.996   6.578  20.519  0.00  0.00    +0.000 A 
ATOM     10  C   UNL     1       2.960   6.244  19.558  0.00  0.00    +0.000 A 
ATOM     11  C   UNL     1       2.867   5.049  18.824  0.00  0.00    +0.000 A 
ATOM     12  C   UNL     1       3.886   4.595  17.839  0.00  0.00    +0.000 C 
ATOM     13  C   UNL     1       4.797   5.424  17.284  0.00  0.00    +0.000 C 
ATOM     14  H   UNL     1       2.562   1.639  17.153  0.00  0.00    +0.000 HD
ENDROOT
BRANCH  13  15
ATOM     15  C   UNL     1       5.807   5.152  16.311  0.00  0.00    +0.000 A 
ATOM     16  C   UNL     1       7.197   4.934  16.434  0.00  0.00    +0.000 A 
ATOM     17  N   UNL     1       7.789   4.719  15.255  0.00  0.00    +0.000 NA
ATOM     18  N   UNL     1       6.789   4.897  14.367  0.00  0.00    +0.000 N 
ATOM     19  C   UNL     1       5.562   5.033  14.961  0.00  0.00    +0.000 A 
BRANCH  18  20
ATOM     20  C   UNL     1       7.088   5.042  12.945  0.00  0.00    +0.000 C 
BRANCH  20  21
ATOM     21  C   UNL     1       6.622   3.819  12.188  0.00  0.00    +0.000 A 
ATOM     22  C   UNL     1       5.248   3.579  12.013  0.00  0.00    +0.000 A 
ATOM     23  C   UNL     1       4.801   2.385  11.450  0.00  0.00    +0.000 A 
ATOM     24  C   UNL     1       5.721   1.427  11.031  0.00  0.00    +0.000 A 
ATOM     25  C   UNL     1       7.087   1.676  11.149  0.00  0.00    +0.000 A 
ATOM     26  C   UNL     1       7.539   2.867  11.722  0.00  0.00    +0.000 A 
ENDBRANCH  20  21
ENDBRANCH  18  20
ENDBRANCH  13  15
TORSDOF 3
ENDMDL
MODEL 9
REMARK VINA RESULT:      -8.2      3.902      6.502
REMARK  Name = 
REMARK  3 active torsions:
REMARK  status: ('A' for Active; 'I' for Inactive)
REMARK    1  A    between atoms: C_13  and  C_14
REMARK    2  A    between atoms: N_17  and  C_18
REMARK    3  A    between atoms: C_18  and  C_19
REMARK                            x       y       z     vdW  Elec       q    Type
REMARK                         _______ _______ _______ _____ _____    ______ ____
ROOT
ATOM      1  O   UNL     1       1.060   8.771  17.289  0.00  0.00    +0.000 OA
ATOM      2  C   UNL     1       1.248   9.393  18.328  0.00  0.00    +0.000 C 
ATOM      3  N   UNL     1       1.369  10.755  18.319  0.00  0.00    +0.000 N 
ATOM      4  C   UNL     1       0.772  11.563  19.252  0.00  0.00    +0.000 C 
ATOM      5  O   UNL     1       0.496  12.728  18.992  0.00  0.00    +0.000 OA
ATOM      6  C   UNL     1       0.411  10.947  20.550  0.00  0.00    +0.000 A 
ATOM      7  C   UNL     1      -0.225  11.748  21.510  0.00  0.00    +0.000 A 
ATOM      8  C   UNL     1      -0.588  11.205  22.739  0.00  0.00    +0.000 A 
ATOM      9  C   UNL     1      -0.322   9.866  23.003  0.00  0.00    +0.000 A 
ATOM     10  C   UNL     1       0.299   9.061  22.039  0.00  0.00    +0.000 A 
ATOM     11  C   UNL     1       0.682   9.589  20.793  0.00  0.00    +0.000 A 
ATOM     12  C   UNL     1       1.282   8.783  19.695  0.00  0.00    +0.000 C 
ATOM     13  C   UNL     1       1.848   7.572  19.894  0.00  0.00    +0.000 C 
ATOM     14  H   UNL     1       1.386  11.162  17.396  0.00  0.00    +0.000 HD
ENDROOT
BRANCH  13  15
ATOM     15  C   UNL     1       2.488   6.698  18.961  0.00  0.00    +0.000 A 
ATOM     16  C   UNL     1       2.395   5.304  18.763  0.00  0.00    +0.000 A 
ATOM     17  N   UNL     1       3.181   4.872  17.772  0.00  0.00    +0.000 NA
ATOM     18  N   UNL     1       3.852   5.982  17.400  0.00  0.00    +0.000 N 
ATOM     19  C   UNL     1       3.378   7.120  17.999  0.00  0.00    +0.000 A 
BRANCH  18  20
ATOM     20  C   UNL     1       5.027   5.875  16.541  0.00  0.00    +0.000 C 
BRANCH  20  21
ATOM     21  C   UNL     1       6.265   6.299  17.300  0.00  0.00    +0.000 A 
ATOM     22  C   UNL     1       6.804   5.464  18.293  0.00  0.00    +0.000 A 
ATOM     23  C   UNL     1       7.852   5.904  19.101  0.00  0.00    +0.000 A 
ATOM     24  C   UNL     1       8.392   7.172  18.907  0.00  0.00    +0.000 A 
ATOM     25  C   UNL     1       7.904   7.989  17.889  0.00  0.00    +0.000 A 
ATOM     26  C   UNL     1       6.847   7.556  17.084  0.00  0.00    +0.000 A 
ENDBRANCH  20  21
ENDBRANCH  18  20
ENDBRANCH  13  15
TORSDOF 3
ENDMDL
