MODEL 1
REMARK VINA RESULT:      -7.3      0.000      0.000
REMARK  Name = 
REMARK  5 active torsions:
REMARK  status: ('A' for Active; 'I' for Inactive)
REMARK    1  A    between atoms: C_2  and  C_3
REMARK    2  A    between atoms: N_5  and  C_6
REMARK    3  A    between atoms: C_9  and  S_10
REMARK    4  A    between atoms: S_10  and  C_11
REMARK    5  A    between atoms: C_11  and  C_12
REMARK                            x       y       z     vdW  Elec       q    Type
REMARK                         _______ _______ _______ _____ _____    ______ ____
ROOT
ATOM      1  S   UNL     1       7.446   6.987  18.045  0.00  0.00    +0.000 S 
ENDROOT
BRANCH   1   5
ATOM      2  C   UNL     1       5.715   4.540  14.553  0.00  0.00    +0.000 A 
ATOM      3  C   UNL     1       5.194   5.797  14.867  0.00  0.00    +0.000 A 
ATOM      4  C   UNL     1       5.739   6.566  15.899  0.00  0.00    +0.000 A 
ATOM      5  C   UNL     1       6.797   6.074  16.661  0.00  0.00    +0.000 A 
ATOM      6  C   UNL     1       7.329   4.822  16.353  0.00  0.00    +0.000 A 
ATOM      7  C   UNL     1       6.784   4.051  15.310  0.00  0.00    +0.000 A 
BRANCH   2  10
ATOM      8  C   UNL     1       5.843   3.464  12.317  0.00  0.00    +0.000 C 
ATOM      9  O   UNL     1       6.976   3.814  11.998  0.00  0.00    +0.000 OA
ATOM     10  N   UNL     1       5.205   3.737  13.508  0.00  0.00    +0.000 N 
ATOM     11  H   UNL     1       4.318   3.279  13.688  0.00  0.00    +0.000 HD
BRANCH   8  13
ATOM     12  C   UNL     1       3.818   3.064  11.012  0.00  0.00    +0.000 C 
ATOM     13  C   UNL     1       5.031   2.634  11.386  0.00  0.00    +0.000 C 
ENDBRANCH   8  13
ENDBRANCH   2  10
ENDBRANCH   1   5
BRANCH   1  14
ATOM     14  C   UNL     1       7.457   5.704  19.346  0.00  0.00    +0.000 C 
BRANCH  14  15
ATOM     15  C   UNL     1       6.143   4.944  19.391  0.00  0.00    +0.000 C 
ATOM     16  O   UNL     1       6.115   3.724  19.547  0.00  0.00    +0.000 OA
ATOM     17  N   UNL     1       5.023   5.741  19.234  0.00  0.00    +0.000 N 
ATOM     18  C   UNL     1       3.745   5.197  19.119  0.00  0.00    +0.000 A 
ATOM     19  C   UNL     1       3.275   4.244  20.006  0.00  0.00    +0.000 A 
ATOM     20  C   UNL     1       2.013   3.719  19.774  0.00  0.00    +0.000 A 
ATOM     21 CL   UNL     1       1.355   2.558  20.859  0.00  0.00    +0.000 Cl
ATOM     22  C   UNL     1       1.276   4.124  18.669  0.00  0.00    +0.000 A 
ATOM     23  C   UNL     1       1.821   5.101  17.862  0.00  0.00    +0.000 A 
ATOM     24  N   UNL     1       3.020   5.677  18.088  0.00  0.00    +0.000 NA
ATOM     25  H   UNL     1       5.129   6.569  18.664  0.00  0.00    +0.000 HD
ENDBRANCH  14  15
ENDBRANCH   1  14
TORSDOF 5
ENDMDL
MODEL 2
REMARK VINA RESULT:      -7.3      1.274      1.580
REMARK  Name = 
REMARK  5 active torsions:
REMARK  status: ('A' for Active; 'I' for Inactive)
REMARK    1  A    between atoms: C_2  and  C_3
REMARK    2  A    between atoms: N_5  and  C_6
REMARK    3  A    between atoms: C_9  and  S_10
REMARK    4  A    between atoms: S_10  and  C_11
REMARK    5  A    between atoms: C_11  and  C_12
REMARK                            x       y       z     vdW  Elec       q    Type
REMARK                         _______ _______ _______ _____ _____    ______ ____
ROOT
ATOM      1  S   UNL     1       6.167   6.940  17.248  0.00  0.00    +0.000 S 
ENDROOT
BRANCH   1   5
ATOM      2  C   UNL     1       6.343   3.875  13.821  0.00  0.00    +0.000 A 
ATOM      3  C   UNL     1       7.388   4.781  14.018  0.00  0.00    +0.000 A 
ATOM      4  C   UNL     1       7.363   5.688  15.080  0.00  0.00    +0.000 A 
ATOM      5  C   UNL     1       6.273   5.730  15.946  0.00  0.00    +0.000 A 
ATOM      6  C   UNL     1       5.226   4.827  15.762  0.00  0.00    +0.000 A 
ATOM      7  C   UNL     1       5.254   3.909  14.696  0.00  0.00    +0.000 A 
BRANCH   2  10
ATOM      8  C   UNL     1       5.340   2.785  11.825  0.00  0.00    +0.000 C 
ATOM      9  O   UNL     1       4.340   3.489  11.702  0.00  0.00    +0.000 OA
ATOM     10  N   UNL     1       6.334   2.930  12.769  0.00  0.00    +0.000 N 
ATOM     11  H   UNL     1       7.165   2.356  12.676  0.00  0.00    +0.000 HD
BRANCH   8  13
ATOM     12  C   UNL     1       6.614   0.836  11.090  0.00  0.00    +0.000 C 
ATOM     13  C   UNL     1       5.582   1.664  10.877  0.00  0.00    +0.000 C 
ENDBRANCH   8  13
ENDBRANCH   2  10
ENDBRANCH   1   5
BRANCH   1  14
ATOM     14  C   UNL     1       6.641   5.942  18.704  0.00  0.00    +0.000 C 
BRANCH  14  15
ATOM     15  C   UNL     1       5.518   5.016  19.134  0.00  0.00    +0.000 C 
ATOM     16  O   UNL     1       5.752   3.916  19.633  0.00  0.00    +0.000 OA
ATOM     17  N   UNL     1       4.250   5.521  18.906  0.00  0.00    +0.000 N 
ATOM     18  C   UNL     1       3.105   4.754  19.119  0.00  0.00    +0.000 A 
ATOM     19  C   UNL     1       2.907   4.050  20.294  0.00  0.00    +0.000 A 
ATOM     20  C   UNL     1       1.766   3.268  20.388  0.00  0.00    +0.000 A 
ATOM     21 CL   UNL     1       1.441   2.397  21.835  0.00  0.00    +0.000 Cl
ATOM     22  C   UNL     1       0.882   3.182  19.320  0.00  0.00    +0.000 A 
ATOM     23  C   UNL     1       1.155   3.946  18.204  0.00  0.00    +0.000 A 
ATOM     24  N   UNL     1       2.224   4.763  18.098  0.00  0.00    +0.000 NA
ATOM     25  H   UNL     1       4.142   6.140  18.114  0.00  0.00    +0.000 HD
ENDBRANCH  14  15
ENDBRANCH   1  14
TORSDOF 5
ENDMDL
MODEL 3
REMARK VINA RESULT:      -7.2      1.438      2.031
REMARK  Name = 
REMARK  5 active torsions:
REMARK  status: ('A' for Active; 'I' for Inactive)
REMARK    1  A    between atoms: C_2  and  C_3
REMARK    2  A    between atoms: N_5  and  C_6
REMARK    3  A    between atoms: C_9  and  S_10
REMARK    4  A    between atoms: S_10  and  C_11
REMARK    5  A    between atoms: C_11  and  C_12
REMARK                            x       y       z     vdW  Elec       q    Type
REMARK                         _______ _______ _______ _____ _____    ______ ____
ROOT
ATOM      1  S   UNL     1       7.668   6.626  18.010  0.00  0.00    +0.000 S 
ENDROOT
BRANCH   1   5
ATOM      2  C   UNL     1       5.640   4.414  14.522  0.00  0.00    +0.000 A 
ATOM      3  C   UNL     1       6.649   3.796  15.264  0.00  0.00    +0.000 A 
ATOM      4  C   UNL     1       7.243   4.443  16.351  0.00  0.00    +0.000 A 
ATOM      5  C   UNL     1       6.861   5.739  16.694  0.00  0.00    +0.000 A 
ATOM      6  C   UNL     1       5.851   6.363  15.963  0.00  0.00    +0.000 A 
ATOM      7  C   UNL     1       5.249   5.709  14.873  0.00  0.00    +0.000 A 
BRANCH   2  10
ATOM      8  C   UNL     1       5.607   3.430  12.240  0.00  0.00    +0.000 C 
ATOM      9  O   UNL     1       6.801   3.530  11.969  0.00  0.00    +0.000 OA
ATOM     10  N   UNL     1       5.002   3.789  13.426  0.00  0.00    +0.000 N 
ATOM     11  H   UNL     1       4.030   3.536  13.559  0.00  0.00    +0.000 HD
BRANCH   8  13
ATOM     12  C   UNL     1       3.655   3.590  10.782  0.00  0.00    +0.000 C 
ATOM     13  C   UNL     1       4.665   2.843  11.249  0.00  0.00    +0.000 C 
ENDBRANCH   8  13
ENDBRANCH   2  10
ENDBRANCH   1   5
BRANCH   1  14
ATOM     14  C   UNL     1       7.193   5.623  19.462  0.00  0.00    +0.000 C 
BRANCH  14  15
ATOM     15  C   UNL     1       5.725   5.237  19.417  0.00  0.00    +0.000 C 
ATOM     16  O   UNL     1       4.845   6.086  19.281  0.00  0.00    +0.000 OA
ATOM     17  N   UNL     1       5.493   3.880  19.548  0.00  0.00    +0.000 N 
ATOM     18  C   UNL     1       4.203   3.363  19.659  0.00  0.00    +0.000 A 
ATOM     19  C   UNL     1       3.194   3.725  18.783  0.00  0.00    +0.000 A 
ATOM     20  C   UNL     1       1.930   3.203  19.011  0.00  0.00    +0.000 A 
ATOM     21 CL   UNL     1       0.640   3.585  17.939  0.00  0.00    +0.000 Cl
ATOM     22  C   UNL     1       1.697   2.376  20.101  0.00  0.00    +0.000 A 
ATOM     23  C   UNL     1       2.776   2.051  20.897  0.00  0.00    +0.000 A 
ATOM     24  N   UNL     1       4.032   2.491  20.673  0.00  0.00    +0.000 NA
ATOM     25  H   UNL     1       6.154   3.356  20.105  0.00  0.00    +0.000 HD
ENDBRANCH  14  15
ENDBRANCH   1  14
TORSDOF 5
ENDMDL
MODEL 4
REMARK VINA RESULT:      -7.1      3.997      6.838
REMARK  Name = 
REMARK  5 active torsions:
REMARK  status: ('A' for Active; 'I' for Inactive)
REMARK    1  A    between atoms: C_2  and  C_3
REMARK    2  A    between atoms: N_5  and  C_6
REMARK    3  A    between atoms: C_9  and  S_10
REMARK    4  A    between atoms: S_10  and  C_11
REMARK    5  A    between atoms: C_11  and  C_12
REMARK                            x       y       z     vdW  Elec       q    Type
REMARK                         _______ _______ _______ _____ _____    ______ ____
ROOT
ATOM      1  S   UNL     1       1.333   3.214  20.479  0.00  0.00    +0.000 S 
ENDROOT
BRANCH   1   5
ATOM      2  C   UNL     1       2.196   7.471  18.962  0.00  0.00    +0.000 A 
ATOM      3  C   UNL     1       2.089   6.406  18.066  0.00  0.00    +0.000 A 
ATOM      4  C   UNL     1       1.787   5.117  18.512  0.00  0.00    +0.000 A 
ATOM      5  C   UNL     1       1.620   4.863  19.872  0.00  0.00    +0.000 A 
ATOM      6  C   UNL     1       1.720   5.920  20.775  0.00  0.00    +0.000 A 
ATOM      7  C   UNL     1       2.018   7.219  20.325  0.00  0.00    +0.000 A 
BRANCH   2  10
ATOM      8  C   UNL     1       1.560   9.729  18.141  0.00  0.00    +0.000 C 
ATOM      9  O   UNL     1       0.339   9.593  18.126  0.00  0.00    +0.000 OA
ATOM     10  N   UNL     1       2.485   8.793  18.553  0.00  0.00    +0.000 N 
ATOM     11  H   UNL     1       3.453   9.084  18.630  0.00  0.00    +0.000 HD
BRANCH   8  13
ATOM     12  C   UNL     1       2.086  12.083  18.522  0.00  0.00    +0.000 C 
ATOM     13  C   UNL     1       2.170  11.017  17.714  0.00  0.00    +0.000 C 
ENDBRANCH   8  13
ENDBRANCH   2  10
ENDBRANCH   1   5
BRANCH   1  14
ATOM     14  C   UNL     1       3.044   2.596  20.660  0.00  0.00    +0.000 C 
BRANCH  14  15
ATOM     15  C   UNL     1       3.836   2.763  19.375  0.00  0.00    +0.000 C 
ATOM     16  O   UNL     1       3.771   1.931  18.472  0.00  0.00    +0.000 OA
ATOM     17  N   UNL     1       4.614   3.906  19.335  0.00  0.00    +0.000 N 
ATOM     18  C   UNL     1       5.503   4.153  18.290  0.00  0.00    +0.000 A 
ATOM     19  C   UNL     1       5.120   4.042  16.965  0.00  0.00    +0.000 A 
ATOM     20  C   UNL     1       6.091   4.248  15.997  0.00  0.00    +0.000 A 
ATOM     21 CL   UNL     1       5.673   4.161  14.331  0.00  0.00    +0.000 Cl
ATOM     22  C   UNL     1       7.401   4.525  16.364  0.00  0.00    +0.000 A 
ATOM     23  C   UNL     1       7.675   4.644  17.711  0.00  0.00    +0.000 A 
ATOM     24  N   UNL     1       6.745   4.507  18.679  0.00  0.00    +0.000 NA
ATOM     25  H   UNL     1       4.973   4.245  20.217  0.00  0.00    +0.000 HD
ENDBRANCH  14  15
ENDBRANCH   1  14
TORSDOF 5
ENDMDL
MODEL 5
REMARK VINA RESULT:      -7.0      4.676      8.009
REMARK  Name = 
REMARK  5 active torsions:
REMARK  status: ('A' for Active; 'I' for Inactive)
REMARK    1  A    between atoms: C_2  and  C_3
REMARK    2  A    between atoms: N_5  and  C_6
REMARK    3  A    between atoms: C_9  and  S_10
REMARK    4  A    between atoms: S_10  and  C_11
REMARK    5  A    between atoms: C_11  and  C_12
REMARK                            x       y       z     vdW  Elec       q    Type
REMARK                         _______ _______ _______ _____ _____    ______ ____
ROOT
ATOM      1  S   UNL     1       3.621   4.898  18.937  0.00  0.00    +0.000 S 
ENDROOT
BRANCH   1   5
ATOM      2  C   UNL     1       1.457   8.906  19.589  0.00  0.00    +0.000 A 
ATOM      3  C   UNL     1       2.078   8.624  18.370  0.00  0.00    +0.000 A 
ATOM      4  C   UNL     1       2.702   7.394  18.147  0.00  0.00    +0.000 A 
ATOM      5  C   UNL     1       2.748   6.434  19.156  0.00  0.00    +0.000 A 
ATOM      6  C   UNL     1       2.127   6.704  20.376  0.00  0.00    +0.000 A 
ATOM      7  C   UNL     1       1.493   7.939  20.598  0.00  0.00    +0.000 A 
BRANCH   2  10
ATOM      8  C   UNL     1      -0.436  10.501  19.370  0.00  0.00    +0.000 C 
ATOM      9  O   UNL     1      -1.196   9.808  18.697  0.00  0.00    +0.000 OA
ATOM     10  N   UNL     1       0.801  10.131  19.851  0.00  0.00    +0.000 N 
ATOM     11  H   UNL     1       1.266  10.758  20.498  0.00  0.00    +0.000 HD
BRANCH   8  13
ATOM     12  C   UNL     1      -1.904  12.443  19.182  0.00  0.00    +0.000 C 
ATOM     13  C   UNL     1      -0.841  11.876  19.768  0.00  0.00    +0.000 C 
ENDBRANCH   8  13
ENDBRANCH   2  10
ENDBRANCH   1   5
BRANCH   1  14
ATOM     14  C   UNL     1       5.148   5.470  18.111  0.00  0.00    +0.000 C 
BRANCH  14  15
ATOM     15  C   UNL     1       5.364   4.762  16.785  0.00  0.00    +0.000 C 
ATOM     16  O   UNL     1       5.122   3.563  16.654  0.00  0.00    +0.000 OA
ATOM     17  N   UNL     1       5.851   5.579  15.781  0.00  0.00    +0.000 N 
ATOM     18  C   UNL     1       6.230   5.070  14.539  0.00  0.00    +0.000 A 
ATOM     19  C   UNL     1       5.410   4.218  13.819  0.00  0.00    +0.000 A 
ATOM     20  C   UNL     1       5.900   3.717  12.623  0.00  0.00    +0.000 A 
ATOM     21 CL   UNL     1       4.918   2.682  11.662  0.00  0.00    +0.000 Cl
ATOM     22  C   UNL     1       7.179   4.044  12.195  0.00  0.00    +0.000 A 
ATOM     23  C   UNL     1       7.905   4.925  12.970  0.00  0.00    +0.000 A 
ATOM     24  N   UNL     1       7.441   5.479  14.109  0.00  0.00    +0.000 NA
ATOM     25  H   UNL     1       6.443   6.348  16.065  0.00  0.00    +0.000 HD
ENDBRANCH  14  15
ENDBRANCH   1  14
TORSDOF 5
ENDMDL
MODEL 6
REMARK VINA RESULT:      -7.0      3.328      3.905
REMARK  Name = 
REMARK  5 active torsions:
REMARK  status: ('A' for Active; 'I' for Inactive)
REMARK    1  A    between atoms: C_2  and  C_3
REMARK    2  A    between atoms: N_5  and  C_6
REMARK    3  A    between atoms: C_9  and  S_10
REMARK    4  A    between atoms: S_10  and  C_11
REMARK    5  A    between atoms: C_11  and  C_12
REMARK                            x       y       z     vdW  Elec       q    Type
REMARK                         _______ _______ _______ _____ _____    ______ ____
ROOT
ATOM      1  S   UNL     1       4.556   3.788  19.803  0.00  0.00    +0.000 S 
ENDROOT
BRANCH   1   5
ATOM      2  C   UNL     1       6.342   4.873  15.704  0.00  0.00    +0.000 A 
ATOM      3  C   UNL     1       4.986   4.566  15.829  0.00  0.00    +0.000 A 
ATOM      4  C   UNL     1       4.424   4.275  17.075  0.00  0.00    +0.000 A 
ATOM      5  C   UNL     1       5.221   4.252  18.218  0.00  0.00    +0.000 A 
ATOM      6  C   UNL     1       6.576   4.562  18.106  0.00  0.00    +0.000 A 
ATOM      7  C   UNL     1       7.139   4.860  16.852  0.00  0.00    +0.000 A 
BRANCH   2  10
ATOM      8  C   UNL     1       6.833   4.454  13.304  0.00  0.00    +0.000 C 
ATOM      9  O   UNL     1       6.140   3.454  13.137  0.00  0.00    +0.000 OA
ATOM     10  N   UNL     1       6.947   5.188  14.466  0.00  0.00    +0.000 N 
ATOM     11  H   UNL     1       7.458   6.063  14.427  0.00  0.00    +0.000 HD
BRANCH   8  13
ATOM     12  C   UNL     1       8.503   5.995  12.409  0.00  0.00    +0.000 C 
ATOM     13  C   UNL     1       7.632   5.003  12.176  0.00  0.00    +0.000 C 
ENDBRANCH   8  13
ENDBRANCH   2  10
ENDBRANCH   1   5
BRANCH   1  14
ATOM     14  C   UNL     1       2.769   3.703  19.430  0.00  0.00    +0.000 C 
BRANCH  14  15
ATOM     15  C   UNL     1       2.035   4.935  19.929  0.00  0.00    +0.000 C 
ATOM     16  O   UNL     1       0.994   4.841  20.577  0.00  0.00    +0.000 OA
ATOM     17  N   UNL     1       2.639   6.131  19.582  0.00  0.00    +0.000 N 
ATOM     18  C   UNL     1       2.036   7.361  19.844  0.00  0.00    +0.000 A 
ATOM     19  C   UNL     1       1.522   7.670  21.091  0.00  0.00    +0.000 A 
ATOM     20  C   UNL     1       0.888   8.895  21.237  0.00  0.00    +0.000 A 
ATOM     21 CL   UNL     1       0.259   9.356  22.771  0.00  0.00    +0.000 Cl
ATOM     22  C   UNL     1       0.756   9.752  20.153  0.00  0.00    +0.000 A 
ATOM     23  C   UNL     1       1.329   9.363  18.960  0.00  0.00    +0.000 A 
ATOM     24  N   UNL     1       2.004   8.206  18.794  0.00  0.00    +0.000 NA
ATOM     25  H   UNL     1       3.155   6.147  18.713  0.00  0.00    +0.000 HD
ENDBRANCH  14  15
ENDBRANCH   1  14
TORSDOF 5
ENDMDL
MODEL 7
REMARK VINA RESULT:      -6.9      5.062      7.977
REMARK  Name = 
REMARK  5 active torsions:
REMARK  status: ('A' for Active; 'I' for Inactive)
REMARK    1  A    between atoms: C_2  and  C_3
REMARK    2  A    between atoms: N_5  and  C_6
REMARK    3  A    between atoms: C_9  and  S_10
REMARK    4  A    between atoms: S_10  and  C_11
REMARK    5  A    between atoms: C_11  and  C_12
REMARK                            x       y       z     vdW  Elec       q    Type
REMARK                         _______ _______ _______ _____ _____    ______ ____
ROOT
ATOM      1  S   UNL     1       2.434   5.491  20.257  0.00  0.00    +0.000 S 
ENDROOT
BRANCH   1   5
ATOM      2  C   UNL     1       1.058   9.812  19.480  0.00  0.00    +0.000 A 
ATOM      3  C   UNL     1       0.842   9.210  20.722  0.00  0.00    +0.000 A 
ATOM      4  C   UNL     1       1.293   7.914  20.982  0.00  0.00    +0.000 A 
ATOM      5  C   UNL     1       1.938   7.180  19.988  0.00  0.00    +0.000 A 
ATOM      6  C   UNL     1       2.163   7.773  18.746  0.00  0.00    +0.000 A 
ATOM      7  C   UNL     1       1.715   9.080  18.487  0.00  0.00    +0.000 A 
BRANCH   2  10
ATOM      8  C   UNL     1      -0.556  11.470  18.573  0.00  0.00    +0.000 C 
ATOM      9  O   UNL     1      -1.463  10.704  18.256  0.00  0.00    +0.000 OA
ATOM     10  N   UNL     1       0.633  11.127  19.180  0.00  0.00    +0.000 N 
ATOM     11  H   UNL     1       1.237  11.876  19.498  0.00  0.00    +0.000 HD
BRANCH   8  13
ATOM     12  C   UNL     1      -0.748  13.766  19.382  0.00  0.00    +0.000 C 
ATOM     13  C   UNL     1      -0.700  12.931  18.334  0.00  0.00    +0.000 C 
ENDBRANCH   8  13
ENDBRANCH   2  10
ENDBRANCH   1   5
BRANCH   1  14
ATOM     14  C   UNL     1       1.696   4.666  18.803  0.00  0.00    +0.000 C 
BRANCH  14  15
ATOM     15  C   UNL     1       2.754   4.276  17.786  0.00  0.00    +0.000 C 
ATOM     16  O   UNL     1       2.631   3.271  17.089  0.00  0.00    +0.000 OA
ATOM     17  N   UNL     1       3.835   5.139  17.736  0.00  0.00    +0.000 N 
ATOM     18  C   UNL     1       4.957   4.865  16.955  0.00  0.00    +0.000 A 
ATOM     19  C   UNL     1       4.848   4.494  15.627  0.00  0.00    +0.000 A 
ATOM     20  C   UNL     1       6.017   4.184  14.950  0.00  0.00    +0.000 A 
ATOM     21 CL   UNL     1       5.955   3.750  13.286  0.00  0.00    +0.000 Cl
ATOM     22  C   UNL     1       7.240   4.221  15.605  0.00  0.00    +0.000 A 
ATOM     23  C   UNL     1       7.245   4.633  16.922  0.00  0.00    +0.000 A 
ATOM     24  N   UNL     1       6.135   4.998  17.597  0.00  0.00    +0.000 NA
ATOM     25  H   UNL     1       4.084   5.607  18.596  0.00  0.00    +0.000 HD
ENDBRANCH  14  15
ENDBRANCH   1  14
TORSDOF 5
ENDMDL
MODEL 8
REMARK VINA RESULT:      -6.9      5.599      8.145
REMARK  Name = 
REMARK  5 active torsions:
REMARK  status: ('A' for Active; 'I' for Inactive)
REMARK    1  A    between atoms: C_2  and  C_3
REMARK    2  A    between atoms: N_5  and  C_6
REMARK    3  A    between atoms: C_9  and  S_10
REMARK    4  A    between atoms: S_10  and  C_11
REMARK    5  A    between atoms: C_11  and  C_12
REMARK                            x       y       z     vdW  Elec       q    Type
REMARK                         _______ _______ _______ _____ _____    ______ ____
ROOT
ATOM      1  S   UNL     1       7.451   7.385  17.025  0.00  0.00    +0.000 S 
ENDROOT
BRANCH   1   5
ATOM      2  C   UNL     1       3.953   5.033  18.872  0.00  0.00    +0.000 A 
ATOM      3  C   UNL     1       3.719   6.012  17.903  0.00  0.00    +0.000 A 
ATOM      4  C   UNL     1       4.777   6.703  17.307  0.00  0.00    +0.000 A 
ATOM      5  C   UNL     1       6.091   6.451  17.695  0.00  0.00    +0.000 A 
ATOM      6  C   UNL     1       6.337   5.472  18.657  0.00  0.00    +0.000 A 
ATOM      7  C   UNL     1       5.272   4.772  19.253  0.00  0.00    +0.000 A 
BRANCH   2  10
ATOM      8  C   UNL     1       1.823   3.754  18.848  0.00  0.00    +0.000 C 
ATOM      9  O   UNL     1       1.610   3.756  17.638  0.00  0.00    +0.000 OA
ATOM     10  N   UNL     1       2.914   4.300  19.489  0.00  0.00    +0.000 N 
ATOM     11  H   UNL     1       3.024   4.116  20.480  0.00  0.00    +0.000 HD
BRANCH   8  13
ATOM     12  C   UNL     1       1.205   2.915  21.056  0.00  0.00    +0.000 C 
ATOM     13  C   UNL     1       0.866   3.087  19.771  0.00  0.00    +0.000 C 
ENDBRANCH   8  13
ENDBRANCH   2  10
ENDBRANCH   1   5
BRANCH   1  14
ATOM     14  C   UNL     1       8.279   7.955  18.552  0.00  0.00    +0.000 C 
BRANCH  14  15
ATOM     15  C   UNL     1       8.592   9.440  18.495  0.00  0.00    +0.000 C 
ATOM     16  O   UNL     1       8.128  10.157  17.611  0.00  0.00    +0.000 OA
ATOM     17  N   UNL     1       9.431   9.879  19.504  0.00  0.00    +0.000 N 
ATOM     18  C   UNL     1       9.927  11.182  19.531  0.00  0.00    +0.000 A 
ATOM     19  C   UNL     1       9.100  12.280  19.370  0.00  0.00    +0.000 A 
ATOM     20  C   UNL     1       9.694  13.533  19.352  0.00  0.00    +0.000 A 
ATOM     21 CL   UNL     1       8.720  14.941  19.193  0.00  0.00    +0.000 Cl
ATOM     22  C   UNL     1      11.073  13.659  19.461  0.00  0.00    +0.000 A 
ATOM     23  C   UNL     1      11.806  12.504  19.647  0.00  0.00    +0.000 A 
ATOM     24  N   UNL     1      11.257  11.274  19.728  0.00  0.00    +0.000 NA
ATOM     25  H   UNL     1      10.108   9.216  19.856  0.00  0.00    +0.000 HD
ENDBRANCH  14  15
ENDBRANCH   1  14
TORSDOF 5
ENDMDL
MODEL 9
REMARK VINA RESULT:      -6.9      5.063      7.935
REMARK  Name = 
REMARK  5 active torsions:
REMARK  status: ('A' for Active; 'I' for Inactive)
REMARK    1  A    between atoms: C_2  and  C_3
REMARK    2  A    between atoms: N_5  and  C_6
REMARK    3  A    between atoms: C_9  and  S_10
REMARK    4  A    between atoms: S_10  and  C_11
REMARK    5  A    between atoms: C_11  and  C_12
REMARK                            x       y       z     vdW  Elec       q    Type
REMARK                         _______ _______ _______ _____ _____    ______ ____
ROOT
ATOM      1  S   UNL     1       2.597   5.664  20.215  0.00  0.00    +0.000 S 
ENDROOT
BRANCH   1   5
ATOM      2  C   UNL     1       1.127   9.900  19.179  0.00  0.00    +0.000 A 
ATOM      3  C   UNL     1       1.762   9.112  18.216  0.00  0.00    +0.000 A 
ATOM      4  C   UNL     1       2.176   7.810  18.508  0.00  0.00    +0.000 A 
ATOM      5  C   UNL     1       1.992   7.283  19.785  0.00  0.00    +0.000 A 
ATOM      6  C   UNL     1       1.354   8.058  20.753  0.00  0.00    +0.000 A 
ATOM      7  C   UNL     1       0.932   9.366  20.456  0.00  0.00    +0.000 A 
BRANCH   2  10
ATOM      8  C   UNL     1      -0.606  11.575  18.574  0.00  0.00    +0.000 C 
ATOM      9  O   UNL     1      -1.579  10.829  18.499  0.00  0.00    +0.000 OA
ATOM     10  N   UNL     1       0.679  11.216  18.921  0.00  0.00    +0.000 N 
ATOM     11  H   UNL     1       1.357  11.955  19.065  0.00  0.00    +0.000 HD
BRANCH   8  13
ATOM     12  C   UNL     1       0.145  13.888  18.796  0.00  0.00    +0.000 C 
ATOM     13  C   UNL     1      -0.762  13.031  18.308  0.00  0.00    +0.000 C 
ENDBRANCH   8  13
ENDBRANCH   2  10
ENDBRANCH   1   5
BRANCH   1  14
ATOM     14  C   UNL     1       1.841   4.639  18.905  0.00  0.00    +0.000 C 
BRANCH  14  15
ATOM     15  C   UNL     1       2.855   4.257  17.841  0.00  0.00    +0.000 C 
ATOM     16  O   UNL     1       2.708   3.250  17.151  0.00  0.00    +0.000 OA
ATOM     17  N   UNL     1       3.927   5.127  17.743  0.00  0.00    +0.000 N 
ATOM     18  C   UNL     1       5.014   4.860  16.913  0.00  0.00    +0.000 A 
ATOM     19  C   UNL     1       4.849   4.487  15.590  0.00  0.00    +0.000 A 
ATOM     20  C   UNL     1       5.989   4.185  14.862  0.00  0.00    +0.000 A 
ATOM     21 CL   UNL     1       5.855   3.749  13.203  0.00  0.00    +0.000 Cl
ATOM     22  C   UNL     1       7.240   4.231  15.462  0.00  0.00    +0.000 A 
ATOM     23  C   UNL     1       7.301   4.644  16.778  0.00  0.00    +0.000 A 
ATOM     24  N   UNL     1       6.219   5.001  17.502  0.00  0.00    +0.000 NA
ATOM     25  H   UNL     1       4.211   5.597  18.591  0.00  0.00    +0.000 HD
ENDBRANCH  14  15
ENDBRANCH   1  14
TORSDOF 5
ENDMDL
