MODEL 1
REMARK VINA RESULT:      -7.3      0.000      0.000
REMARK  Name = 
REMARK  4 active torsions:
REMARK  status: ('A' for Active; 'I' for Inactive)
REMARK    1  A    between atoms: C_7  and  C_8
REMARK    2  A    between atoms: N_10  and  N_11
REMARK    3  A    between atoms: C_12  and  C_13
REMARK    4  A    between atoms: C_18  and  O_19
REMARK                            x       y       z     vdW  Elec       q    Type
REMARK                         _______ _______ _______ _____ _____    ______ ____
ROOT
ATOM      1  C   UNL     1       4.692   4.618  18.446  0.00  0.00    +0.000 C 
ATOM      2  O   UNL     1       5.089   5.767  18.239  0.00  0.00    +0.000 OA
ATOM      3  N   UNL     1       5.015   3.536  17.636  0.00  0.00    +0.000 N 
ATOM      4  H   UNL     1       4.607   2.615  17.789  0.00  0.00    +0.000 HD
ENDROOT
BRANCH   1  11
ATOM      5  O   UNL     1       4.790   2.147  20.296  0.00  0.00    +0.000 OA
ATOM      6  C   UNL     1       3.803   2.775  19.910  0.00  0.00    +0.000 C 
ATOM      7  N   UNL     1       2.649   2.110  19.604  0.00  0.00    +0.000 N 
ATOM      8  C   UNL     1       1.375   2.734  19.315  0.00  0.00    +0.000 C 
ATOM      9  C   UNL     1       1.534   4.128  18.742  0.00  0.00    +0.000 C 
ATOM     10  C   UNL     1       2.479   4.923  19.635  0.00  0.00    +0.000 C 
ATOM     11  C   UNL     1       3.868   4.270  19.677  0.00  0.00    +0.000 C 
ATOM     12  H   UNL     1       2.666   1.120  19.815  0.00  0.00    +0.000 HD
ENDBRANCH   1  11
BRANCH   3  13
ATOM     13  N   UNL     1       5.808   3.771  16.559  0.00  0.00    +0.000 NA
ATOM     14  C   UNL     1       5.242   3.928  15.406  0.00  0.00    +0.000 C 
BRANCH  14  15
ATOM     15  C   UNL     1       6.080   4.176  14.208  0.00  0.00    +0.000 A 
ATOM     16  C   UNL     1       5.795   3.493  13.018  0.00  0.00    +0.000 A 
ATOM     17  C   UNL     1       6.561   3.720  11.874  0.00  0.00    +0.000 A 
ATOM     18  C   UNL     1       7.614   4.630  11.911  0.00  0.00    +0.000 A 
ATOM     19  C   UNL     1       7.907   5.314  13.094  0.00  0.00    +0.000 A 
ATOM     20  C   UNL     1       7.138   5.089  14.241  0.00  0.00    +0.000 A 
BRANCH  20  21
ATOM     21  O   UNL     1       7.426   5.766  15.392  0.00  0.00    +0.000 OA
ATOM     22  H   UNL     1       6.759   6.463  15.521  0.00  0.00    +0.000 HD
ENDBRANCH  20  21
ENDBRANCH  14  15
ENDBRANCH   3  13
TORSDOF 4
ENDMDL
MODEL 2
REMARK VINA RESULT:      -7.1      6.246      7.395
REMARK  Name = 
REMARK  4 active torsions:
REMARK  status: ('A' for Active; 'I' for Inactive)
REMARK    1  A    between atoms: C_7  and  C_8
REMARK    2  A    between atoms: N_10  and  N_11
REMARK    3  A    between atoms: C_12  and  C_13
REMARK    4  A    between atoms: C_18  and  O_19
REMARK                            x       y       z     vdW  Elec       q    Type
REMARK                         _______ _______ _______ _____ _____    ______ ____
ROOT
ATOM      1  C   UNL     1       7.618   7.026  17.906  0.00  0.00    +0.000 C 
ATOM      2  O   UNL     1       6.904   7.504  17.022  0.00  0.00    +0.000 OA
ATOM      3  N   UNL     1       8.477   7.784  18.694  0.00  0.00    +0.000 N 
ATOM      4  H   UNL     1       9.112   7.348  19.362  0.00  0.00    +0.000 HD
ENDROOT
BRANCH   1  11
ATOM      5  O   UNL     1       7.898   4.504  16.145  0.00  0.00    +0.000 OA
ATOM      6  C   UNL     1       7.137   4.693  17.095  0.00  0.00    +0.000 C 
ATOM      7  N   UNL     1       5.865   4.195  17.058  0.00  0.00    +0.000 N 
ATOM      8  C   UNL     1       4.936   4.190  18.168  0.00  0.00    +0.000 C 
ATOM      9  C   UNL     1       5.201   5.317  19.147  0.00  0.00    +0.000 C 
ATOM     10  C   UNL     1       6.680   5.312  19.514  0.00  0.00    +0.000 C 
ATOM     11  C   UNL     1       7.552   5.551  18.272  0.00  0.00    +0.000 C 
ATOM     12  H   UNL     1       5.668   3.605  16.259  0.00  0.00    +0.000 HD
ENDBRANCH   1  11
BRANCH   3  13
ATOM     13  N   UNL     1       8.528   9.121  18.463  0.00  0.00    +0.000 NA
ATOM     14  C   UNL     1       9.227   9.854  19.269  0.00  0.00    +0.000 C 
BRANCH  14  15
ATOM     15  C   UNL     1       9.294  11.319  19.050  0.00  0.00    +0.000 A 
ATOM     16  C   UNL     1       8.813  11.857  17.848  0.00  0.00    +0.000 A 
ATOM     17  C   UNL     1       8.853  13.233  17.626  0.00  0.00    +0.000 A 
ATOM     18  C   UNL     1       9.374  14.081  18.600  0.00  0.00    +0.000 A 
ATOM     19  C   UNL     1       9.859  13.554  19.800  0.00  0.00    +0.000 A 
ATOM     20  C   UNL     1       9.816  12.174  20.025  0.00  0.00    +0.000 A 
BRANCH  20  21
ATOM     21  O   UNL     1      10.286  11.666  21.204  0.00  0.00    +0.000 OA
ATOM     22  H   UNL     1      10.490  10.724  21.080  0.00  0.00    +0.000 HD
ENDBRANCH  20  21
ENDBRANCH  14  15
ENDBRANCH   3  13
TORSDOF 4
ENDMDL
MODEL 3
REMARK VINA RESULT:      -7.0      1.748      2.239
REMARK  Name = 
REMARK  4 active torsions:
REMARK  status: ('A' for Active; 'I' for Inactive)
REMARK    1  A    between atoms: C_7  and  C_8
REMARK    2  A    between atoms: N_10  and  N_11
REMARK    3  A    between atoms: C_12  and  C_13
REMARK    4  A    between atoms: C_18  and  O_19
REMARK                            x       y       z     vdW  Elec       q    Type
REMARK                         _______ _______ _______ _____ _____    ______ ____
ROOT
ATOM      1  C   UNL     1       2.544   3.947  17.807  0.00  0.00    +0.000 C 
ATOM      2  O   UNL     1       2.127   3.218  16.904  0.00  0.00    +0.000 OA
ATOM      3  N   UNL     1       3.830   4.474  17.838  0.00  0.00    +0.000 N 
ATOM      4  H   UNL     1       4.169   5.007  18.637  0.00  0.00    +0.000 HD
ENDROOT
BRANCH   1  11
ATOM      5  O   UNL     1       2.757   6.392  19.682  0.00  0.00    +0.000 OA
ATOM      6  C   UNL     1       2.385   5.250  19.954  0.00  0.00    +0.000 C 
ATOM      7  N   UNL     1       2.719   4.693  21.157  0.00  0.00    +0.000 N 
ATOM      8  C   UNL     1       2.202   3.443  21.671  0.00  0.00    +0.000 C 
ATOM      9  C   UNL     1       1.794   2.489  20.566  0.00  0.00    +0.000 C 
ATOM     10  C   UNL     1       0.893   3.230  19.585  0.00  0.00    +0.000 C 
ATOM     11  C   UNL     1       1.639   4.407  18.940  0.00  0.00    +0.000 C 
ATOM     12  H   UNL     1       3.187   5.323  21.796  0.00  0.00    +0.000 HD
ENDBRANCH   1  11
BRANCH   3  13
ATOM     13  N   UNL     1       4.664   4.157  16.814  0.00  0.00    +0.000 NA
ATOM     14  C   UNL     1       4.714   4.956  15.797  0.00  0.00    +0.000 C 
BRANCH  14  15
ATOM     15  C   UNL     1       5.608   4.634  14.658  0.00  0.00    +0.000 A 
ATOM     16  C   UNL     1       5.124   3.839  13.610  0.00  0.00    +0.000 A 
ATOM     17  C   UNL     1       5.941   3.534  12.521  0.00  0.00    +0.000 A 
ATOM     18  C   UNL     1       7.245   4.019  12.473  0.00  0.00    +0.000 A 
ATOM     19  C   UNL     1       7.737   4.810  13.514  0.00  0.00    +0.000 A 
ATOM     20  C   UNL     1       6.918   5.119  14.605  0.00  0.00    +0.000 A 
BRANCH  20  21
ATOM     21  O   UNL     1       7.404   5.899  15.617  0.00  0.00    +0.000 OA
ATOM     22  H   UNL     1       8.238   5.513  15.936  0.00  0.00    +0.000 HD
ENDBRANCH  20  21
ENDBRANCH  14  15
ENDBRANCH   3  13
TORSDOF 4
ENDMDL
MODEL 4
REMARK VINA RESULT:      -7.0      6.103      7.243
REMARK  Name = 
REMARK  4 active torsions:
REMARK  status: ('A' for Active; 'I' for Inactive)
REMARK    1  A    between atoms: C_7  and  C_8
REMARK    2  A    between atoms: N_10  and  N_11
REMARK    3  A    between atoms: C_12  and  C_13
REMARK    4  A    between atoms: C_18  and  O_19
REMARK                            x       y       z     vdW  Elec       q    Type
REMARK                         _______ _______ _______ _____ _____    ______ ____
ROOT
ATOM      1  C   UNL     1       7.697   7.051  17.769  0.00  0.00    +0.000 C 
ATOM      2  O   UNL     1       7.789   7.271  16.559  0.00  0.00    +0.000 OA
ATOM      3  N   UNL     1       8.189   7.908  18.746  0.00  0.00    +0.000 N 
ATOM      4  H   UNL     1       8.168   7.659  19.734  0.00  0.00    +0.000 HD
ENDROOT
BRANCH   1  11
ATOM      5  O   UNL     1       8.470   4.061  17.796  0.00  0.00    +0.000 OA
ATOM      6  C   UNL     1       7.362   4.562  17.602  0.00  0.00    +0.000 C 
ATOM      7  N   UNL     1       6.518   4.013  16.678  0.00  0.00    +0.000 N 
ATOM      8  C   UNL     1       5.134   4.390  16.482  0.00  0.00    +0.000 C 
ATOM      9  C   UNL     1       4.865   5.825  16.885  0.00  0.00    +0.000 C 
ATOM     10  C   UNL     1       5.427   6.058  18.283  0.00  0.00    +0.000 C 
ATOM     11  C   UNL     1       6.947   5.839  18.303  0.00  0.00    +0.000 C 
ATOM     12  H   UNL     1       6.845   3.144  16.274  0.00  0.00    +0.000 HD
ENDBRANCH   1  11
BRANCH   3  13
ATOM     13  N   UNL     1       8.807   9.045  18.333  0.00  0.00    +0.000 NA
ATOM     14  C   UNL     1       9.161   9.909  19.229  0.00  0.00    +0.000 C 
BRANCH  14  15
ATOM     15  C   UNL     1       9.829  11.164  18.810  0.00  0.00    +0.000 A 
ATOM     16  C   UNL     1      11.106  11.461  19.307  0.00  0.00    +0.000 A 
ATOM     17  C   UNL     1      11.760  12.630  18.916  0.00  0.00    +0.000 A 
ATOM     18  C   UNL     1      11.144  13.509  18.029  0.00  0.00    +0.000 A 
ATOM     19  C   UNL     1       9.870  13.223  17.531  0.00  0.00    +0.000 A 
ATOM     20  C   UNL     1       9.215  12.050  17.920  0.00  0.00    +0.000 A 
BRANCH  20  21
ATOM     21  O   UNL     1       7.972  11.773  17.423  0.00  0.00    +0.000 OA
ATOM     22  H   UNL     1       7.763  12.417  16.724  0.00  0.00    +0.000 HD
ENDBRANCH  20  21
ENDBRANCH  14  15
ENDBRANCH   3  13
TORSDOF 4
ENDMDL
MODEL 5
REMARK VINA RESULT:      -6.9      5.862      7.124
REMARK  Name = 
REMARK  4 active torsions:
REMARK  status: ('A' for Active; 'I' for Inactive)
REMARK    1  A    between atoms: C_7  and  C_8
REMARK    2  A    between atoms: N_10  and  N_11
REMARK    3  A    between atoms: C_12  and  C_13
REMARK    4  A    between atoms: C_18  and  O_19
REMARK                            x       y       z     vdW  Elec       q    Type
REMARK                         _______ _______ _______ _____ _____    ______ ____
ROOT
ATOM      1  C   UNL     1       7.457   6.476  18.334  0.00  0.00    +0.000 C 
ATOM      2  O   UNL     1       8.167   6.038  19.241  0.00  0.00    +0.000 OA
ATOM      3  N   UNL     1       7.593   7.751  17.798  0.00  0.00    +0.000 N 
ATOM      4  H   UNL     1       6.938   8.110  17.105  0.00  0.00    +0.000 HD
ENDROOT
BRANCH   1  11
ATOM      5  O   UNL     1       5.777   6.971  15.790  0.00  0.00    +0.000 OA
ATOM      6  C   UNL     1       5.431   6.433  16.842  0.00  0.00    +0.000 C 
ATOM      7  N   UNL     1       4.173   6.645  17.335  0.00  0.00    +0.000 N 
ATOM      8  C   UNL     1       3.583   5.940  18.452  0.00  0.00    +0.000 C 
ATOM      9  C   UNL     1       4.624   5.437  19.432  0.00  0.00    +0.000 C 
ATOM     10  C   UNL     1       5.702   4.683  18.661  0.00  0.00    +0.000 C 
ATOM     11  C   UNL     1       6.405   5.609  17.658  0.00  0.00    +0.000 C 
ATOM     12  H   UNL     1       3.567   7.176  16.722  0.00  0.00    +0.000 HD
ENDBRANCH   1  11
BRANCH   3  13
ATOM     13  N   UNL     1       8.564   8.549  18.312  0.00  0.00    +0.000 NA
ATOM     14  C   UNL     1       8.482   9.824  18.101  0.00  0.00    +0.000 C 
BRANCH  14  15
ATOM     15  C   UNL     1       9.531  10.722  18.641  0.00  0.00    +0.000 A 
ATOM     16  C   UNL     1      10.348  11.435  17.752  0.00  0.00    +0.000 A 
ATOM     17  C   UNL     1      11.332  12.298  18.236  0.00  0.00    +0.000 A 
ATOM     18  C   UNL     1      11.508  12.451  19.608  0.00  0.00    +0.000 A 
ATOM     19  C   UNL     1      10.701  11.743  20.502  0.00  0.00    +0.000 A 
ATOM     20  C   UNL     1       9.712  10.880  20.018  0.00  0.00    +0.000 A 
BRANCH  20  21
ATOM     21  O   UNL     1       8.922  10.195  20.898  0.00  0.00    +0.000 OA
ATOM     22  H   UNL     1       8.088  10.682  21.015  0.00  0.00    +0.000 HD
ENDBRANCH  20  21
ENDBRANCH  14  15
ENDBRANCH   3  13
TORSDOF 4
ENDMDL
MODEL 6
REMARK VINA RESULT:      -6.9      5.888      7.066
REMARK  Name = 
REMARK  4 active torsions:
REMARK  status: ('A' for Active; 'I' for Inactive)
REMARK    1  A    between atoms: C_7  and  C_8
REMARK    2  A    between atoms: N_10  and  N_11
REMARK    3  A    between atoms: C_12  and  C_13
REMARK    4  A    between atoms: C_18  and  O_19
REMARK                            x       y       z     vdW  Elec       q    Type
REMARK                         _______ _______ _______ _____ _____    ______ ____
ROOT
ATOM      1  C   UNL     1       7.400   6.609  18.034  0.00  0.00    +0.000 C 
ATOM      2  O   UNL     1       8.112   6.312  18.995  0.00  0.00    +0.000 OA
ATOM      3  N   UNL     1       7.450   7.841  17.392  0.00  0.00    +0.000 N 
ATOM      4  H   UNL     1       6.792   8.083  16.651  0.00  0.00    +0.000 HD
ENDROOT
BRANCH   1  11
ATOM      5  O   UNL     1       5.590   6.835  15.542  0.00  0.00    +0.000 OA
ATOM      6  C   UNL     1       5.349   6.277  16.613  0.00  0.00    +0.000 C 
ATOM      7  N   UNL     1       4.092   6.335  17.145  0.00  0.00    +0.000 N 
ATOM      8  C   UNL     1       3.633   5.582  18.293  0.00  0.00    +0.000 C 
ATOM      9  C   UNL     1       4.762   5.236  19.243  0.00  0.00    +0.000 C 
ATOM     10  C   UNL     1       5.902   4.612  18.448  0.00  0.00    +0.000 C 
ATOM     11  C   UNL     1       6.448   5.601  17.407  0.00  0.00    +0.000 C 
ATOM     12  H   UNL     1       3.402   6.772  16.546  0.00  0.00    +0.000 HD
ENDBRANCH   1  11
BRANCH   3  13
ATOM     13  N   UNL     1       8.333   8.760  17.861  0.00  0.00    +0.000 NA
ATOM     14  C   UNL     1       7.994  10.008  17.820  0.00  0.00    +0.000 C 
BRANCH  14  15
ATOM     15  C   UNL     1       8.940  11.038  18.315  0.00  0.00    +0.000 A 
ATOM     16  C   UNL     1       9.909  10.680  19.263  0.00  0.00    +0.000 A 
ATOM     17  C   UNL     1      10.818  11.627  19.734  0.00  0.00    +0.000 A 
ATOM     18  C   UNL     1      10.765  12.937  19.263  0.00  0.00    +0.000 A 
ATOM     19  C   UNL     1       9.802  13.303  18.320  0.00  0.00    +0.000 A 
ATOM     20  C   UNL     1       8.891  12.353  17.845  0.00  0.00    +0.000 A 
BRANCH  20  21
ATOM     21  O   UNL     1       7.955  12.717  16.918  0.00  0.00    +0.000 OA
ATOM     22  H   UNL     1       7.863  13.686  16.929  0.00  0.00    +0.000 HD
ENDBRANCH  20  21
ENDBRANCH  14  15
ENDBRANCH   3  13
TORSDOF 4
ENDMDL
MODEL 7
REMARK VINA RESULT:      -6.9      5.940      7.202
REMARK  Name = 
REMARK  4 active torsions:
REMARK  status: ('A' for Active; 'I' for Inactive)
REMARK    1  A    between atoms: C_7  and  C_8
REMARK    2  A    between atoms: N_10  and  N_11
REMARK    3  A    between atoms: C_12  and  C_13
REMARK    4  A    between atoms: C_18  and  O_19
REMARK                            x       y       z     vdW  Elec       q    Type
REMARK                         _______ _______ _______ _____ _____    ______ ____
ROOT
ATOM      1  C   UNL     1       7.232   6.917  18.171  0.00  0.00    +0.000 C 
ATOM      2  O   UNL     1       8.077   6.334  18.853  0.00  0.00    +0.000 OA
ATOM      3  N   UNL     1       7.382   8.219  17.708  0.00  0.00    +0.000 N 
ATOM      4  H   UNL     1       6.632   8.699  17.214  0.00  0.00    +0.000 HD
ENDROOT
BRANCH   1  11
ATOM      5  O   UNL     1       5.775   4.433  19.288  0.00  0.00    +0.000 OA
ATOM      6  C   UNL     1       5.940   4.758  18.111  0.00  0.00    +0.000 C 
ATOM      7  N   UNL     1       6.188   3.801  17.168  0.00  0.00    +0.000 N 
ATOM      8  C   UNL     1       6.221   4.024  15.738  0.00  0.00    +0.000 C 
ATOM      9  C   UNL     1       6.609   5.446  15.386  0.00  0.00    +0.000 C 
ATOM     10  C   UNL     1       5.741   6.407  16.191  0.00  0.00    +0.000 C 
ATOM     11  C   UNL     1       5.967   6.215  17.698  0.00  0.00    +0.000 C 
ATOM     12  H   UNL     1       6.121   2.849  17.508  0.00  0.00    +0.000 HD
ENDBRANCH   1  11
BRANCH   3  13
ATOM     13  N   UNL     1       8.525   8.875  18.037  0.00  0.00    +0.000 NA
ATOM     14  C   UNL     1       8.448  10.140  18.302  0.00  0.00    +0.000 C 
BRANCH  14  15
ATOM     15  C   UNL     1       9.679  10.888  18.655  0.00  0.00    +0.000 A 
ATOM     16  C   UNL     1      10.447  11.466  17.635  0.00  0.00    +0.000 A 
ATOM     17  C   UNL     1      11.601  12.187  17.943  0.00  0.00    +0.000 A 
ATOM     18  C   UNL     1      11.996  12.334  19.270  0.00  0.00    +0.000 A 
ATOM     19  C   UNL     1      11.238  11.760  20.294  0.00  0.00    +0.000 A 
ATOM     20  C   UNL     1      10.078  11.039  19.986  0.00  0.00    +0.000 A 
BRANCH  20  21
ATOM     21  O   UNL     1       9.338  10.486  20.993  0.00  0.00    +0.000 OA
ATOM     22  H   UNL     1       9.256  11.134  21.713  0.00  0.00    +0.000 HD
ENDBRANCH  20  21
ENDBRANCH  14  15
ENDBRANCH   3  13
TORSDOF 4
ENDMDL
MODEL 8
REMARK VINA RESULT:      -6.9      3.775      7.115
REMARK  Name = 
REMARK  4 active torsions:
REMARK  status: ('A' for Active; 'I' for Inactive)
REMARK    1  A    between atoms: C_7  and  C_8
REMARK    2  A    between atoms: N_10  and  N_11
REMARK    3  A    between atoms: C_12  and  C_13
REMARK    4  A    between atoms: C_18  and  O_19
REMARK                            x       y       z     vdW  Elec       q    Type
REMARK                         _______ _______ _______ _____ _____    ______ ____
ROOT
ATOM      1  C   UNL     1       2.987   4.678  17.951  0.00  0.00    +0.000 C 
ATOM      2  O   UNL     1       1.830   4.515  17.558  0.00  0.00    +0.000 OA
ATOM      3  N   UNL     1       3.374   5.716  18.792  0.00  0.00    +0.000 N 
ATOM      4  H   UNL     1       4.352   5.869  19.034  0.00  0.00    +0.000 HD
ENDROOT
BRANCH   1  11
ATOM      5  O   UNL     1       4.911   3.101  19.783  0.00  0.00    +0.000 OA
ATOM      6  C   UNL     1       5.148   3.623  18.692  0.00  0.00    +0.000 C 
ATOM      7  N   UNL     1       6.353   4.230  18.475  0.00  0.00    +0.000 N 
ATOM      8  C   UNL     1       6.826   4.718  17.197  0.00  0.00    +0.000 C 
ATOM      9  C   UNL     1       5.689   5.105  16.272  0.00  0.00    +0.000 C 
ATOM     10  C   UNL     1       4.685   3.959  16.219  0.00  0.00    +0.000 C 
ATOM     11  C   UNL     1       4.091   3.689  17.609  0.00  0.00    +0.000 C 
ATOM     12  H   UNL     1       7.022   4.118  19.227  0.00  0.00    +0.000 HD
ENDBRANCH   1  11
BRANCH   3  13
ATOM     13  N   UNL     1       2.417   6.593  19.191  0.00  0.00    +0.000 NA
ATOM     14  C   UNL     1       2.485   7.810  18.756  0.00  0.00    +0.000 C 
BRANCH  14  15
ATOM     15  C   UNL     1       1.461   8.795  19.181  0.00  0.00    +0.000 A 
ATOM     16  C   UNL     1       0.859   9.617  18.218  0.00  0.00    +0.000 A 
ATOM     17  C   UNL     1      -0.117  10.542  18.591  0.00  0.00    +0.000 A 
ATOM     18  C   UNL     1      -0.497  10.651  19.926  0.00  0.00    +0.000 A 
ATOM     19  C   UNL     1       0.099   9.838  20.893  0.00  0.00    +0.000 A 
ATOM     20  C   UNL     1       1.075   8.909  20.520  0.00  0.00    +0.000 A 
BRANCH  20  21
ATOM     21  O   UNL     1       1.650   8.111  21.470  0.00  0.00    +0.000 OA
ATOM     22  H   UNL     1       0.945   7.673  21.978  0.00  0.00    +0.000 HD
ENDBRANCH  20  21
ENDBRANCH  14  15
ENDBRANCH   3  13
TORSDOF 4
ENDMDL
MODEL 9
REMARK VINA RESULT:      -6.8      1.064      1.077
REMARK  Name = 
REMARK  4 active torsions:
REMARK  status: ('A' for Active; 'I' for Inactive)
REMARK    1  A    between atoms: C_7  and  C_8
REMARK    2  A    between atoms: N_10  and  N_11
REMARK    3  A    between atoms: C_12  and  C_13
REMARK    4  A    between atoms: C_18  and  O_19
REMARK                            x       y       z     vdW  Elec       q    Type
REMARK                         _______ _______ _______ _____ _____    ______ ____
ROOT
ATOM      1  C   UNL     1       4.384   3.666  18.462  0.00  0.00    +0.000 C 
ATOM      2  O   UNL     1       4.183   2.599  17.879  0.00  0.00    +0.000 OA
ATOM      3  N   UNL     1       5.222   4.663  17.975  0.00  0.00    +0.000 N 
ATOM      4  H   UNL     1       5.429   5.499  18.520  0.00  0.00    +0.000 HD
ENDROOT
BRANCH   1  11
ATOM      5  O   UNL     1       4.181   2.150  21.145  0.00  0.00    +0.000 OA
ATOM      6  C   UNL     1       3.306   2.792  20.561  0.00  0.00    +0.000 C 
ATOM      7  N   UNL     1       2.014   2.349  20.573  0.00  0.00    +0.000 N 
ATOM      8  C   UNL     1       0.871   3.092  20.086  0.00  0.00    +0.000 C 
ATOM      9  C   UNL     1       1.246   4.079  18.998  0.00  0.00    +0.000 C 
ATOM     10  C   UNL     1       2.430   4.913  19.476  0.00  0.00    +0.000 C 
ATOM     11  C   UNL     1       3.651   4.022  19.747  0.00  0.00    +0.000 C 
ATOM     12  H   UNL     1       1.851   1.543  21.163  0.00  0.00    +0.000 HD
ENDBRANCH   1  11
BRANCH   3  13
ATOM     13  N   UNL     1       5.851   4.434  16.794  0.00  0.00    +0.000 NA
ATOM     14  C   UNL     1       5.200   4.668  15.700  0.00  0.00    +0.000 C 
BRANCH  14  15
ATOM     15  C   UNL     1       5.854   4.419  14.393  0.00  0.00    +0.000 A 
ATOM     16  C   UNL     1       5.190   3.647  13.429  0.00  0.00    +0.000 A 
ATOM     17  C   UNL     1       5.780   3.412  12.186  0.00  0.00    +0.000 A 
ATOM     18  C   UNL     1       7.034   3.943  11.900  0.00  0.00    +0.000 A 
ATOM     19  C   UNL     1       7.705   4.711  12.855  0.00  0.00    +0.000 A 
ATOM     20  C   UNL     1       7.113   4.951  14.100  0.00  0.00    +0.000 A 
BRANCH  20  21
ATOM     21  O   UNL     1       7.772   5.709  15.027  0.00  0.00    +0.000 OA
ATOM     22  H   UNL     1       7.133   6.010  15.696  0.00  0.00    +0.000 HD
ENDBRANCH  20  21
ENDBRANCH  14  15
ENDBRANCH   3  13
TORSDOF 4
ENDMDL
