MODEL 1
REMARK VINA RESULT:      -7.9      0.000      0.000
REMARK  Name = 
REMARK  8 active torsions:
REMARK  status: ('A' for Active; 'I' for Inactive)
REMARK    1  A    between atoms: C_3  and  N_4
REMARK    2  A    between atoms: N_4  and  C_5
REMARK    3  A    between atoms: C_11  and  O_12
REMARK    4  A    between atoms: O_12  and  C_13
REMARK    5  A    between atoms: C_13  and  C_14
REMARK    6  A    between atoms: C_14  and  N_15
REMARK    7  A    between atoms: C_21  and  O_22
REMARK    8  A    between atoms: O_22  and  C_23
REMARK                            x       y       z     vdW  Elec       q    Type
REMARK                         _______ _______ _______ _____ _____    ______ ____
ROOT
ATOM      1  C   UNL     1       2.822   7.632  18.181  0.00  0.00    +0.000 A 
ATOM      2  N   UNL     1       3.077   8.568  17.238  0.00  0.00    +0.000 NA
ATOM      3  C   UNL     1       2.499   9.752  17.380  0.00  0.00    +0.000 A 
ATOM      4  N   UNL     1       1.664  10.108  18.360  0.00  0.00    +0.000 NA
ATOM      5  C   UNL     1       1.413   9.185  19.298  0.00  0.00    +0.000 A 
ATOM      6  C   UNL     1       0.564   9.564  20.326  0.00  0.00    +0.000 A 
ATOM      7  C   UNL     1       0.265   8.715  21.385  0.00  0.00    +0.000 A 
ATOM      8  C   UNL     1       0.797   7.429  21.391  0.00  0.00    +0.000 A 
ATOM      9  C   UNL     1       1.683   7.025  20.393  0.00  0.00    +0.000 A 
ATOM     10  C   UNL     1       1.978   7.896  19.293  0.00  0.00    +0.000 A 
ENDROOT
BRANCH   1  11
ATOM     11  N   UNL     1       3.350   6.334  17.954  0.00  0.00    +0.000 N 
ATOM     12  H   UNL     1       2.786   5.633  18.434  0.00  0.00    +0.000 HD
BRANCH  11  15
ATOM     13  C   UNL     1       6.679   5.420  19.396  0.00  0.00    +0.000 A 
ATOM     14  C   UNL     1       5.368   5.887  19.285  0.00  0.00    +0.000 A 
ATOM     15  C   UNL     1       4.723   5.968  18.039  0.00  0.00    +0.000 A 
ATOM     16  C   UNL     1       5.426   5.531  16.898  0.00  0.00    +0.000 A 
ATOM     17  C   UNL     1       6.752   5.078  17.013  0.00  0.00    +0.000 A 
ATOM     18  C   UNL     1       7.370   5.016  18.260  0.00  0.00    +0.000 A 
ATOM     19  O   UNL     1       7.510   4.640  15.957  0.00  0.00    +0.000 OA
ATOM     20  C   UNL     1       6.922   4.967  14.697  0.00  0.00    +0.000 C 
ATOM     21  C   UNL     1       5.421   4.737  14.718  0.00  0.00    +0.000 C 
ATOM     22  O   UNL     1       4.778   5.574  15.683  0.00  0.00    +0.000 OA
ENDBRANCH  11  15
ENDBRANCH   1  11
BRANCH   7  23
ATOM     23  O   UNL     1      -0.533   9.235  22.376  0.00  0.00    +0.000 OA
BRANCH  23  24
ATOM     24  C   UNL     1      -0.327  10.632  22.635  0.00  0.00    +0.000 C 
BRANCH  24  25
ATOM     25  C   UNL     1      -1.627  11.307  23.101  0.00  0.00    +0.000 C 
BRANCH  25  26
ATOM     26  N   UNL     1      -1.811  12.650  22.508  0.00  0.00    +0.000 NA
ATOM     27  C   UNL     1      -3.092  13.287  22.846  0.00  0.00    +0.000 C 
ATOM     28  C   UNL     1      -4.072  12.749  21.826  0.00  0.00    +0.000 C 
ATOM     29  C   UNL     1      -3.241  12.717  20.558  0.00  0.00    +0.000 C 
ATOM     30  C   UNL     1      -1.796  12.584  21.033  0.00  0.00    +0.000 C 
ENDBRANCH  25  26
ENDBRANCH  24  25
ENDBRANCH  23  24
ENDBRANCH   7  23
BRANCH   9  31
ATOM     31  O   UNL     1       2.318   5.804  20.417  0.00  0.00    +0.000 OA
BRANCH  31  32
ATOM     32  C   UNL     1       1.549   4.595  20.596  0.00  0.00    +0.000 C 
ATOM     33  C   UNL     1       2.243   3.623  21.559  0.00  0.00    +0.000 C 
ATOM     34  C   UNL     1       1.659   2.221  21.464  0.00  0.00    +0.000 C 
ATOM     35  O   UNL     1       1.680   1.758  20.117  0.00  0.00    +0.000 OA
ATOM     36  C   UNL     1       0.859   2.557  19.271  0.00  0.00    +0.000 C 
ATOM     37  C   UNL     1       1.390   3.978  19.203  0.00  0.00    +0.000 C 
ENDBRANCH  31  32
ENDBRANCH   9  31
TORSDOF 8
ENDMDL
MODEL 2
REMARK VINA RESULT:      -7.6      2.971     10.204
REMARK  Name = 
REMARK  8 active torsions:
REMARK  status: ('A' for Active; 'I' for Inactive)
REMARK    1  A    between atoms: C_3  and  N_4
REMARK    2  A    between atoms: N_4  and  C_5
REMARK    3  A    between atoms: C_11  and  O_12
REMARK    4  A    between atoms: O_12  and  C_13
REMARK    5  A    between atoms: C_13  and  C_14
REMARK    6  A    between atoms: C_14  and  N_15
REMARK    7  A    between atoms: C_21  and  O_22
REMARK    8  A    between atoms: O_22  and  C_23
REMARK                            x       y       z     vdW  Elec       q    Type
REMARK                         _______ _______ _______ _____ _____    ______ ____
ROOT
ATOM      1  C   UNL     1      -0.413  11.170  21.742  0.00  0.00    +0.000 A 
ATOM      2  N   UNL     1      -0.548  10.781  23.030  0.00  0.00    +0.000 NA
ATOM      3  C   UNL     1      -0.031   9.609  23.373  0.00  0.00    +0.000 A 
ATOM      4  N   UNL     1       0.597   8.757  22.557  0.00  0.00    +0.000 NA
ATOM      5  C   UNL     1       0.736   9.142  21.282  0.00  0.00    +0.000 A 
ATOM      6  C   UNL     1       1.407   8.265  20.442  0.00  0.00    +0.000 A 
ATOM      7  C   UNL     1       1.660   8.571  19.110  0.00  0.00    +0.000 A 
ATOM      8  C   UNL     1       1.186   9.771  18.590  0.00  0.00    +0.000 A 
ATOM      9  C   UNL     1       0.538  10.692  19.412  0.00  0.00    +0.000 A 
ATOM     10  C   UNL     1       0.264  10.370  20.782  0.00  0.00    +0.000 A 
ENDROOT
BRANCH   1  11
ATOM     11  N   UNL     1      -1.073  12.367  21.361  0.00  0.00    +0.000 N 
ATOM     12  H   UNL     1      -0.789  13.137  21.966  0.00  0.00    +0.000 HD
BRANCH  11  15
ATOM     13  C   UNL     1      -4.294  12.329  19.458  0.00  0.00    +0.000 A 
ATOM     14  C   UNL     1      -2.929  12.324  19.750  0.00  0.00    +0.000 A 
ATOM     15  C   UNL     1      -2.460  12.493  21.064  0.00  0.00    +0.000 A 
ATOM     16  C   UNL     1      -3.410  12.635  22.094  0.00  0.00    +0.000 A 
ATOM     17  C   UNL     1      -4.784  12.658  21.794  0.00  0.00    +0.000 A 
ATOM     18  C   UNL     1      -5.221  12.496  20.480  0.00  0.00    +0.000 A 
ATOM     19  O   UNL     1      -5.775  12.797  22.732  0.00  0.00    +0.000 OA
ATOM     20  C   UNL     1      -5.265  13.211  23.999  0.00  0.00    +0.000 C 
ATOM     21  C   UNL     1      -3.979  12.476  24.338  0.00  0.00    +0.000 C 
ATOM     22  O   UNL     1      -2.949  12.761  23.387  0.00  0.00    +0.000 OA
ENDBRANCH  11  15
ENDBRANCH   1  11
BRANCH   7  23
ATOM     23  O   UNL     1       2.395   7.649  18.403  0.00  0.00    +0.000 OA
BRANCH  23  24
ATOM     24  C   UNL     1       3.242   6.818  19.211  0.00  0.00    +0.000 C 
BRANCH  24  25
ATOM     25  C   UNL     1       3.058   5.333  18.860  0.00  0.00    +0.000 C 
BRANCH  25  26
ATOM     26  N   UNL     1       1.661   4.880  19.031  0.00  0.00    +0.000 NA
ATOM     27  C   UNL     1       1.313   4.505  20.409  0.00  0.00    +0.000 C 
ATOM     28  C   UNL     1       1.750   3.063  20.539  0.00  0.00    +0.000 C 
ATOM     29  C   UNL     1       1.376   2.482  19.189  0.00  0.00    +0.000 C 
ATOM     30  C   UNL     1       1.394   3.670  18.228  0.00  0.00    +0.000 C 
ENDBRANCH  25  26
ENDBRANCH  24  25
ENDBRANCH  23  24
ENDBRANCH   7  23
BRANCH   9  31
ATOM     31  O   UNL     1       0.150  11.936  18.968  0.00  0.00    +0.000 OA
BRANCH  31  32
ATOM     32  C   UNL     1       1.140  12.961  18.738  0.00  0.00    +0.000 C 
ATOM     33  C   UNL     1       2.207  12.971  19.840  0.00  0.00    +0.000 C 
ATOM     34  C   UNL     1       3.021  14.257  19.826  0.00  0.00    +0.000 C 
ATOM     35  O   UNL     1       2.165  15.393  19.890  0.00  0.00    +0.000 OA
ATOM     36  C   UNL     1       1.317  15.482  18.749  0.00  0.00    +0.000 C 
ATOM     37  C   UNL     1       0.378  14.290  18.690  0.00  0.00    +0.000 C 
ENDBRANCH  31  32
ENDBRANCH   9  31
TORSDOF 8
ENDMDL
MODEL 3
REMARK VINA RESULT:      -7.5      3.149     10.635
REMARK  Name = 
REMARK  8 active torsions:
REMARK  status: ('A' for Active; 'I' for Inactive)
REMARK    1  A    between atoms: C_3  and  N_4
REMARK    2  A    between atoms: N_4  and  C_5
REMARK    3  A    between atoms: C_11  and  O_12
REMARK    4  A    between atoms: O_12  and  C_13
REMARK    5  A    between atoms: C_13  and  C_14
REMARK    6  A    between atoms: C_14  and  N_15
REMARK    7  A    between atoms: C_21  and  O_22
REMARK    8  A    between atoms: O_22  and  C_23
REMARK                            x       y       z     vdW  Elec       q    Type
REMARK                         _______ _______ _______ _____ _____    ______ ____
ROOT
ATOM      1  C   UNL     1      -0.430  11.372  21.994  0.00  0.00    +0.000 A 
ATOM      2  N   UNL     1      -0.543  10.795  23.211  0.00  0.00    +0.000 NA
ATOM      3  C   UNL     1      -0.074   9.562  23.350  0.00  0.00    +0.000 A 
ATOM      4  N   UNL     1       0.486   8.821  22.390  0.00  0.00    +0.000 NA
ATOM      5  C   UNL     1       0.603   9.393  21.184  0.00  0.00    +0.000 A 
ATOM      6  C   UNL     1       1.204   8.629  20.195  0.00  0.00    +0.000 A 
ATOM      7  C   UNL     1       1.430   9.126  18.916  0.00  0.00    +0.000 A 
ATOM      8  C   UNL     1       0.999  10.412  18.605  0.00  0.00    +0.000 A 
ATOM      9  C   UNL     1       0.422  11.221  19.584  0.00  0.00    +0.000 A 
ATOM     10  C   UNL     1       0.176  10.703  20.898  0.00  0.00    +0.000 A 
ENDROOT
BRANCH   1  11
ATOM     11  N   UNL     1      -1.043  12.642  21.828  0.00  0.00    +0.000 N 
ATOM     12  H   UNL     1      -0.408  13.284  21.357  0.00  0.00    +0.000 HD
BRANCH  11  15
ATOM     13  C   UNL     1      -1.828  15.016  24.610  0.00  0.00    +0.000 A 
ATOM     14  C   UNL     1      -1.117  14.229  23.703  0.00  0.00    +0.000 A 
ATOM     15  C   UNL     1      -1.772  13.349  22.825  0.00  0.00    +0.000 A 
ATOM     16  C   UNL     1      -3.181  13.306  22.858  0.00  0.00    +0.000 A 
ATOM     17  C   UNL     1      -3.892  14.088  23.785  0.00  0.00    +0.000 A 
ATOM     18  C   UNL     1      -3.216  14.946  24.650  0.00  0.00    +0.000 A 
ATOM     19  O   UNL     1      -5.260  14.104  23.889  0.00  0.00    +0.000 OA
ATOM     20  C   UNL     1      -5.869  13.033  23.168  0.00  0.00    +0.000 C 
ATOM     21  C   UNL     1      -5.201  12.830  21.819  0.00  0.00    +0.000 C 
ATOM     22  O   UNL     1      -3.823  12.473  21.968  0.00  0.00    +0.000 OA
ENDBRANCH  11  15
ENDBRANCH   1  11
BRANCH   7  23
ATOM     23  O   UNL     1       2.097   8.294  18.049  0.00  0.00    +0.000 OA
BRANCH  23  24
ATOM     24  C   UNL     1       2.911   7.298  18.686  0.00  0.00    +0.000 C 
BRANCH  24  25
ATOM     25  C   UNL     1       2.842   5.961  17.931  0.00  0.00    +0.000 C 
BRANCH  25  26
ATOM     26  N   UNL     1       2.294   4.868  18.764  0.00  0.00    +0.000 NA
ATOM     27  C   UNL     1       3.317   4.030  19.408  0.00  0.00    +0.000 C 
ATOM     28  C   UNL     1       3.681   2.996  18.366  0.00  0.00    +0.000 C 
ATOM     29  C   UNL     1       2.339   2.679  17.734  0.00  0.00    +0.000 C 
ATOM     30  C   UNL     1       1.493   3.932  17.950  0.00  0.00    +0.000 C 
ENDBRANCH  25  26
ENDBRANCH  24  25
ENDBRANCH  23  24
ENDBRANCH   7  23
BRANCH   9  31
ATOM     31  O   UNL     1       0.081  12.534  19.351  0.00  0.00    +0.000 OA
BRANCH  31  32
ATOM     32  C   UNL     1       1.096  13.485  18.959  0.00  0.00    +0.000 C 
ATOM     33  C   UNL     1       2.246  13.532  19.973  0.00  0.00    +0.000 C 
ATOM     34  C   UNL     1       3.112  14.769  19.786  0.00  0.00    +0.000 C 
ATOM     35  O   UNL     1       2.316  15.949  19.813  0.00  0.00    +0.000 OA
ATOM     36  C   UNL     1       1.386  15.985  18.735  0.00  0.00    +0.000 C 
ATOM     37  C   UNL     1       0.393  14.842  18.852  0.00  0.00    +0.000 C 
ENDBRANCH  31  32
ENDBRANCH   9  31
TORSDOF 8
ENDMDL
MODEL 4
REMARK VINA RESULT:      -7.5      3.176     10.642
REMARK  Name = 
REMARK  8 active torsions:
REMARK  status: ('A' for Active; 'I' for Inactive)
REMARK    1  A    between atoms: C_3  and  N_4
REMARK    2  A    between atoms: N_4  and  C_5
REMARK    3  A    between atoms: C_11  and  O_12
REMARK    4  A    between atoms: O_12  and  C_13
REMARK    5  A    between atoms: C_13  and  C_14
REMARK    6  A    between atoms: C_14  and  N_15
REMARK    7  A    between atoms: C_21  and  O_22
REMARK    8  A    between atoms: O_22  and  C_23
REMARK                            x       y       z     vdW  Elec       q    Type
REMARK                         _______ _______ _______ _____ _____    ______ ____
ROOT
ATOM      1  C   UNL     1      -0.673  11.537  21.828  0.00  0.00    +0.000 A 
ATOM      2  N   UNL     1      -0.812  11.069  23.090  0.00  0.00    +0.000 NA
ATOM      3  C   UNL     1      -0.289   9.882  23.363  0.00  0.00    +0.000 A 
ATOM      4  N   UNL     1       0.348   9.085  22.500  0.00  0.00    +0.000 NA
ATOM      5  C   UNL     1       0.491   9.548  21.251  0.00  0.00    +0.000 A 
ATOM      6  C   UNL     1       1.172   8.729  20.363  0.00  0.00    +0.000 A 
ATOM      7  C   UNL     1       1.430   9.117  19.054  0.00  0.00    +0.000 A 
ATOM      8  C   UNL     1       0.950  10.344  18.605  0.00  0.00    +0.000 A 
ATOM      9  C   UNL     1       0.292  11.209  19.479  0.00  0.00    +0.000 A 
ATOM     10  C   UNL     1       0.013  10.802  20.826  0.00  0.00    +0.000 A 
ENDROOT
BRANCH   1  11
ATOM     11  N   UNL     1      -1.340  12.751  21.519  0.00  0.00    +0.000 N 
ATOM     12  H   UNL     1      -0.669  13.514  21.441  0.00  0.00    +0.000 HD
BRANCH  11  15
ATOM     13  C   UNL     1      -4.941  13.079  22.478  0.00  0.00    +0.000 A 
ATOM     14  C   UNL     1      -3.782  12.704  21.797  0.00  0.00    +0.000 A 
ATOM     15  C   UNL     1      -2.526  13.231  22.143  0.00  0.00    +0.000 A 
ATOM     16  C   UNL     1      -2.459  14.129  23.227  0.00  0.00    +0.000 A 
ATOM     17  C   UNL     1      -3.632  14.517  23.900  0.00  0.00    +0.000 A 
ATOM     18  C   UNL     1      -4.865  13.985  23.529  0.00  0.00    +0.000 A 
ATOM     19  O   UNL     1      -3.659  15.387  24.959  0.00  0.00    +0.000 OA
ATOM     20  C   UNL     1      -2.423  16.083  25.120  0.00  0.00    +0.000 C 
ATOM     21  C   UNL     1      -1.240  15.151  24.917  0.00  0.00    +0.000 C 
ATOM     22  O   UNL     1      -1.221  14.613  23.592  0.00  0.00    +0.000 OA
ENDBRANCH  11  15
ENDBRANCH   1  11
BRANCH   7  23
ATOM     23  O   UNL     1       2.175   8.245  18.296  0.00  0.00    +0.000 OA
BRANCH  23  24
ATOM     24  C   UNL     1       2.595   7.061  18.991  0.00  0.00    +0.000 C 
BRANCH  24  25
ATOM     25  C   UNL     1       2.300   5.800  18.164  0.00  0.00    +0.000 C 
BRANCH  25  26
ATOM     26  N   UNL     1       2.764   4.564  18.831  0.00  0.00    +0.000 NA
ATOM     27  C   UNL     1       1.862   3.415  18.666  0.00  0.00    +0.000 C 
ATOM     28  C   UNL     1       0.833   3.570  19.763  0.00  0.00    +0.000 C 
ATOM     29  C   UNL     1       1.668   4.064  20.930  0.00  0.00    +0.000 C 
ATOM     30  C   UNL     1       2.870   4.758  20.291  0.00  0.00    +0.000 C 
ENDBRANCH  25  26
ENDBRANCH  24  25
ENDBRANCH  23  24
ENDBRANCH   7  23
BRANCH   9  31
ATOM     31  O   UNL     1      -0.102  12.475  19.110  0.00  0.00    +0.000 OA
BRANCH  31  32
ATOM     32  C   UNL     1       0.889  13.475  18.790  0.00  0.00    +0.000 C 
ATOM     33  C   UNL     1       2.053  13.455  19.789  0.00  0.00    +0.000 C 
ATOM     34  C   UNL     1       2.895  14.720  19.700  0.00  0.00    +0.000 C 
ATOM     35  O   UNL     1       2.078  15.878  19.840  0.00  0.00    +0.000 OA
ATOM     36  C   UNL     1       1.133  15.990  18.781  0.00  0.00    +0.000 C 
ATOM     37  C   UNL     1       0.161  14.823  18.810  0.00  0.00    +0.000 C 
ENDBRANCH  31  32
ENDBRANCH   9  31
TORSDOF 8
ENDMDL
MODEL 5
REMARK VINA RESULT:      -7.5      3.083      9.756
REMARK  Name = 
REMARK  8 active torsions:
REMARK  status: ('A' for Active; 'I' for Inactive)
REMARK    1  A    between atoms: C_3  and  N_4
REMARK    2  A    between atoms: N_4  and  C_5
REMARK    3  A    between atoms: C_11  and  O_12
REMARK    4  A    between atoms: O_12  and  C_13
REMARK    5  A    between atoms: C_13  and  C_14
REMARK    6  A    between atoms: C_14  and  N_15
REMARK    7  A    between atoms: C_21  and  O_22
REMARK    8  A    between atoms: O_22  and  C_23
REMARK                            x       y       z     vdW  Elec       q    Type
REMARK                         _______ _______ _______ _____ _____    ______ ____
ROOT
ATOM      1  C   UNL     1      -0.310  10.944  21.163  0.00  0.00    +0.000 A 
ATOM      2  N   UNL     1      -0.626  10.466  22.388  0.00  0.00    +0.000 NA
ATOM      3  C   UNL     1      -0.171   9.263  22.711  0.00  0.00    +0.000 A 
ATOM      4  N   UNL     1       0.557   8.461  21.929  0.00  0.00    +0.000 NA
ATOM      5  C   UNL     1       0.876   8.935  20.717  0.00  0.00    +0.000 A 
ATOM      6  C   UNL     1       1.650   8.110  19.916  0.00  0.00    +0.000 A 
ATOM      7  C   UNL     1       2.089   8.506  18.658  0.00  0.00    +0.000 A 
ATOM      8  C   UNL     1       1.701   9.749  18.167  0.00  0.00    +0.000 A 
ATOM      9  C   UNL     1       0.952  10.620  18.959  0.00  0.00    +0.000 A 
ATOM     10  C   UNL     1       0.487  10.204  20.250  0.00  0.00    +0.000 A 
ENDROOT
BRANCH   1  11
ATOM     11  N   UNL     1      -0.902  12.178  20.785  0.00  0.00    +0.000 N 
ATOM     12  H   UNL     1      -0.387  12.958  21.190  0.00  0.00    +0.000 HD
BRANCH  11  15
ATOM     13  C   UNL     1      -4.184  13.639  21.830  0.00  0.00    +0.000 A 
ATOM     14  C   UNL     1      -2.846  13.243  21.849  0.00  0.00    +0.000 A 
ATOM     15  C   UNL     1      -2.294  12.473  20.810  0.00  0.00    +0.000 A 
ATOM     16  C   UNL     1      -3.125  12.136  19.722  0.00  0.00    +0.000 A 
ATOM     17  C   UNL     1      -4.477  12.523  19.715  0.00  0.00    +0.000 A 
ATOM     18  C   UNL     1      -4.999  13.279  20.763  0.00  0.00    +0.000 A 
ATOM     19  O   UNL     1      -5.355  12.234  18.702  0.00  0.00    +0.000 OA
ATOM     20  C   UNL     1      -4.837  11.255  17.800  0.00  0.00    +0.000 C 
ATOM     21  C   UNL     1      -3.369  11.509  17.501  0.00  0.00    +0.000 C 
ATOM     22  O   UNL     1      -2.572  11.416  18.685  0.00  0.00    +0.000 OA
ENDBRANCH  11  15
ENDBRANCH   1  11
BRANCH   7  23
ATOM     23  O   UNL     1       2.908   7.625  17.993  0.00  0.00    +0.000 OA
BRANCH  23  24
ATOM     24  C   UNL     1       3.111   6.375  18.670  0.00  0.00    +0.000 C 
BRANCH  24  25
ATOM     25  C   UNL     1       2.276   5.256  18.027  0.00  0.00    +0.000 C 
BRANCH  25  26
ATOM     26  N   UNL     1       2.588   3.923  18.588  0.00  0.00    +0.000 NA
ATOM     27  C   UNL     1       1.410   3.072  18.811  0.00  0.00    +0.000 C 
ATOM     28  C   UNL     1       0.894   3.478  20.174  0.00  0.00    +0.000 C 
ATOM     29  C   UNL     1       2.173   3.692  20.960  0.00  0.00    +0.000 C 
ATOM     30  C   UNL     1       3.228   4.043  19.913  0.00  0.00    +0.000 C 
ENDBRANCH  25  26
ENDBRANCH  24  25
ENDBRANCH  23  24
ENDBRANCH   7  23
BRANCH   9  31
ATOM     31  O   UNL     1       0.639  11.899  18.558  0.00  0.00    +0.000 OA
BRANCH  31  32
ATOM     32  C   UNL     1       1.457  13.009  18.986  0.00  0.00    +0.000 C 
ATOM     33  C   UNL     1       0.729  14.348  18.807  0.00  0.00    +0.000 C 
ATOM     34  C   UNL     1       1.688  15.527  18.885  0.00  0.00    +0.000 C 
ATOM     35  O   UNL     1       2.761  15.364  17.963  0.00  0.00    +0.000 OA
ATOM     36  C   UNL     1       3.555  14.223  18.270  0.00  0.00    +0.000 C 
ATOM     37  C   UNL     1       2.733  12.953  18.139  0.00  0.00    +0.000 C 
ENDBRANCH  31  32
ENDBRANCH   9  31
TORSDOF 8
ENDMDL
MODEL 6
REMARK VINA RESULT:      -7.4      3.001     10.679
REMARK  Name = 
REMARK  8 active torsions:
REMARK  status: ('A' for Active; 'I' for Inactive)
REMARK    1  A    between atoms: C_3  and  N_4
REMARK    2  A    between atoms: N_4  and  C_5
REMARK    3  A    between atoms: C_11  and  O_12
REMARK    4  A    between atoms: O_12  and  C_13
REMARK    5  A    between atoms: C_13  and  C_14
REMARK    6  A    between atoms: C_14  and  N_15
REMARK    7  A    between atoms: C_21  and  O_22
REMARK    8  A    between atoms: O_22  and  C_23
REMARK                            x       y       z     vdW  Elec       q    Type
REMARK                         _______ _______ _______ _____ _____    ______ ____
ROOT
ATOM      1  C   UNL     1      -0.511  11.113  21.880  0.00  0.00    +0.000 A 
ATOM      2  N   UNL     1      -0.551  10.633  23.144  0.00  0.00    +0.000 NA
ATOM      3  C   UNL     1       0.062   9.481  23.380  0.00  0.00    +0.000 A 
ATOM      4  N   UNL     1       0.703   8.732  22.479  0.00  0.00    +0.000 NA
ATOM      5  C   UNL     1       0.748   9.207  21.228  0.00  0.00    +0.000 A 
ATOM      6  C   UNL     1       1.433   8.438  20.299  0.00  0.00    +0.000 A 
ATOM      7  C   UNL     1       1.594   8.847  18.980  0.00  0.00    +0.000 A 
ATOM      8  C   UNL     1       1.012  10.041  18.567  0.00  0.00    +0.000 A 
ATOM      9  C   UNL     1       0.346  10.857  19.481  0.00  0.00    +0.000 A 
ATOM     10  C   UNL     1       0.167  10.428  20.837  0.00  0.00    +0.000 A 
ENDROOT
BRANCH   1  11
ATOM     11  N   UNL     1      -1.272  12.282  21.615  0.00  0.00    +0.000 N 
ATOM     12  H   UNL     1      -0.862  12.804  20.842  0.00  0.00    +0.000 HD
BRANCH  11  15
ATOM     13  C   UNL     1      -1.382  15.111  24.060  0.00  0.00    +0.000 A 
ATOM     14  C   UNL     1      -0.900  14.134  23.187  0.00  0.00    +0.000 A 
ATOM     15  C   UNL     1      -1.760  13.195  22.591  0.00  0.00    +0.000 A 
ATOM     16  C   UNL     1      -3.138  13.286  22.872  0.00  0.00    +0.000 A 
ATOM     17  C   UNL     1      -3.617  14.261  23.765  0.00  0.00    +0.000 A 
ATOM     18  C   UNL     1      -2.740  15.174  24.347  0.00  0.00    +0.000 A 
ATOM     19  O   UNL     1      -4.938  14.417  24.098  0.00  0.00    +0.000 OA
ATOM     20  C   UNL     1      -5.735  13.309  23.679  0.00  0.00    +0.000 C 
ATOM     21  C   UNL     1      -5.340  12.845  22.288  0.00  0.00    +0.000 C 
ATOM     22  O   UNL     1      -3.984  12.390  22.255  0.00  0.00    +0.000 OA
ENDBRANCH  11  15
ENDBRANCH   1  11
BRANCH   7  23
ATOM     23  O   UNL     1       2.354   8.028  18.178  0.00  0.00    +0.000 OA
BRANCH  23  24
ATOM     24  C   UNL     1       2.850   6.849  18.830  0.00  0.00    +0.000 C 
BRANCH  24  25
ATOM     25  C   UNL     1       2.675   5.609  17.939  0.00  0.00    +0.000 C 
BRANCH  25  26
ATOM     26  N   UNL     1       3.784   4.642  18.091  0.00  0.00    +0.000 NA
ATOM     27  C   UNL     1       5.118   5.259  18.148  0.00  0.00    +0.000 C 
ATOM     28  C   UNL     1       5.525   5.433  16.702  0.00  0.00    +0.000 C 
ATOM     29  C   UNL     1       5.006   4.161  16.059  0.00  0.00    +0.000 C 
ATOM     30  C   UNL     1       3.842   3.717  16.942  0.00  0.00    +0.000 C 
ENDBRANCH  25  26
ENDBRANCH  24  25
ENDBRANCH  23  24
ENDBRANCH   7  23
BRANCH   9  31
ATOM     31  O   UNL     1      -0.149  12.096  19.141  0.00  0.00    +0.000 OA
BRANCH  31  32
ATOM     32  C   UNL     1       0.757  13.169  18.809  0.00  0.00    +0.000 C 
ATOM     33  C   UNL     1       1.954  13.213  19.767  0.00  0.00    +0.000 C 
ATOM     34  C   UNL     1       2.702  14.536  19.677  0.00  0.00    +0.000 C 
ATOM     35  O   UNL     1       1.811  15.631  19.870  0.00  0.00    +0.000 OA
ATOM     36  C   UNL     1       0.823  15.696  18.847  0.00  0.00    +0.000 C 
ATOM     37  C   UNL     1      -0.062  14.462  18.884  0.00  0.00    +0.000 C 
ENDBRANCH  31  32
ENDBRANCH   9  31
TORSDOF 8
ENDMDL
MODEL 7
REMARK VINA RESULT:      -7.4      3.084     10.229
REMARK  Name = 
REMARK  8 active torsions:
REMARK  status: ('A' for Active; 'I' for Inactive)
REMARK    1  A    between atoms: C_3  and  N_4
REMARK    2  A    between atoms: N_4  and  C_5
REMARK    3  A    between atoms: C_11  and  O_12
REMARK    4  A    between atoms: O_12  and  C_13
REMARK    5  A    between atoms: C_13  and  C_14
REMARK    6  A    between atoms: C_14  and  N_15
REMARK    7  A    between atoms: C_21  and  O_22
REMARK    8  A    between atoms: O_22  and  C_23
REMARK                            x       y       z     vdW  Elec       q    Type
REMARK                         _______ _______ _______ _____ _____    ______ ____
ROOT
ATOM      1  C   UNL     1      -0.582  10.897  21.855  0.00  0.00    +0.000 A 
ATOM      2  N   UNL     1      -0.416  10.499  23.137  0.00  0.00    +0.000 NA
ATOM      3  C   UNL     1       0.395   9.474  23.359  0.00  0.00    +0.000 A 
ATOM      4  N   UNL     1       1.052   8.775  22.430  0.00  0.00    +0.000 NA
ATOM      5  C   UNL     1       0.894   9.169  21.160  0.00  0.00    +0.000 A 
ATOM      6  C   UNL     1       1.594   8.456  20.200  0.00  0.00    +0.000 A 
ATOM      7  C   UNL     1       1.553   8.798  18.853  0.00  0.00    +0.000 A 
ATOM      8  C   UNL     1       0.749   9.858  18.449  0.00  0.00    +0.000 A 
ATOM      9  C   UNL     1       0.057  10.621  19.391  0.00  0.00    +0.000 A 
ATOM     10  C   UNL     1       0.088  10.258  20.778  0.00  0.00    +0.000 A 
ENDROOT
BRANCH   1  11
ATOM     11  N   UNL     1      -1.542  11.915  21.619  0.00  0.00    +0.000 N 
ATOM     12  H   UNL     1      -1.377  12.357  20.716  0.00  0.00    +0.000 HD
BRANCH  11  15
ATOM     13  C   UNL     1      -1.409  14.823  23.970  0.00  0.00    +0.000 A 
ATOM     14  C   UNL     1      -1.013  13.774  23.138  0.00  0.00    +0.000 A 
ATOM     15  C   UNL     1      -1.952  12.904  22.557  0.00  0.00    +0.000 A 
ATOM     16  C   UNL     1      -3.318  13.139  22.811  0.00  0.00    +0.000 A 
ATOM     17  C   UNL     1      -3.712  14.185  23.664  0.00  0.00    +0.000 A 
ATOM     18  C   UNL     1      -2.759  15.028  24.232  0.00  0.00    +0.000 A 
ATOM     19  O   UNL     1      -5.016  14.480  23.968  0.00  0.00    +0.000 OA
ATOM     20  C   UNL     1      -5.912  13.442  23.571  0.00  0.00    +0.000 C 
ATOM     21  C   UNL     1      -5.544  12.895  22.203  0.00  0.00    +0.000 C 
ATOM     22  O   UNL     1      -4.239  12.309  22.209  0.00  0.00    +0.000 OA
ENDBRANCH  11  15
ENDBRANCH   1  11
BRANCH   7  23
ATOM     23  O   UNL     1       2.348   8.055  18.012  0.00  0.00    +0.000 OA
BRANCH  23  24
ATOM     24  C   UNL     1       2.965   6.915  18.629  0.00  0.00    +0.000 C 
BRANCH  24  25
ATOM     25  C   UNL     1       2.580   5.617  17.902  0.00  0.00    +0.000 C 
BRANCH  25  26
ATOM     26  N   UNL     1       2.265   4.516  18.839  0.00  0.00    +0.000 NA
ATOM     27  C   UNL     1       3.446   3.808  19.356  0.00  0.00    +0.000 C 
ATOM     28  C   UNL     1       3.761   2.767  18.306  0.00  0.00    +0.000 C 
ATOM     29  C   UNL     1       2.383   2.297  17.883  0.00  0.00    +0.000 C 
ATOM     30  C   UNL     1       1.455   3.473  18.179  0.00  0.00    +0.000 C 
ENDBRANCH  25  26
ENDBRANCH  24  25
ENDBRANCH  23  24
ENDBRANCH   7  23
BRANCH   9  31
ATOM     31  O   UNL     1      -0.662  11.744  19.049  0.00  0.00    +0.000 OA
BRANCH  31  32
ATOM     32  C   UNL     1      -1.794  11.633  18.160  0.00  0.00    +0.000 C 
ATOM     33  C   UNL     1      -3.098  12.048  18.853  0.00  0.00    +0.000 C 
ATOM     34  C   UNL     1      -4.322  11.583  18.077  0.00  0.00    +0.000 C 
ATOM     35  O   UNL     1      -4.260  10.182  17.831  0.00  0.00    +0.000 OA
ATOM     36  C   UNL     1      -3.150   9.838  17.008  0.00  0.00    +0.000 C 
ATOM     37  C   UNL     1      -1.845  10.169  17.710  0.00  0.00    +0.000 C 
ENDBRANCH  31  32
ENDBRANCH   9  31
TORSDOF 8
ENDMDL
MODEL 8
REMARK VINA RESULT:      -7.4      3.323     10.898
REMARK  Name = 
REMARK  8 active torsions:
REMARK  status: ('A' for Active; 'I' for Inactive)
REMARK    1  A    between atoms: C_3  and  N_4
REMARK    2  A    between atoms: N_4  and  C_5
REMARK    3  A    between atoms: C_11  and  O_12
REMARK    4  A    between atoms: O_12  and  C_13
REMARK    5  A    between atoms: C_13  and  C_14
REMARK    6  A    between atoms: C_14  and  N_15
REMARK    7  A    between atoms: C_21  and  O_22
REMARK    8  A    between atoms: O_22  and  C_23
REMARK                            x       y       z     vdW  Elec       q    Type
REMARK                         _______ _______ _______ _____ _____    ______ ____
ROOT
ATOM      1  C   UNL     1      -0.268  11.482  22.099  0.00  0.00    +0.000 A 
ATOM      2  N   UNL     1      -0.454  10.795  23.250  0.00  0.00    +0.000 NA
ATOM      3  C   UNL     1      -0.106   9.515  23.261  0.00  0.00    +0.000 A 
ATOM      4  N   UNL     1       0.393   8.827  22.231  0.00  0.00    +0.000 NA
ATOM      5  C   UNL     1       0.583   9.506  21.092  0.00  0.00    +0.000 A 
ATOM      6  C   UNL     1       1.122   8.794  20.031  0.00  0.00    +0.000 A 
ATOM      7  C   UNL     1       1.412   9.396  18.813  0.00  0.00    +0.000 A 
ATOM      8  C   UNL     1       1.111  10.742  18.635  0.00  0.00    +0.000 A 
ATOM      9  C   UNL     1       0.601  11.498  19.690  0.00  0.00    +0.000 A 
ATOM     10  C   UNL     1       0.287  10.873  20.942  0.00  0.00    +0.000 A 
ENDROOT
BRANCH   1  11
ATOM     11  N   UNL     1      -0.754  12.815  22.064  0.00  0.00    +0.000 N 
ATOM     12  H   UNL     1      -0.028  13.465  22.360  0.00  0.00    +0.000 HD
BRANCH  11  15
ATOM     13  C   UNL     1      -4.434  12.976  22.722  0.00  0.00    +0.000 A 
ATOM     14  C   UNL     1      -3.205  12.637  22.154  0.00  0.00    +0.000 A 
ATOM     15  C   UNL     1      -2.011  13.254  22.567  0.00  0.00    +0.000 A 
ATOM     16  C   UNL     1      -2.082  14.210  23.600  0.00  0.00    +0.000 A 
ATOM     17  C   UNL     1      -3.325  14.561  24.157  0.00  0.00    +0.000 A 
ATOM     18  C   UNL     1      -4.493  13.938  23.723  0.00  0.00    +0.000 A 
ATOM     19  O   UNL     1      -3.486  15.483  25.161  0.00  0.00    +0.000 OA
ATOM     20  C   UNL     1      -2.307  16.258  25.376  0.00  0.00    +0.000 C 
ATOM     21  C   UNL     1      -1.062  15.390  25.319  0.00  0.00    +0.000 C 
ATOM     22  O   UNL     1      -0.907  14.785  24.031  0.00  0.00    +0.000 OA
ENDBRANCH  11  15
ENDBRANCH   1  11
BRANCH   7  23
ATOM     23  O   UNL     1       2.009   8.597  17.866  0.00  0.00    +0.000 OA
BRANCH  23  24
ATOM     24  C   UNL     1       2.651   7.426  18.394  0.00  0.00    +0.000 C 
BRANCH  24  25
ATOM     25  C   UNL     1       3.851   7.014  17.527  0.00  0.00    +0.000 C 
BRANCH  25  26
ATOM     26  N   UNL     1       4.088   5.554  17.546  0.00  0.00    +0.000 NA
ATOM     27  C   UNL     1       4.285   4.994  18.891  0.00  0.00    +0.000 C 
ATOM     28  C   UNL     1       5.756   5.194  19.182  0.00  0.00    +0.000 C 
ATOM     29  C   UNL     1       6.399   4.900  17.840  0.00  0.00    +0.000 C 
ATOM     30  C   UNL     1       5.318   5.207  16.806  0.00  0.00    +0.000 C 
ENDBRANCH  25  26
ENDBRANCH  24  25
ENDBRANCH  23  24
ENDBRANCH   7  23
BRANCH   9  31
ATOM     31  O   UNL     1       0.391  12.856  19.594  0.00  0.00    +0.000 OA
BRANCH  31  32
ATOM     32  C   UNL     1       1.480  13.730  19.227  0.00  0.00    +0.000 C 
ATOM     33  C   UNL     1       2.587  13.726  20.289  0.00  0.00    +0.000 C 
ATOM     34  C   UNL     1       3.539  14.901  20.115  0.00  0.00    +0.000 C 
ATOM     35  O   UNL     1       2.820  16.130  20.084  0.00  0.00    +0.000 OA
ATOM     36  C   UNL     1       1.941  16.201  18.967  0.00  0.00    +0.000 C 
ATOM     37  C   UNL     1       0.871  15.127  19.063  0.00  0.00    +0.000 C 
ENDBRANCH  31  32
ENDBRANCH   9  31
TORSDOF 8
ENDMDL
MODEL 9
REMARK VINA RESULT:      -7.3      3.002     10.417
REMARK  Name = 
REMARK  8 active torsions:
REMARK  status: ('A' for Active; 'I' for Inactive)
REMARK    1  A    between atoms: C_3  and  N_4
REMARK    2  A    between atoms: N_4  and  C_5
REMARK    3  A    between atoms: C_11  and  O_12
REMARK    4  A    between atoms: O_12  and  C_13
REMARK    5  A    between atoms: C_13  and  C_14
REMARK    6  A    between atoms: C_14  and  N_15
REMARK    7  A    between atoms: C_21  and  O_22
REMARK    8  A    between atoms: O_22  and  C_23
REMARK                            x       y       z     vdW  Elec       q    Type
REMARK                         _______ _______ _______ _____ _____    ______ ____
ROOT
ATOM      1  C   UNL     1      -0.508  11.315  21.857  0.00  0.00    +0.000 A 
ATOM      2  N   UNL     1      -0.503  10.821  23.116  0.00  0.00    +0.000 NA
ATOM      3  C   UNL     1       0.094   9.653  23.312  0.00  0.00    +0.000 A 
ATOM      4  N   UNL     1       0.677   8.900  22.376  0.00  0.00    +0.000 NA
ATOM      5  C   UNL     1       0.677   9.389  21.129  0.00  0.00    +0.000 A 
ATOM      6  C   UNL     1       1.302   8.616  20.162  0.00  0.00    +0.000 A 
ATOM      7  C   UNL     1       1.413   9.036  18.842  0.00  0.00    +0.000 A 
ATOM      8  C   UNL     1       0.841  10.247  18.467  0.00  0.00    +0.000 A 
ATOM      9  C   UNL     1       0.236  11.068  19.419  0.00  0.00    +0.000 A 
ATOM     10  C   UNL     1       0.107  10.627  20.777  0.00  0.00    +0.000 A 
ENDROOT
BRANCH   1  11
ATOM     11  N   UNL     1      -1.253  12.504  21.638  0.00  0.00    +0.000 N 
ATOM     12  H   UNL     1      -0.669  13.323  21.800  0.00  0.00    +0.000 HD
BRANCH  11  15
ATOM     13  C   UNL     1      -4.036  13.703  23.831  0.00  0.00    +0.000 A 
ATOM     14  C   UNL     1      -2.764  13.338  23.388  0.00  0.00    +0.000 A 
ATOM     15  C   UNL     1      -2.566  12.762  22.121  0.00  0.00    +0.000 A 
ATOM     16  C   UNL     1      -3.690  12.593  21.287  0.00  0.00    +0.000 A 
ATOM     17  C   UNL     1      -4.972  12.947  21.744  0.00  0.00    +0.000 A 
ATOM     18  C   UNL     1      -5.139  13.508  23.008  0.00  0.00    +0.000 A 
ATOM     19  O   UNL     1      -6.118  12.811  21.002  0.00  0.00    +0.000 OA
ATOM     20  C   UNL     1      -5.917  12.006  19.840  0.00  0.00    +0.000 C 
ATOM     21  C   UNL     1      -4.596  12.336  19.166  0.00  0.00    +0.000 C 
ATOM     22  O   UNL     1      -3.488  12.066  20.030  0.00  0.00    +0.000 OA
ENDBRANCH  11  15
ENDBRANCH   1  11
BRANCH   7  23
ATOM     23  O   UNL     1       2.117   8.209  17.998  0.00  0.00    +0.000 OA
BRANCH  23  24
ATOM     24  C   UNL     1       2.844   7.163  18.659  0.00  0.00    +0.000 C 
BRANCH  24  25
ATOM     25  C   UNL     1       2.503   5.789  18.060  0.00  0.00    +0.000 C 
BRANCH  25  26
ATOM     26  N   UNL     1       3.668   5.150  17.410  0.00  0.00    +0.000 NA
ATOM     27  C   UNL     1       3.741   3.694  17.602  0.00  0.00    +0.000 C 
ATOM     28  C   UNL     1       4.438   3.514  18.933  0.00  0.00    +0.000 C 
ATOM     29  C   UNL     1       5.495   4.602  18.900  0.00  0.00    +0.000 C 
ATOM     30  C   UNL     1       4.935   5.670  17.962  0.00  0.00    +0.000 C 
ENDBRANCH  25  26
ENDBRANCH  24  25
ENDBRANCH  23  24
ENDBRANCH   7  23
BRANCH   9  31
ATOM     31  O   UNL     1      -0.246  12.322  19.115  0.00  0.00    +0.000 OA
BRANCH  31  32
ATOM     32  C   UNL     1       0.665  13.364  18.705  0.00  0.00    +0.000 C 
ATOM     33  C   UNL     1       1.950  13.352  19.543  0.00  0.00    +0.000 C 
ATOM     34  C   UNL     1       2.735  14.648  19.391  0.00  0.00    +0.000 C 
ATOM     35  O   UNL     1       1.909  15.772  19.678  0.00  0.00    +0.000 OA
ATOM     36  C   UNL     1       0.830  15.886  18.756  0.00  0.00    +0.000 C 
ATOM     37  C   UNL     1      -0.094  14.685  18.869  0.00  0.00    +0.000 C 
ENDBRANCH  31  32
ENDBRANCH   9  31
TORSDOF 8
ENDMDL
