MODEL 1
REMARK VINA RESULT:      -8.5      0.000      0.000
REMARK  Name = 
REMARK  8 active torsions:
REMARK  status: ('A' for Active; 'I' for Inactive)
REMARK    1  A    between atoms: C_1  and  C_2
REMARK    2  A    between atoms: C_2  and  N_3
REMARK    3  A    between atoms: C_2  and  C_19
REMARK    4  A    between atoms: C_8  and  N_9
REMARK    5  A    between atoms: C_14  and  C_15
REMARK    6  A    between atoms: C_15  and  C_16
REMARK    7  A    between atoms: C_22  and  C_23
REMARK    8  A    between atoms: C_27  and  C_28
REMARK                            x       y       z     vdW  Elec       q    Type
REMARK                         _______ _______ _______ _____ _____    ______ ____
ROOT
ATOM      1  C   UNL     1      -0.922  10.306  17.843  0.00  0.00    +0.000 C 
ATOM      2  C   UNL     1       0.203  10.494  18.872  0.00  0.00    +0.000 C 
ENDROOT
BRANCH   2   3
ATOM      3  N   UNL     1       0.988  11.682  18.523  0.00  0.00    +0.000 N 
ATOM      4  C   UNL     1       1.024  12.683  19.482  0.00  0.00    +0.000 A 
ATOM      5  N   UNL     1       2.198  13.309  19.615  0.00  0.00    +0.000 NA
ATOM      6  C   UNL     1       2.294  14.226  20.593  0.00  0.00    +0.000 A 
ATOM      7  C   UNL     1       1.278  14.502  21.468  0.00  0.00    +0.000 A 
ATOM      8  C   UNL     1       0.098  13.836  21.234  0.00  0.00    +0.000 A 
ATOM      9  N   UNL     1      -0.055  12.964  20.220  0.00  0.00    +0.000 NA
ATOM     10  H   UNL     1       1.960  11.493  18.302  0.00  0.00    +0.000 HD
BRANCH   8  11
ATOM     11  N   UNL     1      -1.017  14.074  22.041  0.00  0.00    +0.000 N 
ATOM     12  C   UNL     1      -1.972  15.034  21.817  0.00  0.00    +0.000 C 
ATOM     13  O   UNL     1      -2.075  15.777  20.854  0.00  0.00    +0.000 OA
ATOM     14  O   UNL     1      -2.796  15.116  22.910  0.00  0.00    +0.000 OA
ATOM     15  C   UNL     1      -2.226  14.314  23.955  0.00  0.00    +0.000 C 
ATOM     16  C   UNL     1      -1.269  13.361  23.260  0.00  0.00    +0.000 C 
BRANCH  16  17
ATOM     17  C   UNL     1      -1.966  12.002  23.036  0.00  0.00    +0.000 C 
ATOM     18  C   UNL     1      -1.044  10.795  23.071  0.00  0.00    +0.000 C 
ATOM     19  F   UNL     1      -2.595  12.006  21.825  0.00  0.00    +0.000 F 
ENDBRANCH  16  17
ENDBRANCH   8  11
ENDBRANCH   2   3
BRANCH   2  20
ATOM     20  C   UNL     1       1.105   9.255  18.888  0.00  0.00    +0.000 A 
ATOM     21  N   UNL     1       1.835   8.968  17.780  0.00  0.00    +0.000 NA
ATOM     22  C   UNL     1       2.663   7.896  17.831  0.00  0.00    +0.000 A 
ATOM     23  C   UNL     1       2.855   7.069  18.943  0.00  0.00    +0.000 A 
ATOM     24  C   UNL     1       2.079   7.389  20.067  0.00  0.00    +0.000 A 
ATOM     25  C   UNL     1       1.206   8.476  20.037  0.00  0.00    +0.000 A 
ATOM     26  F   UNL     1       0.485   8.765  21.128  0.00  0.00    +0.000 F 
BRANCH  23  27
ATOM     27  C   UNL     1       3.837   5.961  18.931  0.00  0.00    +0.000 A 
ATOM     28  C   UNL     1       3.487   4.677  19.372  0.00  0.00    +0.000 A 
ATOM     29  C   UNL     1       4.423   3.657  19.345  0.00  0.00    +0.000 A 
ATOM     30  N   UNL     1       5.679   3.811  18.897  0.00  0.00    +0.000 NA
ATOM     31  C   UNL     1       6.042   5.048  18.452  0.00  0.00    +0.000 A 
ATOM     32  C   UNL     1       5.151   6.130  18.468  0.00  0.00    +0.000 A 
BRANCH  31  33
ATOM     33  C   UNL     1       7.448   5.266  17.908  0.00  0.00    +0.000 C 
ATOM     34  F   UNL     1       8.142   4.121  17.653  0.00  0.00    +0.000 F 
ATOM     35  F   UNL     1       7.443   5.966  16.734  0.00  0.00    +0.000 F 
ATOM     36  F   UNL     1       8.228   5.995  18.759  0.00  0.00    +0.000 F 
ENDBRANCH  31  33
ENDBRANCH  23  27
ENDBRANCH   2  20
TORSDOF 6
ENDMDL
MODEL 2
REMARK VINA RESULT:      -8.3      1.012      1.099
REMARK  Name = 
REMARK  8 active torsions:
REMARK  status: ('A' for Active; 'I' for Inactive)
REMARK    1  A    between atoms: C_1  and  C_2
REMARK    2  A    between atoms: C_2  and  N_3
REMARK    3  A    between atoms: C_2  and  C_19
REMARK    4  A    between atoms: C_8  and  N_9
REMARK    5  A    between atoms: C_14  and  C_15
REMARK    6  A    between atoms: C_15  and  C_16
REMARK    7  A    between atoms: C_22  and  C_23
REMARK    8  A    between atoms: C_27  and  C_28
REMARK                            x       y       z     vdW  Elec       q    Type
REMARK                         _______ _______ _______ _____ _____    ______ ____
ROOT
ATOM      1  C   UNL     1      -0.780  10.813  18.774  0.00  0.00    +0.000 C 
ATOM      2  C   UNL     1       0.581  10.731  19.482  0.00  0.00    +0.000 C 
ENDROOT
BRANCH   2   3
ATOM      3  N   UNL     1       1.393  11.895  19.110  0.00  0.00    +0.000 N 
ATOM      4  C   UNL     1       1.384  12.948  20.011  0.00  0.00    +0.000 A 
ATOM      5  N   UNL     1       2.555  13.575  20.172  0.00  0.00    +0.000 NA
ATOM      6  C   UNL     1       2.605  14.546  21.101  0.00  0.00    +0.000 A 
ATOM      7  C   UNL     1       1.545  14.876  21.903  0.00  0.00    +0.000 A 
ATOM      8  C   UNL     1       0.374  14.203  21.643  0.00  0.00    +0.000 A 
ATOM      9  N   UNL     1       0.269  13.275  20.673  0.00  0.00    +0.000 NA
ATOM     10  H   UNL     1       2.374  11.689  18.953  0.00  0.00    +0.000 HD
BRANCH   8  11
ATOM     11  N   UNL     1      -0.780  14.490  22.374  0.00  0.00    +0.000 N 
ATOM     12  C   UNL     1      -1.600  15.575  22.175  0.00  0.00    +0.000 C 
ATOM     13  O   UNL     1      -1.528  16.414  21.292  0.00  0.00    +0.000 OA
ATOM     14  O   UNL     1      -2.511  15.646  23.196  0.00  0.00    +0.000 OA
ATOM     15  C   UNL     1      -2.135  14.685  24.193  0.00  0.00    +0.000 C 
ATOM     16  C   UNL     1      -1.225  13.698  23.483  0.00  0.00    +0.000 C 
BRANCH  16  17
ATOM     17  C   UNL     1      -2.041  12.458  23.056  0.00  0.00    +0.000 C 
ATOM     18  C   UNL     1      -3.389  12.311  23.741  0.00  0.00    +0.000 C 
ATOM     19  F   UNL     1      -1.322  11.328  23.314  0.00  0.00    +0.000 F 
ENDBRANCH  16  17
ENDBRANCH   8  11
ENDBRANCH   2   3
BRANCH   2  20
ATOM     20  C   UNL     1       1.300   9.440  19.079  0.00  0.00    +0.000 A 
ATOM     21  N   UNL     1       1.782   9.331  17.814  0.00  0.00    +0.000 NA
ATOM     22  C   UNL     1       2.457   8.201  17.492  0.00  0.00    +0.000 A 
ATOM     23  C   UNL     1       2.728   7.140  18.363  0.00  0.00    +0.000 A 
ATOM     24  C   UNL     1       2.210   7.281  19.658  0.00  0.00    +0.000 A 
ATOM     25  C   UNL     1       1.496   8.426  20.012  0.00  0.00    +0.000 A 
ATOM     26  F   UNL     1       1.020   8.539  21.259  0.00  0.00    +0.000 F 
BRANCH  23  27
ATOM     27  C   UNL     1       3.538   5.973  17.942  0.00  0.00    +0.000 A 
ATOM     28  C   UNL     1       2.957   4.707  17.784  0.00  0.00    +0.000 A 
ATOM     29  C   UNL     1       3.737   3.634  17.384  0.00  0.00    +0.000 A 
ATOM     30  N   UNL     1       5.048   3.726  17.114  0.00  0.00    +0.000 NA
ATOM     31  C   UNL     1       5.635   4.950  17.250  0.00  0.00    +0.000 A 
ATOM     32  C   UNL     1       4.911   6.075  17.668  0.00  0.00    +0.000 A 
BRANCH  31  33
ATOM     33  C   UNL     1       7.114   5.110  16.927  0.00  0.00    +0.000 C 
ATOM     34  F   UNL     1       7.936   4.238  17.576  0.00  0.00    +0.000 F 
ATOM     35  F   UNL     1       7.373   4.942  15.596  0.00  0.00    +0.000 F 
ATOM     36  F   UNL     1       7.581   6.358  17.229  0.00  0.00    +0.000 F 
ENDBRANCH  31  33
ENDBRANCH  23  27
ENDBRANCH   2  20
TORSDOF 6
ENDMDL
MODEL 3
REMARK VINA RESULT:      -8.1      2.473      3.751
REMARK  Name = 
REMARK  8 active torsions:
REMARK  status: ('A' for Active; 'I' for Inactive)
REMARK    1  A    between atoms: C_1  and  C_2
REMARK    2  A    between atoms: C_2  and  N_3
REMARK    3  A    between atoms: C_2  and  C_19
REMARK    4  A    between atoms: C_8  and  N_9
REMARK    5  A    between atoms: C_14  and  C_15
REMARK    6  A    between atoms: C_15  and  C_16
REMARK    7  A    between atoms: C_22  and  C_23
REMARK    8  A    between atoms: C_27  and  C_28
REMARK                            x       y       z     vdW  Elec       q    Type
REMARK                         _______ _______ _______ _____ _____    ______ ____
ROOT
ATOM      1  C   UNL     1       0.591   9.171  22.533  0.00  0.00    +0.000 C 
ATOM      2  C   UNL     1       0.704   9.549  21.048  0.00  0.00    +0.000 C 
ENDROOT
BRANCH   2   3
ATOM      3  N   UNL     1      -0.640   9.723  20.486  0.00  0.00    +0.000 N 
ATOM      4  C   UNL     1      -0.823  10.851  19.701  0.00  0.00    +0.000 A 
ATOM      5  N   UNL     1      -1.602  10.682  18.627  0.00  0.00    +0.000 NA
ATOM      6  C   UNL     1      -1.731  11.731  17.796  0.00  0.00    +0.000 A 
ATOM      7  C   UNL     1      -1.075  12.919  17.975  0.00  0.00    +0.000 A 
ATOM      8  C   UNL     1      -0.325  13.014  19.124  0.00  0.00    +0.000 A 
ATOM      9  N   UNL     1      -0.229  12.008  20.014  0.00  0.00    +0.000 NA
ATOM     10  H   UNL     1      -0.960   8.949  19.915  0.00  0.00    +0.000 HD
BRANCH   8  11
ATOM     11  N   UNL     1       0.353  14.196  19.427  0.00  0.00    +0.000 N 
ATOM     12  C   UNL     1      -0.022  15.106  20.385  0.00  0.00    +0.000 C 
ATOM     13  O   UNL     1      -0.935  15.012  21.189  0.00  0.00    +0.000 OA
ATOM     14  O   UNL     1       0.752  16.232  20.266  0.00  0.00    +0.000 OA
ATOM     15  C   UNL     1       1.518  16.118  19.058  0.00  0.00    +0.000 C 
ATOM     16  C   UNL     1       1.517  14.637  18.715  0.00  0.00    +0.000 C 
BRANCH  16  17
ATOM     17  C   UNL     1       2.823  13.990  19.225  0.00  0.00    +0.000 C 
ATOM     18  C   UNL     1       4.072  14.837  19.046  0.00  0.00    +0.000 C 
ATOM     19  F   UNL     1       3.030  12.808  18.575  0.00  0.00    +0.000 F 
ENDBRANCH  16  17
ENDBRANCH   8  11
ENDBRANCH   2   3
BRANCH   2  20
ATOM     20  C   UNL     1       1.451   8.449  20.287  0.00  0.00    +0.000 A 
ATOM     21  N   UNL     1       1.555   7.220  20.855  0.00  0.00    +0.000 NA
ATOM     22  C   UNL     1       2.178   6.248  20.146  0.00  0.00    +0.000 A 
ATOM     23  C   UNL     1       2.702   6.392  18.856  0.00  0.00    +0.000 A 
ATOM     24  C   UNL     1       2.585   7.675  18.302  0.00  0.00    +0.000 A 
ATOM     25  C   UNL     1       1.965   8.699  19.018  0.00  0.00    +0.000 A 
ATOM     26  F   UNL     1       1.858   9.912  18.460  0.00  0.00    +0.000 F 
BRANCH  23  27
ATOM     27  C   UNL     1       3.303   5.251  18.127  0.00  0.00    +0.000 A 
ATOM     28  C   UNL     1       2.947   3.929  18.431  0.00  0.00    +0.000 A 
ATOM     29  C   UNL     1       3.520   2.881  17.729  0.00  0.00    +0.000 A 
ATOM     30  N   UNL     1       4.409   3.046  16.737  0.00  0.00    +0.000 NA
ATOM     31  C   UNL     1       4.764   4.324  16.416  0.00  0.00    +0.000 A 
ATOM     32  C   UNL     1       4.237   5.431  17.095  0.00  0.00    +0.000 A 
BRANCH  31  33
ATOM     33  C   UNL     1       5.747   4.564  15.278  0.00  0.00    +0.000 C 
ATOM     34  F   UNL     1       5.507   3.831  14.155  0.00  0.00    +0.000 F 
ATOM     35  F   UNL     1       5.759   5.869  14.874  0.00  0.00    +0.000 F 
ATOM     36  F   UNL     1       7.036   4.286  15.637  0.00  0.00    +0.000 F 
ENDBRANCH  31  33
ENDBRANCH  23  27
ENDBRANCH   2  20
TORSDOF 6
ENDMDL
MODEL 4
REMARK VINA RESULT:      -8.1      1.896      2.365
REMARK  Name = 
REMARK  8 active torsions:
REMARK  status: ('A' for Active; 'I' for Inactive)
REMARK    1  A    between atoms: C_1  and  C_2
REMARK    2  A    between atoms: C_2  and  N_3
REMARK    3  A    between atoms: C_2  and  C_19
REMARK    4  A    between atoms: C_8  and  N_9
REMARK    5  A    between atoms: C_14  and  C_15
REMARK    6  A    between atoms: C_15  and  C_16
REMARK    7  A    between atoms: C_22  and  C_23
REMARK    8  A    between atoms: C_27  and  C_28
REMARK                            x       y       z     vdW  Elec       q    Type
REMARK                         _______ _______ _______ _____ _____    ______ ____
ROOT
ATOM      1  C   UNL     1      -0.945  10.731  19.093  0.00  0.00    +0.000 C 
ATOM      2  C   UNL     1       0.449  10.678  19.737  0.00  0.00    +0.000 C 
ENDROOT
BRANCH   2   3
ATOM      3  N   UNL     1       1.237  11.831  19.289  0.00  0.00    +0.000 N 
ATOM      4  C   UNL     1       1.232  12.930  20.135  0.00  0.00    +0.000 A 
ATOM      5  N   UNL     1       2.396  13.579  20.238  0.00  0.00    +0.000 NA
ATOM      6  C   UNL     1       2.451  14.597  21.115  0.00  0.00    +0.000 A 
ATOM      7  C   UNL     1       1.404  14.954  21.921  0.00  0.00    +0.000 A 
ATOM      8  C   UNL     1       0.238  14.253  21.721  0.00  0.00    +0.000 A 
ATOM      9  N   UNL     1       0.126  13.275  20.802  0.00  0.00    +0.000 NA
ATOM     10  H   UNL     1       2.217  11.631  19.121  0.00  0.00    +0.000 HD
BRANCH   8  11
ATOM     11  N   UNL     1      -0.905  14.563  22.461  0.00  0.00    +0.000 N 
ATOM     12  C   UNL     1      -1.698  15.670  22.277  0.00  0.00    +0.000 C 
ATOM     13  O   UNL     1      -1.608  16.516  21.402  0.00  0.00    +0.000 OA
ATOM     14  O   UNL     1      -2.602  15.754  23.304  0.00  0.00    +0.000 OA
ATOM     15  C   UNL     1      -2.246  14.773  24.289  0.00  0.00    +0.000 C 
ATOM     16  C   UNL     1      -1.365  13.770  23.564  0.00  0.00    +0.000 C 
BRANCH  16  17
ATOM     17  C   UNL     1      -2.214  12.557  23.129  0.00  0.00    +0.000 C 
ATOM     18  C   UNL     1      -3.535  12.402  23.865  0.00  0.00    +0.000 C 
ATOM     19  F   UNL     1      -1.500  11.410  23.316  0.00  0.00    +0.000 F 
ENDBRANCH  16  17
ENDBRANCH   8  11
ENDBRANCH   2   3
BRANCH   2  20
ATOM     20  C   UNL     1       1.154   9.377  19.343  0.00  0.00    +0.000 A 
ATOM     21  N   UNL     1       1.559   9.220  18.056  0.00  0.00    +0.000 NA
ATOM     22  C   UNL     1       2.223   8.082  17.738  0.00  0.00    +0.000 A 
ATOM     23  C   UNL     1       2.558   7.059  18.632  0.00  0.00    +0.000 A 
ATOM     24  C   UNL     1       2.119   7.250  19.950  0.00  0.00    +0.000 A 
ATOM     25  C   UNL     1       1.417   8.403  20.301  0.00  0.00    +0.000 A 
ATOM     26  F   UNL     1       1.018   8.563  21.570  0.00  0.00    +0.000 F 
BRANCH  23  27
ATOM     27  C   UNL     1       3.352   5.883  18.209  0.00  0.00    +0.000 A 
ATOM     28  C   UNL     1       4.355   5.997  17.235  0.00  0.00    +0.000 A 
ATOM     29  C   UNL     1       5.086   4.881  16.862  0.00  0.00    +0.000 A 
ATOM     30  N   UNL     1       4.909   3.662  17.394  0.00  0.00    +0.000 NA
ATOM     31  C   UNL     1       3.946   3.527  18.352  0.00  0.00    +0.000 A 
ATOM     32  C   UNL     1       3.157   4.609  18.765  0.00  0.00    +0.000 A 
BRANCH  31  33
ATOM     33  C   UNL     1       3.727   2.169  19.006  0.00  0.00    +0.000 C 
ATOM     34  F   UNL     1       4.695   1.801  19.890  0.00  0.00    +0.000 F 
ATOM     35  F   UNL     1       2.551   2.116  19.700  0.00  0.00    +0.000 F 
ATOM     36  F   UNL     1       3.651   1.158  18.092  0.00  0.00    +0.000 F 
ENDBRANCH  31  33
ENDBRANCH  23  27
ENDBRANCH   2  20
TORSDOF 6
ENDMDL
MODEL 5
REMARK VINA RESULT:      -8.0      1.764      2.467
REMARK  Name = 
REMARK  8 active torsions:
REMARK  status: ('A' for Active; 'I' for Inactive)
REMARK    1  A    between atoms: C_1  and  C_2
REMARK    2  A    between atoms: C_2  and  N_3
REMARK    3  A    between atoms: C_2  and  C_19
REMARK    4  A    between atoms: C_8  and  N_9
REMARK    5  A    between atoms: C_14  and  C_15
REMARK    6  A    between atoms: C_15  and  C_16
REMARK    7  A    between atoms: C_22  and  C_23
REMARK    8  A    between atoms: C_27  and  C_28
REMARK                            x       y       z     vdW  Elec       q    Type
REMARK                         _______ _______ _______ _____ _____    ______ ____
ROOT
ATOM      1  C   UNL     1      -1.026  10.402  18.813  0.00  0.00    +0.000 C 
ATOM      2  C   UNL     1       0.457  10.686  19.098  0.00  0.00    +0.000 C 
ENDROOT
BRANCH   2   3
ATOM      3  N   UNL     1       0.974  11.623  18.095  0.00  0.00    +0.000 N 
ATOM      4  C   UNL     1       1.131  12.934  18.520  0.00  0.00    +0.000 A 
ATOM      5  N   UNL     1       2.214  13.563  18.051  0.00  0.00    +0.000 NA
ATOM      6  C   UNL     1       2.444  14.806  18.510  0.00  0.00    +0.000 A 
ATOM      7  C   UNL     1       1.661  15.418  19.451  0.00  0.00    +0.000 A 
ATOM      8  C   UNL     1       0.551  14.710  19.849  0.00  0.00    +0.000 A 
ATOM      9  N   UNL     1       0.251  13.493  19.358  0.00  0.00    +0.000 NA
ATOM     10  H   UNL     1       1.872  11.364  17.701  0.00  0.00    +0.000 HD
BRANCH   8  11
ATOM     11  N   UNL     1      -0.340  15.258  20.774  0.00  0.00    +0.000 N 
ATOM     12  C   UNL     1      -0.136  15.331  22.130  0.00  0.00    +0.000 C 
ATOM     13  O   UNL     1       0.868  15.025  22.752  0.00  0.00    +0.000 OA
ATOM     14  O   UNL     1      -1.294  15.738  22.740  0.00  0.00    +0.000 OA
ATOM     15  C   UNL     1      -2.338  15.734  21.756  0.00  0.00    +0.000 C 
ATOM     16  C   UNL     1      -1.630  15.770  20.412  0.00  0.00    +0.000 C 
BRANCH  16  17
ATOM     17  C   UNL     1      -1.584  17.223  19.892  0.00  0.00    +0.000 C 
ATOM     18  C   UNL     1      -2.756  18.093  20.315  0.00  0.00    +0.000 C 
ATOM     19  F   UNL     1      -1.544  17.217  18.528  0.00  0.00    +0.000 F 
ENDBRANCH  16  17
ENDBRANCH   8  11
ENDBRANCH   2   3
BRANCH   2  20
ATOM     20  C   UNL     1       1.254   9.379  19.054  0.00  0.00    +0.000 A 
ATOM     21  N   UNL     1       1.948   9.078  17.926  0.00  0.00    +0.000 NA
ATOM     22  C   UNL     1       2.686   7.941  17.924  0.00  0.00    +0.000 A 
ATOM     23  C   UNL     1       2.820   7.057  19.001  0.00  0.00    +0.000 A 
ATOM     24  C   UNL     1       2.084   7.393  20.146  0.00  0.00    +0.000 A 
ATOM     25  C   UNL     1       1.302   8.548  20.169  0.00  0.00    +0.000 A 
ATOM     26  F   UNL     1       0.617   8.851  21.280  0.00  0.00    +0.000 F 
BRANCH  23  27
ATOM     27  C   UNL     1       3.708   5.874  18.932  0.00  0.00    +0.000 A 
ATOM     28  C   UNL     1       3.415   4.706  19.652  0.00  0.00    +0.000 A 
ATOM     29  C   UNL     1       4.260   3.611  19.566  0.00  0.00    +0.000 A 
ATOM     30  N   UNL     1       5.366   3.582  18.806  0.00  0.00    +0.000 NA
ATOM     31  C   UNL     1       5.667   4.702  18.088  0.00  0.00    +0.000 A 
ATOM     32  C   UNL     1       4.867   5.852  18.141  0.00  0.00    +0.000 A 
BRANCH  31  33
ATOM     33  C   UNL     1       6.896   4.708  17.189  0.00  0.00    +0.000 C 
ATOM     34  F   UNL     1       6.778   3.954  16.060  0.00  0.00    +0.000 F 
ATOM     35  F   UNL     1       7.217   5.966  16.763  0.00  0.00    +0.000 F 
ATOM     36  F   UNL     1       8.011   4.249  17.830  0.00  0.00    +0.000 F 
ENDBRANCH  31  33
ENDBRANCH  23  27
ENDBRANCH   2  20
TORSDOF 6
ENDMDL
MODEL 6
REMARK VINA RESULT:      -8.0      4.106     10.817
REMARK  Name = 
REMARK  8 active torsions:
REMARK  status: ('A' for Active; 'I' for Inactive)
REMARK    1  A    between atoms: C_1  and  C_2
REMARK    2  A    between atoms: C_2  and  N_3
REMARK    3  A    between atoms: C_2  and  C_19
REMARK    4  A    between atoms: C_8  and  N_9
REMARK    5  A    between atoms: C_14  and  C_15
REMARK    6  A    between atoms: C_15  and  C_16
REMARK    7  A    between atoms: C_22  and  C_23
REMARK    8  A    between atoms: C_27  and  C_28
REMARK                            x       y       z     vdW  Elec       q    Type
REMARK                         _______ _______ _______ _____ _____    ______ ____
ROOT
ATOM      1  C   UNL     1       2.316   8.859  17.920  0.00  0.00    +0.000 C 
ATOM      2  C   UNL     1       1.969   8.541  19.383  0.00  0.00    +0.000 C 
ENDROOT
BRANCH   2   3
ATOM      3  N   UNL     1       1.402   7.192  19.467  0.00  0.00    +0.000 N 
ATOM      4  C   UNL     1       2.321   6.154  19.508  0.00  0.00    +0.000 A 
ATOM      5  N   UNL     1       2.002   5.138  20.317  0.00  0.00    +0.000 NA
ATOM      6  C   UNL     1       2.910   4.154  20.449  0.00  0.00    +0.000 A 
ATOM      7  C   UNL     1       4.136   4.175  19.840  0.00  0.00    +0.000 A 
ATOM      8  C   UNL     1       4.362   5.241  19.000  0.00  0.00    +0.000 A 
ATOM      9  N   UNL     1       3.448   6.207  18.790  0.00  0.00    +0.000 NA
ATOM     10  H   UNL     1       0.795   7.040  20.265  0.00  0.00    +0.000 HD
BRANCH   8  11
ATOM     11  N   UNL     1       5.563   5.340  18.296  0.00  0.00    +0.000 N 
ATOM     12  C   UNL     1       6.812   5.436  18.859  0.00  0.00    +0.000 C 
ATOM     13  O   UNL     1       7.106   5.362  20.042  0.00  0.00    +0.000 OA
ATOM     14  O   UNL     1       7.729   5.721  17.881  0.00  0.00    +0.000 OA
ATOM     15  C   UNL     1       7.012   6.016  16.674  0.00  0.00    +0.000 C 
ATOM     16  C   UNL     1       5.630   5.413  16.865  0.00  0.00    +0.000 C 
BRANCH  16  17
ATOM     17  C   UNL     1       5.572   4.030  16.182  0.00  0.00    +0.000 C 
ATOM     18  C   UNL     1       6.037   4.008  14.736  0.00  0.00    +0.000 C 
ATOM     19  F   UNL     1       4.291   3.561  16.210  0.00  0.00    +0.000 F 
ENDBRANCH  16  17
ENDBRANCH   8  11
ENDBRANCH   2   3
BRANCH   2  20
ATOM     20  C   UNL     1       0.962   9.567  19.912  0.00  0.00    +0.000 A 
ATOM     21  N   UNL     1       0.314  10.362  19.022  0.00  0.00    +0.000 NA
ATOM     22  C   UNL     1      -0.608  11.230  19.506  0.00  0.00    +0.000 A 
ATOM     23  C   UNL     1      -0.976  11.359  20.850  0.00  0.00    +0.000 A 
ATOM     24  C   UNL     1      -0.282  10.529  21.743  0.00  0.00    +0.000 A 
ATOM     25  C   UNL     1       0.684   9.640  21.274  0.00  0.00    +0.000 A 
ATOM     26  F   UNL     1       1.325   8.851  22.148  0.00  0.00    +0.000 F 
BRANCH  23  27
ATOM     27  C   UNL     1      -2.049  12.285  21.279  0.00  0.00    +0.000 A 
ATOM     28  C   UNL     1      -2.592  13.226  20.391  0.00  0.00    +0.000 A 
ATOM     29  C   UNL     1      -3.598  14.077  20.817  0.00  0.00    +0.000 A 
ATOM     30  N   UNL     1      -4.119  14.055  22.054  0.00  0.00    +0.000 NA
ATOM     31  C   UNL     1      -3.615  13.141  22.933  0.00  0.00    +0.000 A 
ATOM     32  C   UNL     1      -2.584  12.261  22.576  0.00  0.00    +0.000 A 
BRANCH  31  33
ATOM     33  C   UNL     1      -4.193  13.058  24.339  0.00  0.00    +0.000 C 
ATOM     34  F   UNL     1      -3.501  13.760  25.281  0.00  0.00    +0.000 F 
ATOM     35  F   UNL     1      -5.476  13.526  24.398  0.00  0.00    +0.000 F 
ATOM     36  F   UNL     1      -4.256  11.775  24.802  0.00  0.00    +0.000 F 
ENDBRANCH  31  33
ENDBRANCH  23  27
ENDBRANCH   2  20
TORSDOF 6
ENDMDL
MODEL 7
REMARK VINA RESULT:      -8.0      2.699      3.579
REMARK  Name = 
REMARK  8 active torsions:
REMARK  status: ('A' for Active; 'I' for Inactive)
REMARK    1  A    between atoms: C_1  and  C_2
REMARK    2  A    between atoms: C_2  and  N_3
REMARK    3  A    between atoms: C_2  and  C_19
REMARK    4  A    between atoms: C_8  and  N_9
REMARK    5  A    between atoms: C_14  and  C_15
REMARK    6  A    between atoms: C_15  and  C_16
REMARK    7  A    between atoms: C_22  and  C_23
REMARK    8  A    between atoms: C_27  and  C_28
REMARK                            x       y       z     vdW  Elec       q    Type
REMARK                         _______ _______ _______ _____ _____    ______ ____
ROOT
ATOM      1  C   UNL     1       1.213  12.223  18.373  0.00  0.00    +0.000 C 
ATOM      2  C   UNL     1       0.604  11.128  19.262  0.00  0.00    +0.000 C 
ENDROOT
BRANCH   2   3
ATOM      3  N   UNL     1       0.799  11.480  20.672  0.00  0.00    +0.000 N 
ATOM      4  C   UNL     1      -0.353  11.781  21.382  0.00  0.00    +0.000 A 
ATOM      5  N   UNL     1      -0.380  11.341  22.645  0.00  0.00    +0.000 NA
ATOM      6  C   UNL     1      -1.516  11.540  23.336  0.00  0.00    +0.000 A 
ATOM      7  C   UNL     1      -2.634  12.117  22.798  0.00  0.00    +0.000 A 
ATOM      8  C   UNL     1      -2.503  12.569  21.505  0.00  0.00    +0.000 A 
ATOM      9  N   UNL     1      -1.358  12.450  20.807  0.00  0.00    +0.000 NA
ATOM     10  H   UNL     1       1.270  10.770  21.221  0.00  0.00    +0.000 HD
BRANCH   8  11
ATOM     11  N   UNL     1      -3.569  13.211  20.872  0.00  0.00    +0.000 N 
ATOM     12  C   UNL     1      -3.809  14.563  20.890  0.00  0.00    +0.000 C 
ATOM     13  O   UNL     1      -3.109  15.441  21.369  0.00  0.00    +0.000 OA
ATOM     14  O   UNL     1      -5.041  14.811  20.343  0.00  0.00    +0.000 OA
ATOM     15  C   UNL     1      -5.701  13.551  20.147  0.00  0.00    +0.000 C 
ATOM     16  C   UNL     1      -4.595  12.509  20.159  0.00  0.00    +0.000 C 
BRANCH  16  17
ATOM     17  C   UNL     1      -4.199  12.162  18.707  0.00  0.00    +0.000 C 
ATOM     18  C   UNL     1      -5.363  12.018  17.741  0.00  0.00    +0.000 C 
ATOM     19  F   UNL     1      -3.503  10.988  18.693  0.00  0.00    +0.000 F 
ENDBRANCH  16  17
ENDBRANCH   8  11
ENDBRANCH   2   3
BRANCH   2  20
ATOM     20  C   UNL     1       1.273   9.783  18.960  0.00  0.00    +0.000 A 
ATOM     21  N   UNL     1       1.928   9.632  17.781  0.00  0.00    +0.000 NA
ATOM     22  C   UNL     1       2.554   8.451  17.553  0.00  0.00    +0.000 A 
ATOM     23  C   UNL     1       2.609   7.375  18.446  0.00  0.00    +0.000 A 
ATOM     24  C   UNL     1       1.916   7.562  19.651  0.00  0.00    +0.000 A 
ATOM     25  C   UNL     1       1.248   8.760  19.904  0.00  0.00    +0.000 A 
ATOM     26  F   UNL     1       0.602   8.914  21.067  0.00  0.00    +0.000 F 
BRANCH  23  27
ATOM     27  C   UNL     1       3.380   6.148  18.142  0.00  0.00    +0.000 A 
ATOM     28  C   UNL     1       4.689   6.219  17.643  0.00  0.00    +0.000 A 
ATOM     29  C   UNL     1       5.389   5.055  17.372  0.00  0.00    +0.000 A 
ATOM     30  N   UNL     1       4.895   3.824  17.573  0.00  0.00    +0.000 NA
ATOM     31  C   UNL     1       3.627   3.728  18.068  0.00  0.00    +0.000 A 
ATOM     32  C   UNL     1       2.854   4.863  18.348  0.00  0.00    +0.000 A 
BRANCH  31  33
ATOM     33  C   UNL     1       3.032   2.353  18.340  0.00  0.00    +0.000 C 
ATOM     34  F   UNL     1       2.774   2.094  19.653  0.00  0.00    +0.000 F 
ATOM     35  F   UNL     1       1.847   2.166  17.685  0.00  0.00    +0.000 F 
ATOM     36  F   UNL     1       3.843   1.341  17.912  0.00  0.00    +0.000 F 
ENDBRANCH  31  33
ENDBRANCH  23  27
ENDBRANCH   2  20
TORSDOF 6
ENDMDL
MODEL 8
REMARK VINA RESULT:      -8.0      2.652      3.770
REMARK  Name = 
REMARK  8 active torsions:
REMARK  status: ('A' for Active; 'I' for Inactive)
REMARK    1  A    between atoms: C_1  and  C_2
REMARK    2  A    between atoms: C_2  and  N_3
REMARK    3  A    between atoms: C_2  and  C_19
REMARK    4  A    between atoms: C_8  and  N_9
REMARK    5  A    between atoms: C_14  and  C_15
REMARK    6  A    between atoms: C_15  and  C_16
REMARK    7  A    between atoms: C_22  and  C_23
REMARK    8  A    between atoms: C_27  and  C_28
REMARK                            x       y       z     vdW  Elec       q    Type
REMARK                         _______ _______ _______ _____ _____    ______ ____
ROOT
ATOM      1  C   UNL     1       0.684   9.291  22.581  0.00  0.00    +0.000 C 
ATOM      2  C   UNL     1       0.777   9.655  21.092  0.00  0.00    +0.000 C 
ENDROOT
BRANCH   2   3
ATOM      3  N   UNL     1      -0.572   9.879  20.560  0.00  0.00    +0.000 N 
ATOM      4  C   UNL     1      -0.723  10.995  19.752  0.00  0.00    +0.000 A 
ATOM      5  N   UNL     1      -1.537  10.837  18.703  0.00  0.00    +0.000 NA
ATOM      6  C   UNL     1      -1.641  11.871  17.849  0.00  0.00    +0.000 A 
ATOM      7  C   UNL     1      -0.926  13.031  17.982  0.00  0.00    +0.000 A 
ATOM      8  C   UNL     1      -0.141  13.118  19.108  0.00  0.00    +0.000 A 
ATOM      9  N   UNL     1      -0.069  12.130  20.020  0.00  0.00    +0.000 NA
ATOM     10  H   UNL     1      -0.943   9.107  20.017  0.00  0.00    +0.000 HD
BRANCH   8  11
ATOM     11  N   UNL     1       0.598  14.274  19.364  0.00  0.00    +0.000 N 
ATOM     12  C   UNL     1       1.856  14.539  18.881  0.00  0.00    +0.000 C 
ATOM     13  O   UNL     1       2.507  13.877  18.087  0.00  0.00    +0.000 OA
ATOM     14  O   UNL     1       2.350  15.660  19.496  0.00  0.00    +0.000 OA
ATOM     15  C   UNL     1       1.454  16.013  20.560  0.00  0.00    +0.000 C 
ATOM     16  C   UNL     1       0.142  15.321  20.231  0.00  0.00    +0.000 C 
BRANCH  16  17
ATOM     17  C   UNL     1      -0.806  16.319  19.532  0.00  0.00    +0.000 C 
ATOM     18  C   UNL     1      -0.431  17.782  19.696  0.00  0.00    +0.000 C 
ATOM     19  F   UNL     1      -2.072  16.161  20.016  0.00  0.00    +0.000 F 
ENDBRANCH  16  17
ENDBRANCH   8  11
ENDBRANCH   2   3
BRANCH   2  20
ATOM     20  C   UNL     1       1.462   8.523  20.321  0.00  0.00    +0.000 A 
ATOM     21  N   UNL     1       1.561   7.303  20.908  0.00  0.00    +0.000 NA
ATOM     22  C   UNL     1       2.128   6.302  20.192  0.00  0.00    +0.000 A 
ATOM     23  C   UNL     1       2.598   6.408  18.878  0.00  0.00    +0.000 A 
ATOM     24  C   UNL     1       2.488   7.683  18.304  0.00  0.00    +0.000 A 
ATOM     25  C   UNL     1       1.925   8.735  19.026  0.00  0.00    +0.000 A 
ATOM     26  F   UNL     1       1.824   9.940  18.450  0.00  0.00    +0.000 F 
BRANCH  23  27
ATOM     27  C   UNL     1       3.138   5.239  18.147  0.00  0.00    +0.000 A 
ATOM     28  C   UNL     1       2.474   4.003  18.164  0.00  0.00    +0.000 A 
ATOM     29  C   UNL     1       2.998   2.927  17.466  0.00  0.00    +0.000 A 
ATOM     30  N   UNL     1       4.123   2.989  16.738  0.00  0.00    +0.000 NA
ATOM     31  C   UNL     1       4.782   4.183  16.696  0.00  0.00    +0.000 A 
ATOM     32  C   UNL     1       4.319   5.308  17.392  0.00  0.00    +0.000 A 
BRANCH  31  33
ATOM     33  C   UNL     1       6.048   4.310  15.860  0.00  0.00    +0.000 C 
ATOM     34  F   UNL     1       6.216   5.523  15.263  0.00  0.00    +0.000 F 
ATOM     35  F   UNL     1       7.178   4.102  16.601  0.00  0.00    +0.000 F 
ATOM     36  F   UNL     1       6.103   3.388  14.854  0.00  0.00    +0.000 F 
ENDBRANCH  31  33
ENDBRANCH  23  27
ENDBRANCH   2  20
TORSDOF 6
ENDMDL
MODEL 9
REMARK VINA RESULT:      -8.0      3.160      4.332
REMARK  Name = 
REMARK  8 active torsions:
REMARK  status: ('A' for Active; 'I' for Inactive)
REMARK    1  A    between atoms: C_1  and  C_2
REMARK    2  A    between atoms: C_2  and  N_3
REMARK    3  A    between atoms: C_2  and  C_19
REMARK    4  A    between atoms: C_8  and  N_9
REMARK    5  A    between atoms: C_14  and  C_15
REMARK    6  A    between atoms: C_15  and  C_16
REMARK    7  A    between atoms: C_22  and  C_23
REMARK    8  A    between atoms: C_27  and  C_28
REMARK                            x       y       z     vdW  Elec       q    Type
REMARK                         _______ _______ _______ _____ _____    ______ ____
ROOT
ATOM      1  C   UNL     1       1.025  12.333  18.811  0.00  0.00    +0.000 C 
ATOM      2  C   UNL     1       0.288  11.330  19.712  0.00  0.00    +0.000 C 
ENDROOT
BRANCH   2   3
ATOM      3  N   UNL     1       0.276  11.831  21.090  0.00  0.00    +0.000 N 
ATOM      4  C   UNL     1      -0.977  12.095  21.624  0.00  0.00    +0.000 A 
ATOM      5  N   UNL     1      -1.129  11.776  22.913  0.00  0.00    +0.000 NA
ATOM      6  C   UNL     1      -2.355  11.938  23.441  0.00  0.00    +0.000 A 
ATOM      7  C   UNL     1      -3.438  12.360  22.716  0.00  0.00    +0.000 A 
ATOM      8  C   UNL     1      -3.178  12.697  21.408  0.00  0.00    +0.000 A 
ATOM      9  N   UNL     1      -1.949  12.615  20.866  0.00  0.00    +0.000 NA
ATOM     10  H   UNL     1       0.726  11.220  21.764  0.00  0.00    +0.000 HD
BRANCH   8  11
ATOM     11  N   UNL     1      -4.201  13.179  20.589  0.00  0.00    +0.000 N 
ATOM     12  C   UNL     1      -4.617  14.486  20.518  0.00  0.00    +0.000 C 
ATOM     13  O   UNL     1      -4.126  15.457  21.071  0.00  0.00    +0.000 OA
ATOM     14  O   UNL     1      -5.765  14.556  19.772  0.00  0.00    +0.000 OA
ATOM     15  C   UNL     1      -6.212  13.215  19.520  0.00  0.00    +0.000 C 
ATOM     16  C   UNL     1      -4.996  12.333  19.747  0.00  0.00    +0.000 C 
BRANCH  16  17
ATOM     17  C   UNL     1      -4.325  12.022  18.391  0.00  0.00    +0.000 C 
ATOM     18  C   UNL     1      -5.285  11.845  17.226  0.00  0.00    +0.000 C 
ATOM     19  F   UNL     1      -3.592  10.876  18.498  0.00  0.00    +0.000 F 
ENDBRANCH  16  17
ENDBRANCH   8  11
ENDBRANCH   2   3
BRANCH   2  20
ATOM     20  C   UNL     1       0.989   9.969  19.655  0.00  0.00    +0.000 A 
ATOM     21  N   UNL     1       1.015   9.204  20.777  0.00  0.00    +0.000 NA
ATOM     22  C   UNL     1       1.598   7.983  20.694  0.00  0.00    +0.000 A 
ATOM     23  C   UNL     1       2.153   7.424  19.538  0.00  0.00    +0.000 A 
ATOM     24  C   UNL     1       2.116   8.243  18.400  0.00  0.00    +0.000 A 
ATOM     25  C   UNL     1       1.539   9.511  18.462  0.00  0.00    +0.000 A 
ATOM     26  F   UNL     1       1.509  10.269  17.357  0.00  0.00    +0.000 F 
BRANCH  23  27
ATOM     27  C   UNL     1       2.704   6.050  19.523  0.00  0.00    +0.000 A 
ATOM     28  C   UNL     1       4.074   5.820  19.324  0.00  0.00    +0.000 A 
ATOM     29  C   UNL     1       4.564   4.524  19.321  0.00  0.00    +0.000 A 
ATOM     30  N   UNL     1       3.800   3.438  19.515  0.00  0.00    +0.000 NA
ATOM     31  C   UNL     1       2.466   3.636  19.722  0.00  0.00    +0.000 A 
ATOM     32  C   UNL     1       1.899   4.918  19.720  0.00  0.00    +0.000 A 
BRANCH  31  33
ATOM     33  C   UNL     1       1.563   2.436  19.975  0.00  0.00    +0.000 C 
ATOM     34  F   UNL     1       0.262   2.616  19.610  0.00  0.00    +0.000 F 
ATOM     35  F   UNL     1       1.985   1.322  19.305  0.00  0.00    +0.000 F 
ATOM     36  F   UNL     1       1.534   2.075  21.292  0.00  0.00    +0.000 F 
ENDBRANCH  31  33
ENDBRANCH  23  27
ENDBRANCH   2  20
TORSDOF 6
ENDMDL
