MODEL 1
REMARK VINA RESULT:      -8.4      0.000      0.000
REMARK  Name = 
REMARK  2 active torsions:
REMARK  status: ('A' for Active; 'I' for Inactive)
REMARK    1  A    between atoms: C_1  and  C_2
REMARK    2  A    between atoms: C_10  and  C_11
REMARK                            x       y       z     vdW  Elec       q    Type
REMARK                         _______ _______ _______ _____ _____    ______ ____
ROOT
ATOM      1  C   UNL     1       7.349   6.377  17.939  0.00  0.00    +0.000 C 
ATOM      2  C   UNL     1       6.891   5.758  16.670  0.00  0.00    +0.000 A 
ATOM      3  N   UNL     1       7.609   5.871  15.503  0.00  0.00    +0.000 N 
ATOM      4  C   UNL     1       7.044   5.110  14.506  0.00  0.00    +0.000 A 
ATOM      5  C   UNL     1       7.479   4.875  13.197  0.00  0.00    +0.000 A 
ATOM      6  C   UNL     1       6.709   4.027  12.394  0.00  0.00    +0.000 A 
ATOM      7  C   UNL     1       5.550   3.437  12.888  0.00  0.00    +0.000 A 
ATOM      8  C   UNL     1       5.123   3.682  14.199  0.00  0.00    +0.000 A 
ATOM      9  C   UNL     1       5.884   4.535  15.032  0.00  0.00    +0.000 A 
ATOM     10  C   UNL     1       5.788   4.974  16.389  0.00  0.00    +0.000 A 
ATOM     11  H   UNL     1       8.469   6.388  15.400  0.00  0.00    +0.000 HD
ENDROOT
BRANCH  10  12
ATOM     12  C   UNL     1       4.830   4.574  17.349  0.00  0.00    +0.000 C 
ATOM     13  C   UNL     1       3.676   5.205  17.600  0.00  0.00    +0.000 C 
ATOM     14  N   UNL     1       2.947   4.714  18.670  0.00  0.00    +0.000 N 
ATOM     15  C   UNL     1       2.200   5.622  19.526  0.00  0.00    +0.000 C 
ATOM     16  C   UNL     1       1.592   4.977  20.746  0.00  0.00    +0.000 C 
ATOM     17  S   UNL     1       1.528   3.218  20.637  0.00  0.00    +0.000 S 
ATOM     18  O   UNL     1       1.328   2.733  21.992  0.00  0.00    +0.000 OA
ATOM     19  O   UNL     1       0.572   2.884  19.601  0.00  0.00    +0.000 OA
ATOM     20  N   UNL     1       3.024   2.828  20.157  0.00  0.00    +0.000 NA
ATOM     21  C   UNL     1       3.488   3.572  19.218  0.00  0.00    +0.000 C 
ATOM     22  S   UNL     1       5.050   3.217  18.437  0.00  0.00    +0.000 S 
ENDBRANCH  10  12
TORSDOF 1
ENDMDL
MODEL 2
REMARK VINA RESULT:      -8.0      1.342      1.759
REMARK  Name = 
REMARK  2 active torsions:
REMARK  status: ('A' for Active; 'I' for Inactive)
REMARK    1  A    between atoms: C_1  and  C_2
REMARK    2  A    between atoms: C_10  and  C_11
REMARK                            x       y       z     vdW  Elec       q    Type
REMARK                         _______ _______ _______ _____ _____    ______ ____
ROOT
ATOM      1  C   UNL     1       7.460   6.420  17.307  0.00  0.00    +0.000 C 
ATOM      2  C   UNL     1       7.016   5.759  16.054  0.00  0.00    +0.000 A 
ATOM      3  N   UNL     1       7.749   5.830  14.893  0.00  0.00    +0.000 N 
ATOM      4  C   UNL     1       7.195   5.037  13.916  0.00  0.00    +0.000 A 
ATOM      5  C   UNL     1       7.645   4.756  12.622  0.00  0.00    +0.000 A 
ATOM      6  C   UNL     1       6.883   3.882  11.838  0.00  0.00    +0.000 A 
ATOM      7  C   UNL     1       5.717   3.313  12.338  0.00  0.00    +0.000 A 
ATOM      8  C   UNL     1       5.274   3.603  13.634  0.00  0.00    +0.000 A 
ATOM      9  C   UNL     1       6.026   4.483  14.446  0.00  0.00    +0.000 A 
ATOM     10  C   UNL     1       5.914   4.969  15.787  0.00  0.00    +0.000 A 
ATOM     11  H   UNL     1       8.612   6.341  14.783  0.00  0.00    +0.000 HD
ENDROOT
BRANCH  10  12
ATOM     12  C   UNL     1       4.943   4.605  16.748  0.00  0.00    +0.000 C 
ATOM     13  C   UNL     1       4.655   3.352  17.119  0.00  0.00    +0.000 C 
ATOM     14  N   UNL     1       3.580   3.216  17.982  0.00  0.00    +0.000 N 
ATOM     15  C   UNL     1       2.690   2.072  17.870  0.00  0.00    +0.000 C 
ATOM     16  C   UNL     1       1.471   2.135  18.756  0.00  0.00    +0.000 C 
ATOM     17  S   UNL     1       1.616   3.332  20.043  0.00  0.00    +0.000 S 
ATOM     18  O   UNL     1       0.268   3.574  20.527  0.00  0.00    +0.000 OA
ATOM     19  O   UNL     1       2.639   2.863  20.957  0.00  0.00    +0.000 OA
ATOM     20  N   UNL     1       2.136   4.650  19.259  0.00  0.00    +0.000 NA
ATOM     21  C   UNL     1       3.068   4.423  18.406  0.00  0.00    +0.000 C 
ATOM     22  S   UNL     1       3.889   5.753  17.550  0.00  0.00    +0.000 S 
ENDBRANCH  10  12
TORSDOF 1
ENDMDL
MODEL 3
REMARK VINA RESULT:      -7.6      4.525      6.029
REMARK  Name = 
REMARK  2 active torsions:
REMARK  status: ('A' for Active; 'I' for Inactive)
REMARK    1  A    between atoms: C_1  and  C_2
REMARK    2  A    between atoms: C_10  and  C_11
REMARK                            x       y       z     vdW  Elec       q    Type
REMARK                         _______ _______ _______ _____ _____    ______ ____
ROOT
ATOM      1  C   UNL     1       5.237   7.036  17.376  0.00  0.00    +0.000 C 
ATOM      2  C   UNL     1       4.235   5.974  17.641  0.00  0.00    +0.000 A 
ATOM      3  N   UNL     1       4.469   4.656  17.326  0.00  0.00    +0.000 N 
ATOM      4  C   UNL     1       3.448   3.855  17.782  0.00  0.00    +0.000 A 
ATOM      5  C   UNL     1       3.311   2.464  17.746  0.00  0.00    +0.000 A 
ATOM      6  C   UNL     1       2.161   1.904  18.314  0.00  0.00    +0.000 A 
ATOM      7  C   UNL     1       1.190   2.712  18.896  0.00  0.00    +0.000 A 
ATOM      8  C   UNL     1       1.336   4.104  18.924  0.00  0.00    +0.000 A 
ATOM      9  C   UNL     1       2.490   4.695  18.357  0.00  0.00    +0.000 A 
ATOM     10  C   UNL     1       2.990   6.029  18.237  0.00  0.00    +0.000 A 
ATOM     11  H   UNL     1       5.303   4.307  16.878  0.00  0.00    +0.000 HD
ENDROOT
BRANCH  10  12
ATOM     12  C   UNL     1       2.409   7.208  18.761  0.00  0.00    +0.000 C 
ATOM     13  C   UNL     1       2.094   7.409  20.046  0.00  0.00    +0.000 C 
ATOM     14  N   UNL     1       1.417   8.586  20.318  0.00  0.00    +0.000 N 
ATOM     15  C   UNL     1       0.386   8.619  21.343  0.00  0.00    +0.000 C 
ATOM     16  C   UNL     1      -0.383   9.914  21.419  0.00  0.00    +0.000 C 
ATOM     17  S   UNL     1       0.419  11.242  20.580  0.00  0.00    +0.000 S 
ATOM     18  O   UNL     1      -0.592  12.265  20.378  0.00  0.00    +0.000 OA
ATOM     19  O   UNL     1       1.626  11.554  21.320  0.00  0.00    +0.000 OA
ATOM     20  N   UNL     1       0.800  10.592  19.148  0.00  0.00    +0.000 NA
ATOM     21  C   UNL     1       1.295   9.409  19.220  0.00  0.00    +0.000 C 
ATOM     22  S   UNL     1       1.926   8.575  17.776  0.00  0.00    +0.000 S 
ENDBRANCH  10  12
TORSDOF 1
ENDMDL
MODEL 4
REMARK VINA RESULT:      -7.4      4.125      5.321
REMARK  Name = 
REMARK  2 active torsions:
REMARK  status: ('A' for Active; 'I' for Inactive)
REMARK    1  A    between atoms: C_1  and  C_2
REMARK    2  A    between atoms: C_10  and  C_11
REMARK                            x       y       z     vdW  Elec       q    Type
REMARK                         _______ _______ _______ _____ _____    ______ ____
ROOT
ATOM      1  C   UNL     1       1.402   4.002  17.904  0.00  0.00    +0.000 C 
ATOM      2  C   UNL     1       2.780   4.516  17.703  0.00  0.00    +0.000 A 
ATOM      3  N   UNL     1       3.776   3.739  17.159  0.00  0.00    +0.000 N 
ATOM      4  C   UNL     1       4.919   4.478  16.961  0.00  0.00    +0.000 A 
ATOM      5  C   UNL     1       6.135   4.114  16.373  0.00  0.00    +0.000 A 
ATOM      6  C   UNL     1       7.135   5.088  16.280  0.00  0.00    +0.000 A 
ATOM      7  C   UNL     1       6.919   6.376  16.759  0.00  0.00    +0.000 A 
ATOM      8  C   UNL     1       5.700   6.728  17.349  0.00  0.00    +0.000 A 
ATOM      9  C   UNL     1       4.672   5.762  17.454  0.00  0.00    +0.000 A 
ATOM     10  C   UNL     1       3.327   5.762  17.941  0.00  0.00    +0.000 A 
ATOM     11  H   UNL     1       3.671   2.775  16.882  0.00  0.00    +0.000 HD
ENDROOT
BRANCH  10  12
ATOM     12  C   UNL     1       2.603   6.868  18.444  0.00  0.00    +0.000 C 
ATOM     13  C   UNL     1       2.244   7.945  17.735  0.00  0.00    +0.000 C 
ATOM     14  N   UNL     1       1.651   8.966  18.458  0.00  0.00    +0.000 N 
ATOM     15  C   UNL     1       1.909  10.355  18.112  0.00  0.00    +0.000 C 
ATOM     16  C   UNL     1       1.337  11.360  19.080  0.00  0.00    +0.000 C 
ATOM     17  S   UNL     1       0.116  10.670  20.149  0.00  0.00    +0.000 S 
ATOM     18  O   UNL     1      -0.025  11.599  21.257  0.00  0.00    +0.000 OA
ATOM     19  O   UNL     1      -1.034  10.338  19.333  0.00  0.00    +0.000 OA
ATOM     20  N   UNL     1       0.824   9.317  20.686  0.00  0.00    +0.000 NA
ATOM     21  C   UNL     1       1.423   8.637  19.776  0.00  0.00    +0.000 C 
ATOM     22  S   UNL     1       2.131   7.039  20.124  0.00  0.00    +0.000 S 
ENDBRANCH  10  12
TORSDOF 1
ENDMDL
MODEL 5
REMARK VINA RESULT:      -7.4      4.139      5.359
REMARK  Name = 
REMARK  2 active torsions:
REMARK  status: ('A' for Active; 'I' for Inactive)
REMARK    1  A    between atoms: C_1  and  C_2
REMARK    2  A    between atoms: C_10  and  C_11
REMARK                            x       y       z     vdW  Elec       q    Type
REMARK                         _______ _______ _______ _____ _____    ______ ____
ROOT
ATOM      1  C   UNL     1       1.401   4.125  18.128  0.00  0.00    +0.000 C 
ATOM      2  C   UNL     1       2.769   4.629  17.851  0.00  0.00    +0.000 A 
ATOM      3  N   UNL     1       3.713   3.861  17.212  0.00  0.00    +0.000 N 
ATOM      4  C   UNL     1       4.851   4.592  16.961  0.00  0.00    +0.000 A 
ATOM      5  C   UNL     1       6.017   4.235  16.277  0.00  0.00    +0.000 A 
ATOM      6  C   UNL     1       7.023   5.200  16.150  0.00  0.00    +0.000 A 
ATOM      7  C   UNL     1       6.859   6.473  16.688  0.00  0.00    +0.000 A 
ATOM      8  C   UNL     1       5.688   6.818  17.373  0.00  0.00    +0.000 A 
ATOM      9  C   UNL     1       4.657   5.861  17.515  0.00  0.00    +0.000 A 
ATOM     10  C   UNL     1       3.349   5.859  18.094  0.00  0.00    +0.000 A 
ATOM     11  H   UNL     1       3.576   2.909  16.908  0.00  0.00    +0.000 HD
ENDROOT
BRANCH  10  12
ATOM     12  C   UNL     1       2.677   6.954  18.685  0.00  0.00    +0.000 C 
ATOM     13  C   UNL     1       2.339   7.049  19.977  0.00  0.00    +0.000 C 
ATOM     14  N   UNL     1       1.573   8.151  20.316  0.00  0.00    +0.000 N 
ATOM     15  C   UNL     1       0.537   8.040  21.330  0.00  0.00    +0.000 C 
ATOM     16  C   UNL     1      -0.330   9.265  21.479  0.00  0.00    +0.000 C 
ATOM     17  S   UNL     1       0.372  10.701  20.734  0.00  0.00    +0.000 S 
ATOM     18  O   UNL     1      -0.713  11.655  20.586  0.00  0.00    +0.000 OA
ATOM     19  O   UNL     1       1.547  11.057  21.505  0.00  0.00    +0.000 OA
ATOM     20  N   UNL     1       0.811  10.174  19.267  0.00  0.00    +0.000 NA
ATOM     21  C   UNL     1       1.394   9.030  19.270  0.00  0.00    +0.000 C 
ATOM     22  S   UNL     1       2.095   8.341  17.784  0.00  0.00    +0.000 S 
ENDBRANCH  10  12
TORSDOF 1
ENDMDL
MODEL 6
REMARK VINA RESULT:      -7.3      4.675      6.051
REMARK  Name = 
REMARK  2 active torsions:
REMARK  status: ('A' for Active; 'I' for Inactive)
REMARK    1  A    between atoms: C_1  and  C_2
REMARK    2  A    between atoms: C_10  and  C_11
REMARK                            x       y       z     vdW  Elec       q    Type
REMARK                         _______ _______ _______ _____ _____    ______ ____
ROOT
ATOM      1  C   UNL     1       1.326   4.647  20.309  0.00  0.00    +0.000 C 
ATOM      2  C   UNL     1       2.364   4.984  19.304  0.00  0.00    +0.000 A 
ATOM      3  N   UNL     1       3.094   4.015  18.656  0.00  0.00    +0.000 N 
ATOM      4  C   UNL     1       3.896   4.572  17.688  0.00  0.00    +0.000 A 
ATOM      5  C   UNL     1       4.738   3.959  16.754  0.00  0.00    +0.000 A 
ATOM      6  C   UNL     1       5.431   4.781  15.858  0.00  0.00    +0.000 A 
ATOM      7  C   UNL     1       5.280   6.163  15.899  0.00  0.00    +0.000 A 
ATOM      8  C   UNL     1       4.437   6.766  16.841  0.00  0.00    +0.000 A 
ATOM      9  C   UNL     1       3.725   5.958  17.757  0.00  0.00    +0.000 A 
ATOM     10  C   UNL     1       2.776   6.202  18.798  0.00  0.00    +0.000 A 
ATOM     11  H   UNL     1       3.011   3.023  18.818  0.00  0.00    +0.000 HD
ENDROOT
BRANCH  10  12
ATOM     12  C   UNL     1       2.218   7.448  19.168  0.00  0.00    +0.000 C 
ATOM     13  C   UNL     1       1.867   7.799  20.412  0.00  0.00    +0.000 C 
ATOM     14  N   UNL     1       1.221   9.019  20.528  0.00  0.00    +0.000 N 
ATOM     15  C   UNL     1       0.159   9.195  21.505  0.00  0.00    +0.000 C 
ATOM     16  C   UNL     1      -0.569  10.513  21.410  0.00  0.00    +0.000 C 
ATOM     17  S   UNL     1       0.305  11.716  20.461  0.00  0.00    +0.000 S 
ATOM     18  O   UNL     1      -0.664  12.740  20.111  0.00  0.00    +0.000 OA
ATOM     19  O   UNL     1       1.496  12.072  21.207  0.00  0.00    +0.000 OA
ATOM     20  N   UNL     1       0.712  10.900  19.123  0.00  0.00    +0.000 NA
ATOM     21  C   UNL     1       1.163   9.718  19.342  0.00  0.00    +0.000 C 
ATOM     22  S   UNL     1       1.814   8.712  18.023  0.00  0.00    +0.000 S 
ENDBRANCH  10  12
TORSDOF 1
ENDMDL
MODEL 7
REMARK VINA RESULT:      -7.2      4.487      6.010
REMARK  Name = 
REMARK  2 active torsions:
REMARK  status: ('A' for Active; 'I' for Inactive)
REMARK    1  A    between atoms: C_1  and  C_2
REMARK    2  A    between atoms: C_10  and  C_11
REMARK                            x       y       z     vdW  Elec       q    Type
REMARK                         _______ _______ _______ _____ _____    ______ ____
ROOT
ATOM      1  C   UNL     1       4.982   6.985  17.076  0.00  0.00    +0.000 C 
ATOM      2  C   UNL     1       4.027   5.907  17.436  0.00  0.00    +0.000 A 
ATOM      3  N   UNL     1       4.272   4.587  17.136  0.00  0.00    +0.000 N 
ATOM      4  C   UNL     1       3.306   3.774  17.681  0.00  0.00    +0.000 A 
ATOM      5  C   UNL     1       3.202   2.380  17.687  0.00  0.00    +0.000 A 
ATOM      6  C   UNL     1       2.109   1.807  18.347  0.00  0.00    +0.000 A 
ATOM      7  C   UNL     1       1.161   2.607  18.978  0.00  0.00    +0.000 A 
ATOM      8  C   UNL     1       1.274   4.002  18.963  0.00  0.00    +0.000 A 
ATOM      9  C   UNL     1       2.370   4.605  18.303  0.00  0.00    +0.000 A 
ATOM     10  C   UNL     1       2.826   5.948  18.117  0.00  0.00    +0.000 A 
ATOM     11  H   UNL     1       5.081   4.247  16.638  0.00  0.00    +0.000 HD
ENDROOT
BRANCH  10  12
ATOM     12  C   UNL     1       2.254   7.125  18.653  0.00  0.00    +0.000 C 
ATOM     13  C   UNL     1       1.914   8.211  17.947  0.00  0.00    +0.000 C 
ATOM     14  N   UNL     1       1.489   9.298  18.691  0.00  0.00    +0.000 N 
ATOM     15  C   UNL     1       1.824  10.649  18.272  0.00  0.00    +0.000 C 
ATOM     16  C   UNL     1       1.445  11.725  19.258  0.00  0.00    +0.000 C 
ATOM     17  S   UNL     1       0.291  11.173  20.472  0.00  0.00    +0.000 S 
ATOM     18  O   UNL     1       0.346  12.138  21.555  0.00  0.00    +0.000 OA
ATOM     19  O   UNL     1      -0.964  10.921  19.791  0.00  0.00    +0.000 OA
ATOM     20  N   UNL     1       0.935   9.777  20.980  0.00  0.00    +0.000 NA
ATOM     21  C   UNL     1       1.375   9.024  20.037  0.00  0.00    +0.000 C 
ATOM     22  S   UNL     1       1.979   7.380  20.365  0.00  0.00    +0.000 S 
ENDBRANCH  10  12
TORSDOF 1
ENDMDL
MODEL 8
REMARK VINA RESULT:      -7.2      1.184      1.662
REMARK  Name = 
REMARK  2 active torsions:
REMARK  status: ('A' for Active; 'I' for Inactive)
REMARK    1  A    between atoms: C_1  and  C_2
REMARK    2  A    between atoms: C_10  and  C_11
REMARK                            x       y       z     vdW  Elec       q    Type
REMARK                         _______ _______ _______ _____ _____    ______ ____
ROOT
ATOM      1  C   UNL     1       7.533   6.639  17.801  0.00  0.00    +0.000 C 
ATOM      2  C   UNL     1       7.043   5.946  16.584  0.00  0.00    +0.000 A 
ATOM      3  N   UNL     1       7.706   6.027  15.382  0.00  0.00    +0.000 N 
ATOM      4  C   UNL     1       7.128   5.201  14.447  0.00  0.00    +0.000 A 
ATOM      5  C   UNL     1       7.515   4.919  13.133  0.00  0.00    +0.000 A 
ATOM      6  C   UNL     1       6.743   4.008  12.404  0.00  0.00    +0.000 A 
ATOM      7  C   UNL     1       5.628   3.403  12.976  0.00  0.00    +0.000 A 
ATOM      8  C   UNL     1       5.249   3.694  14.292  0.00  0.00    +0.000 A 
ATOM      9  C   UNL     1       6.013   4.612  15.050  0.00  0.00    +0.000 A 
ATOM     10  C   UNL     1       5.959   5.112  16.389  0.00  0.00    +0.000 A 
ATOM     11  H   UNL     1       8.542   6.568  15.217  0.00  0.00    +0.000 HD
ENDROOT
BRANCH  10  12
ATOM     12  C   UNL     1       5.058   4.725  17.408  0.00  0.00    +0.000 C 
ATOM     13  C   UNL     1       5.399   4.125  18.555  0.00  0.00    +0.000 C 
ATOM     14  N   UNL     1       4.343   3.719  19.354  0.00  0.00    +0.000 N 
ATOM     15  C   UNL     1       4.434   2.486  20.118  0.00  0.00    +0.000 C 
ATOM     16  C   UNL     1       3.157   2.079  20.809  0.00  0.00    +0.000 C 
ATOM     17  S   UNL     1       1.984   3.391  20.918  0.00  0.00    +0.000 S 
ATOM     18  O   UNL     1       0.703   2.769  21.204  0.00  0.00    +0.000 OA
ATOM     19  O   UNL     1       2.526   4.381  21.827  0.00  0.00    +0.000 OA
ATOM     20  N   UNL     1       1.955   3.981  19.410  0.00  0.00    +0.000 NA
ATOM     21  C   UNL     1       3.115   4.120  18.876  0.00  0.00    +0.000 C 
ATOM     22  S   UNL     1       3.318   4.898  17.285  0.00  0.00    +0.000 S 
ENDBRANCH  10  12
TORSDOF 1
ENDMDL
MODEL 9
REMARK VINA RESULT:      -7.0      4.770      6.844
REMARK  Name = 
REMARK  2 active torsions:
REMARK  status: ('A' for Active; 'I' for Inactive)
REMARK    1  A    between atoms: C_1  and  C_2
REMARK    2  A    between atoms: C_10  and  C_11
REMARK                            x       y       z     vdW  Elec       q    Type
REMARK                         _______ _______ _______ _____ _____    ______ ____
ROOT
ATOM      1  C   UNL     1       5.082   6.758  17.992  0.00  0.00    +0.000 C 
ATOM      2  C   UNL     1       4.076   5.847  18.593  0.00  0.00    +0.000 A 
ATOM      3  N   UNL     1       4.298   4.495  18.716  0.00  0.00    +0.000 N 
ATOM      4  C   UNL     1       3.277   3.894  19.414  0.00  0.00    +0.000 A 
ATOM      5  C   UNL     1       3.131   2.566  19.828  0.00  0.00    +0.000 A 
ATOM      6  C   UNL     1       1.984   2.229  20.555  0.00  0.00    +0.000 A 
ATOM      7  C   UNL     1       1.025   3.191  20.857  0.00  0.00    +0.000 A 
ATOM      8  C   UNL     1       1.181   4.517  20.435  0.00  0.00    +0.000 A 
ATOM      9  C   UNL     1       2.332   4.883  19.699  0.00  0.00    +0.000 A 
ATOM     10  C   UNL     1       2.839   6.104  19.152  0.00  0.00    +0.000 A 
ATOM     11  H   UNL     1       5.124   4.013  18.395  0.00  0.00    +0.000 HD
ENDROOT
BRANCH  10  12
ATOM     12  C   UNL     1       2.273   7.393  19.276  0.00  0.00    +0.000 C 
ATOM     13  C   UNL     1       1.731   7.897  20.392  0.00  0.00    +0.000 C 
ATOM     14  N   UNL     1       1.120   9.132  20.255  0.00  0.00    +0.000 N 
ATOM     15  C   UNL     1      -0.084   9.441  21.009  0.00  0.00    +0.000 C 
ATOM     16  C   UNL     1      -0.737  10.750  20.641  0.00  0.00    +0.000 C 
ATOM     17  S   UNL     1       0.326  11.816  19.723  0.00  0.00    +0.000 S 
ATOM     18  O   UNL     1      -0.532  12.806  19.098  0.00  0.00    +0.000 OA
ATOM     19  O   UNL     1       1.388  12.239  20.615  0.00  0.00    +0.000 OA
ATOM     20  N   UNL     1       0.922  10.840  18.577  0.00  0.00    +0.000 NA
ATOM     21  C   UNL     1       1.287   9.685  19.005  0.00  0.00    +0.000 C 
ATOM     22  S   UNL     1       2.112   8.518  17.940  0.00  0.00    +0.000 S 
ENDBRANCH  10  12
TORSDOF 1
ENDMDL
