MODEL 1
REMARK VINA RESULT:      -7.7      0.000      0.000
REMARK  Name = 
REMARK  7 active torsions:
REMARK  status: ('A' for Active; 'I' for Inactive)
REMARK    1  A    between atoms: C_1  and  O_2
REMARK    2  A    between atoms: O_2  and  C_3
REMARK    3  A    between atoms: C_6  and  O_7
REMARK    4  A    between atoms: O_7  and  C_8
REMARK    5  A    between atoms: C_9  and  C_10
REMARK    6  A    between atoms: C_10  and  C_11
REMARK    7  A    between atoms: C_11  and  C_12
REMARK                            x       y       z     vdW  Elec       q    Type
REMARK                         _______ _______ _______ _____ _____    ______ ____
ROOT
ATOM      1  C   UNL     1       4.942   3.847  16.668  0.00  0.00    +0.000 A 
ATOM      2  C   UNL     1       5.100   4.060  15.306  0.00  0.00    +0.000 A 
ATOM      3  S   UNL     1       6.295   5.223  14.947  0.00  0.00    +0.000 S 
ATOM      4  C   UNL     1       6.600   5.502  16.596  0.00  0.00    +0.000 A 
ATOM      5  N   UNL     1       7.515   6.414  16.965  0.00  0.00    +0.000 NA
ATOM      6  C   UNL     1       7.618   6.539  18.280  0.00  0.00    +0.000 A 
ATOM      7  N   UNL     1       8.535   7.468  18.751  0.00  0.00    +0.000 N 
ATOM      8  N   UNL     1       6.963   5.831  19.198  0.00  0.00    +0.000 NA
ATOM      9  C   UNL     1       6.056   4.912  18.806  0.00  0.00    +0.000 A 
ATOM     10  N   UNL     1       5.411   4.224  19.824  0.00  0.00    +0.000 N 
ATOM     11  C   UNL     1       5.825   4.717  17.433  0.00  0.00    +0.000 A 
ATOM     12  H   UNL     1       9.248   7.624  18.049  0.00  0.00    +0.000 HD
ATOM     13  H   UNL     1       8.843   7.201  19.675  0.00  0.00    +0.000 HD
ATOM     14  H   UNL     1       5.550   4.689  20.715  0.00  0.00    +0.000 HD
ATOM     15  H   UNL     1       4.469   3.898  19.649  0.00  0.00    +0.000 HD
ENDROOT
BRANCH   1  16
ATOM     16  C   UNL     1       3.963   2.855  17.259  0.00  0.00    +0.000 C 
BRANCH  16  17
ATOM     17  C   UNL     1       2.541   3.432  17.317  0.00  0.00    +0.000 C 
BRANCH  17  22
ATOM     18  C   UNL     1       2.407   6.950  18.755  0.00  0.00    +0.000 A 
ATOM     19  C   UNL     1       2.049   6.723  20.080  0.00  0.00    +0.000 A 
ATOM     20  C   UNL     1       1.818   5.425  20.534  0.00  0.00    +0.000 A 
ATOM     21  C   UNL     1       1.962   4.321  19.680  0.00  0.00    +0.000 A 
ATOM     22  C   UNL     1       2.294   4.538  18.327  0.00  0.00    +0.000 A 
ATOM     23  C   UNL     1       2.521   5.863  17.892  0.00  0.00    +0.000 A 
BRANCH  18  25
ATOM     24  C   UNL     1       1.526   8.996  17.940  0.00  0.00    +0.000 C 
ATOM     25  O   UNL     1       2.637   8.260  18.439  0.00  0.00    +0.000 OA
ENDBRANCH  18  25
BRANCH  21  26
ATOM     26  O   UNL     1       1.797   3.029  20.113  0.00  0.00    +0.000 OA
ATOM     27  C   UNL     1       2.138   2.796  21.486  0.00  0.00    +0.000 C 
ENDBRANCH  21  26
ENDBRANCH  17  22
ENDBRANCH  16  17
ENDBRANCH   1  16
TORSDOF 5
ENDMDL
MODEL 2
REMARK VINA RESULT:      -7.1      3.277      5.797
REMARK  Name = 
REMARK  7 active torsions:
REMARK  status: ('A' for Active; 'I' for Inactive)
REMARK    1  A    between atoms: C_1  and  O_2
REMARK    2  A    between atoms: O_2  and  C_3
REMARK    3  A    between atoms: C_6  and  O_7
REMARK    4  A    between atoms: O_7  and  C_8
REMARK    5  A    between atoms: C_9  and  C_10
REMARK    6  A    between atoms: C_10  and  C_11
REMARK    7  A    between atoms: C_11  and  C_12
REMARK                            x       y       z     vdW  Elec       q    Type
REMARK                         _______ _______ _______ _____ _____    ______ ____
ROOT
ATOM      1  C   UNL     1       2.731   4.881  17.875  0.00  0.00    +0.000 A 
ATOM      2  C   UNL     1       2.892   3.832  16.982  0.00  0.00    +0.000 A 
ATOM      3  S   UNL     1       2.521   2.312  17.665  0.00  0.00    +0.000 S 
ATOM      4  C   UNL     1       2.181   3.012  19.176  0.00  0.00    +0.000 A 
ATOM      5  N   UNL     1       1.822   2.233  20.211  0.00  0.00    +0.000 NA
ATOM      6  C   UNL     1       1.619   2.918  21.326  0.00  0.00    +0.000 A 
ATOM      7  N   UNL     1       1.253   2.191  22.450  0.00  0.00    +0.000 N 
ATOM      8  N   UNL     1       1.688   4.240  21.469  0.00  0.00    +0.000 NA
ATOM      9  C   UNL     1       2.041   5.006  20.415  0.00  0.00    +0.000 A 
ATOM     10  N   UNL     1       2.098   6.372  20.649  0.00  0.00    +0.000 N 
ATOM     11  C   UNL     1       2.323   4.389  19.183  0.00  0.00    +0.000 A 
ATOM     12  H   UNL     1       0.823   1.320  22.163  0.00  0.00    +0.000 HD
ATOM     13  H   UNL     1       0.729   2.782  23.080  0.00  0.00    +0.000 HD
ATOM     14  H   UNL     1       2.096   6.565  21.645  0.00  0.00    +0.000 HD
ATOM     15  H   UNL     1       2.753   6.916  20.104  0.00  0.00    +0.000 HD
ENDROOT
BRANCH   1  16
ATOM     16  C   UNL     1       2.974   6.333  17.522  0.00  0.00    +0.000 C 
BRANCH  16  17
ATOM     17  C   UNL     1       4.410   6.762  17.856  0.00  0.00    +0.000 C 
BRANCH  17  22
ATOM     18  C   UNL     1       6.441   5.113  15.096  0.00  0.00    +0.000 A 
ATOM     19  C   UNL     1       7.413   4.418  15.808  0.00  0.00    +0.000 A 
ATOM     20  C   UNL     1       7.450   4.487  17.200  0.00  0.00    +0.000 A 
ATOM     21  C   UNL     1       6.501   5.234  17.915  0.00  0.00    +0.000 A 
ATOM     22  C   UNL     1       5.528   5.968  17.206  0.00  0.00    +0.000 A 
ATOM     23  C   UNL     1       5.515   5.882  15.796  0.00  0.00    +0.000 A 
BRANCH  18  25
ATOM     24  C   UNL     1       5.991   3.707  13.239  0.00  0.00    +0.000 C 
ATOM     25  O   UNL     1       6.489   4.941  13.741  0.00  0.00    +0.000 OA
ENDBRANCH  18  25
BRANCH  21  26
ATOM     26  O   UNL     1       6.477   5.273  19.287  0.00  0.00    +0.000 OA
ATOM     27  C   UNL     1       7.721   5.618  19.911  0.00  0.00    +0.000 C 
ENDBRANCH  21  26
ENDBRANCH  17  22
ENDBRANCH  16  17
ENDBRANCH   1  16
TORSDOF 5
ENDMDL
MODEL 3
REMARK VINA RESULT:      -7.0      3.772      6.569
REMARK  Name = 
REMARK  7 active torsions:
REMARK  status: ('A' for Active; 'I' for Inactive)
REMARK    1  A    between atoms: C_1  and  O_2
REMARK    2  A    between atoms: O_2  and  C_3
REMARK    3  A    between atoms: C_6  and  O_7
REMARK    4  A    between atoms: O_7  and  C_8
REMARK    5  A    between atoms: C_9  and  C_10
REMARK    6  A    between atoms: C_10  and  C_11
REMARK    7  A    between atoms: C_11  and  C_12
REMARK                            x       y       z     vdW  Elec       q    Type
REMARK                         _______ _______ _______ _____ _____    ______ ____
ROOT
ATOM      1  C   UNL     1       3.075   4.650  17.916  0.00  0.00    +0.000 A 
ATOM      2  C   UNL     1       3.031   6.004  18.213  0.00  0.00    +0.000 A 
ATOM      3  S   UNL     1       2.448   6.324  19.785  0.00  0.00    +0.000 S 
ATOM      4  C   UNL     1       2.200   4.670  20.090  0.00  0.00    +0.000 A 
ATOM      5  N   UNL     1       1.690   4.274  21.268  0.00  0.00    +0.000 NA
ATOM      6  C   UNL     1       1.527   2.961  21.345  0.00  0.00    +0.000 A 
ATOM      7  N   UNL     1       0.995   2.464  22.526  0.00  0.00    +0.000 N 
ATOM      8  N   UNL     1       1.862   2.065  20.419  0.00  0.00    +0.000 NA
ATOM      9  C   UNL     1       2.383   2.483  19.246  0.00  0.00    +0.000 A 
ATOM     10  N   UNL     1       2.697   1.487  18.333  0.00  0.00    +0.000 N 
ATOM     11  C   UNL     1       2.565   3.860  19.028  0.00  0.00    +0.000 A 
ATOM     12  H   UNL     1       1.174   3.118  23.278  0.00  0.00    +0.000 HD
ATOM     13  H   UNL     1       1.298   1.510  22.658  0.00  0.00    +0.000 HD
ATOM     14  H   UNL     1       2.264   0.608  18.597  0.00  0.00    +0.000 HD
ATOM     15  H   UNL     1       2.645   1.716  17.349  0.00  0.00    +0.000 HD
ENDROOT
BRANCH   1  16
ATOM     16  C   UNL     1       3.568   4.091  16.598  0.00  0.00    +0.000 C 
BRANCH  16  17
ATOM     17  C   UNL     1       5.085   3.856  16.618  0.00  0.00    +0.000 C 
BRANCH  17  22
ATOM     18  C   UNL     1       6.048   3.730  12.941  0.00  0.00    +0.000 A 
ATOM     19  C   UNL     1       7.194   4.517  12.900  0.00  0.00    +0.000 A 
ATOM     20  C   UNL     1       7.670   5.128  14.059  0.00  0.00    +0.000 A 
ATOM     21  C   UNL     1       7.024   4.949  15.292  0.00  0.00    +0.000 A 
ATOM     22  C   UNL     1       5.843   4.180  15.344  0.00  0.00    +0.000 A 
ATOM     23  C   UNL     1       5.382   3.573  14.154  0.00  0.00    +0.000 A 
BRANCH  18  25
ATOM     24  C   UNL     1       4.322   3.209  11.400  0.00  0.00    +0.000 C 
ATOM     25  O   UNL     1       5.700   3.160  11.748  0.00  0.00    +0.000 OA
ENDBRANCH  18  25
BRANCH  21  26
ATOM     26  O   UNL     1       7.502   5.491  16.460  0.00  0.00    +0.000 OA
ATOM     27  C   UNL     1       6.811   6.660  16.919  0.00  0.00    +0.000 C 
ENDBRANCH  21  26
ENDBRANCH  17  22
ENDBRANCH  16  17
ENDBRANCH   1  16
TORSDOF 5
ENDMDL
MODEL 4
REMARK VINA RESULT:      -6.9      3.408      5.884
REMARK  Name = 
REMARK  7 active torsions:
REMARK  status: ('A' for Active; 'I' for Inactive)
REMARK    1  A    between atoms: C_1  and  O_2
REMARK    2  A    between atoms: O_2  and  C_3
REMARK    3  A    between atoms: C_6  and  O_7
REMARK    4  A    between atoms: O_7  and  C_8
REMARK    5  A    between atoms: C_9  and  C_10
REMARK    6  A    between atoms: C_10  and  C_11
REMARK    7  A    between atoms: C_11  and  C_12
REMARK                            x       y       z     vdW  Elec       q    Type
REMARK                         _______ _______ _______ _____ _____    ______ ____
ROOT
ATOM      1  C   UNL     1       2.286   3.768  18.451  0.00  0.00    +0.000 A 
ATOM      2  C   UNL     1       1.737   2.794  19.272  0.00  0.00    +0.000 A 
ATOM      3  S   UNL     1       1.092   3.428  20.720  0.00  0.00    +0.000 S 
ATOM      4  C   UNL     1       1.568   5.007  20.306  0.00  0.00    +0.000 A 
ATOM      5  N   UNL     1       1.324   6.024  21.149  0.00  0.00    +0.000 NA
ATOM      6  C   UNL     1       1.779   7.186  20.703  0.00  0.00    +0.000 A 
ATOM      7  N   UNL     1       1.578   8.292  21.517  0.00  0.00    +0.000 N 
ATOM      8  N   UNL     1       2.372   7.408  19.531  0.00  0.00    +0.000 NA
ATOM      9  C   UNL     1       2.598   6.374  18.694  0.00  0.00    +0.000 A 
ATOM     10  N   UNL     1       3.227   6.688  17.498  0.00  0.00    +0.000 N 
ATOM     11  C   UNL     1       2.198   5.081  19.075  0.00  0.00    +0.000 A 
ATOM     12  H   UNL     1       0.790   8.122  22.128  0.00  0.00    +0.000 HD
ATOM     13  H   UNL     1       1.556   9.128  20.951  0.00  0.00    +0.000 HD
ATOM     14  H   UNL     1       3.636   7.616  17.541  0.00  0.00    +0.000 HD
ATOM     15  H   UNL     1       3.809   5.979  17.071  0.00  0.00    +0.000 HD
ENDROOT
BRANCH   1  16
ATOM     16  C   UNL     1       2.908   3.481  17.101  0.00  0.00    +0.000 C 
BRANCH  16  17
ATOM     17  C   UNL     1       4.402   3.149  17.228  0.00  0.00    +0.000 C 
BRANCH  17  22
ATOM     18  C   UNL     1       6.452   4.262  14.224  0.00  0.00    +0.000 A 
ATOM     19  C   UNL     1       7.204   5.310  14.741  0.00  0.00    +0.000 A 
ATOM     20  C   UNL     1       7.048   5.700  16.071  0.00  0.00    +0.000 A 
ATOM     21  C   UNL     1       6.152   5.035  16.922  0.00  0.00    +0.000 A 
ATOM     22  C   UNL     1       5.360   3.990  16.403  0.00  0.00    +0.000 A 
ATOM     23  C   UNL     1       5.537   3.616  15.052  0.00  0.00    +0.000 A 
BRANCH  18  25
ATOM     24  C   UNL     1       5.725   3.205  12.229  0.00  0.00    +0.000 C 
ATOM     25  O   UNL     1       6.718   3.954  12.919  0.00  0.00    +0.000 OA
ENDBRANCH  18  25
BRANCH  21  26
ATOM     26  O   UNL     1       6.019   5.358  18.250  0.00  0.00    +0.000 OA
ATOM     27  C   UNL     1       7.249   5.584  18.950  0.00  0.00    +0.000 C 
ENDBRANCH  21  26
ENDBRANCH  17  22
ENDBRANCH  16  17
ENDBRANCH   1  16
TORSDOF 5
ENDMDL
MODEL 5
REMARK VINA RESULT:      -6.9      4.098      6.442
REMARK  Name = 
REMARK  7 active torsions:
REMARK  status: ('A' for Active; 'I' for Inactive)
REMARK    1  A    between atoms: C_1  and  O_2
REMARK    2  A    between atoms: O_2  and  C_3
REMARK    3  A    between atoms: C_6  and  O_7
REMARK    4  A    between atoms: O_7  and  C_8
REMARK    5  A    between atoms: C_9  and  C_10
REMARK    6  A    between atoms: C_10  and  C_11
REMARK    7  A    between atoms: C_11  and  C_12
REMARK                            x       y       z     vdW  Elec       q    Type
REMARK                         _______ _______ _______ _____ _____    ______ ____
ROOT
ATOM      1  C   UNL     1       1.688   9.107  18.505  0.00  0.00    +0.000 A 
ATOM      2  C   UNL     1       1.511  10.403  18.042  0.00  0.00    +0.000 A 
ATOM      3  S   UNL     1       0.958  11.474  19.250  0.00  0.00    +0.000 S 
ATOM      4  C   UNL     1       0.899  10.228  20.406  0.00  0.00    +0.000 A 
ATOM      5  N   UNL     1       0.480  10.491  21.655  0.00  0.00    +0.000 NA
ATOM      6  C   UNL     1       0.461   9.417  22.430  0.00  0.00    +0.000 A 
ATOM      7  N   UNL     1       0.031   9.595  23.737  0.00  0.00    +0.000 N 
ATOM      8  N   UNL     1       0.854   8.190  22.094  0.00  0.00    +0.000 NA
ATOM      9  C   UNL     1       1.283   7.949  20.837  0.00  0.00    +0.000 A 
ATOM     10  N   UNL     1       1.667   6.644  20.566  0.00  0.00    +0.000 N 
ATOM     11  C   UNL     1       1.309   9.003  19.907  0.00  0.00    +0.000 A 
ATOM     12  H   UNL     1       0.168  10.561  24.009  0.00  0.00    +0.000 HD
ATOM     13  H   UNL     1       0.439   8.884  24.327  0.00  0.00    +0.000 HD
ATOM     14  H   UNL     1       1.340   6.016  21.294  0.00  0.00    +0.000 HD
ATOM     15  H   UNL     1       1.553   6.306  19.620  0.00  0.00    +0.000 HD
ENDROOT
BRANCH   1  16
ATOM     16  C   UNL     1       2.188   7.965  17.646  0.00  0.00    +0.000 C 
BRANCH  16  17
ATOM     17  C   UNL     1       3.616   7.553  18.031  0.00  0.00    +0.000 C 
BRANCH  17  22
ATOM     18  C   UNL     1       5.691   5.491  15.601  0.00  0.00    +0.000 A 
ATOM     19  C   UNL     1       5.243   4.197  15.842  0.00  0.00    +0.000 A 
ATOM     20  C   UNL     1       4.274   3.956  16.815  0.00  0.00    +0.000 A 
ATOM     21  C   UNL     1       3.714   5.009  17.557  0.00  0.00    +0.000 A 
ATOM     22  C   UNL     1       4.180   6.322  17.346  0.00  0.00    +0.000 A 
ATOM     23  C   UNL     1       5.164   6.537  16.354  0.00  0.00    +0.000 A 
BRANCH  18  25
ATOM     24  C   UNL     1       6.831   4.443  13.804  0.00  0.00    +0.000 C 
ATOM     25  O   UNL     1       6.618   5.601  14.603  0.00  0.00    +0.000 OA
ENDBRANCH  18  25
BRANCH  21  26
ATOM     26  O   UNL     1       2.717   4.809  18.480  0.00  0.00    +0.000 OA
ATOM     27  C   UNL     1       1.578   4.083  18.003  0.00  0.00    +0.000 C 
ENDBRANCH  21  26
ENDBRANCH  17  22
ENDBRANCH  16  17
ENDBRANCH   1  16
TORSDOF 5
ENDMDL
MODEL 6
REMARK VINA RESULT:      -6.9      5.165      7.146
REMARK  Name = 
REMARK  7 active torsions:
REMARK  status: ('A' for Active; 'I' for Inactive)
REMARK    1  A    between atoms: C_1  and  O_2
REMARK    2  A    between atoms: O_2  and  C_3
REMARK    3  A    between atoms: C_6  and  O_7
REMARK    4  A    between atoms: O_7  and  C_8
REMARK    5  A    between atoms: C_9  and  C_10
REMARK    6  A    between atoms: C_10  and  C_11
REMARK    7  A    between atoms: C_11  and  C_12
REMARK                            x       y       z     vdW  Elec       q    Type
REMARK                         _______ _______ _______ _____ _____    ______ ____
ROOT
ATOM      1  C   UNL     1       1.000   8.907  20.877  0.00  0.00    +0.000 A 
ATOM      2  C   UNL     1       0.781   8.889  22.247  0.00  0.00    +0.000 A 
ATOM      3  S   UNL     1      -0.361  10.051  22.755  0.00  0.00    +0.000 S 
ATOM      4  C   UNL     1      -0.557  10.633  21.170  0.00  0.00    +0.000 A 
ATOM      5  N   UNL     1      -1.393  11.657  20.929  0.00  0.00    +0.000 NA
ATOM      6  C   UNL     1      -1.416  12.017  19.655  0.00  0.00    +0.000 A 
ATOM      7  N   UNL     1      -2.248  13.075  19.317  0.00  0.00    +0.000 N 
ATOM      8  N   UNL     1      -0.755  11.437  18.655  0.00  0.00    +0.000 NA
ATOM      9  C   UNL     1       0.072  10.403  18.916  0.00  0.00    +0.000 A 
ATOM     10  N   UNL     1       0.730   9.861  17.821  0.00  0.00    +0.000 N 
ATOM     11  C   UNL     1       0.215   9.955  20.242  0.00  0.00    +0.000 A 
ATOM     12  H   UNL     1      -2.988  13.155  20.004  0.00  0.00    +0.000 HD
ATOM     13  H   UNL     1      -2.520  12.996  18.348  0.00  0.00    +0.000 HD
ATOM     14  H   UNL     1       0.668  10.483  17.022  0.00  0.00    +0.000 HD
ATOM     15  H   UNL     1       1.639   9.445  17.976  0.00  0.00    +0.000 HD
ENDROOT
BRANCH   1  16
ATOM     16  C   UNL     1       1.949   7.968  20.162  0.00  0.00    +0.000 C 
BRANCH  16  17
ATOM     17  C   UNL     1       1.658   6.501  20.508  0.00  0.00    +0.000 C 
BRANCH  17  22
ATOM     18  C   UNL     1       3.603   5.047  17.580  0.00  0.00    +0.000 A 
ATOM     19  C   UNL     1       3.211   3.712  17.589  0.00  0.00    +0.000 A 
ATOM     20  C   UNL     1       2.326   3.244  18.559  0.00  0.00    +0.000 A 
ATOM     21  C   UNL     1       1.793   4.105  19.531  0.00  0.00    +0.000 A 
ATOM     22  C   UNL     1       2.204   5.454  19.554  0.00  0.00    +0.000 A 
ATOM     23  C   UNL     1       3.104   5.901  18.561  0.00  0.00    +0.000 A 
BRANCH  18  25
ATOM     24  C   UNL     1       5.260   6.539  16.773  0.00  0.00    +0.000 C 
ATOM     25  O   UNL     1       4.448   5.390  16.563  0.00  0.00    +0.000 OA
ENDBRANCH  18  25
BRANCH  21  26
ATOM     26  O   UNL     1       0.875   3.686  20.463  0.00  0.00    +0.000 OA
ATOM     27  C   UNL     1       1.372   2.759  21.436  0.00  0.00    +0.000 C 
ENDBRANCH  21  26
ENDBRANCH  17  22
ENDBRANCH  16  17
ENDBRANCH   1  16
TORSDOF 5
ENDMDL
MODEL 7
REMARK VINA RESULT:      -6.8      4.802      7.199
REMARK  Name = 
REMARK  7 active torsions:
REMARK  status: ('A' for Active; 'I' for Inactive)
REMARK    1  A    between atoms: C_1  and  O_2
REMARK    2  A    between atoms: O_2  and  C_3
REMARK    3  A    between atoms: C_6  and  O_7
REMARK    4  A    between atoms: O_7  and  C_8
REMARK    5  A    between atoms: C_9  and  C_10
REMARK    6  A    between atoms: C_10  and  C_11
REMARK    7  A    between atoms: C_11  and  C_12
REMARK                            x       y       z     vdW  Elec       q    Type
REMARK                         _______ _______ _______ _____ _____    ______ ____
ROOT
ATOM      1  C   UNL     1       1.084   9.182  19.340  0.00  0.00    +0.000 A 
ATOM      2  C   UNL     1       0.505   9.678  18.181  0.00  0.00    +0.000 A 
ATOM      3  S   UNL     1      -0.583  10.960  18.475  0.00  0.00    +0.000 S 
ATOM      4  C   UNL     1      -0.341  10.855  20.154  0.00  0.00    +0.000 A 
ATOM      5  N   UNL     1      -1.009  11.676  20.981  0.00  0.00    +0.000 NA
ATOM      6  C   UNL     1      -0.738  11.455  22.259  0.00  0.00    +0.000 A 
ATOM      7  N   UNL     1      -1.393  12.254  23.185  0.00  0.00    +0.000 N 
ATOM      8  N   UNL     1       0.132  10.571  22.744  0.00  0.00    +0.000 NA
ATOM      9  C   UNL     1       0.801   9.763  21.895  0.00  0.00    +0.000 A 
ATOM     10  N   UNL     1       1.682   8.865  22.480  0.00  0.00    +0.000 N 
ATOM     11  C   UNL     1       0.567   9.874  20.512  0.00  0.00    +0.000 A 
ATOM     12  H   UNL     1      -1.670  13.123  22.746  0.00  0.00    +0.000 HD
ATOM     13  H   UNL     1      -0.841  12.315  24.029  0.00  0.00    +0.000 HD
ATOM     14  H   UNL     1       1.511   8.794  23.478  0.00  0.00    +0.000 HD
ATOM     15  H   UNL     1       1.845   7.987  22.005  0.00  0.00    +0.000 HD
ENDROOT
BRANCH   1  16
ATOM     16  C   UNL     1       2.097   8.057  19.362  0.00  0.00    +0.000 C 
BRANCH  16  17
ATOM     17  C   UNL     1       2.658   7.777  17.961  0.00  0.00    +0.000 C 
BRANCH  17  22
ATOM     18  C   UNL     1       2.485   3.987  17.686  0.00  0.00    +0.000 A 
ATOM     19  C   UNL     1       3.795   3.646  17.368  0.00  0.00    +0.000 A 
ATOM     20  C   UNL     1       4.763   4.637  17.211  0.00  0.00    +0.000 A 
ATOM     21  C   UNL     1       4.448   5.993  17.390  0.00  0.00    +0.000 A 
ATOM     22  C   UNL     1       3.118   6.357  17.681  0.00  0.00    +0.000 A 
ATOM     23  C   UNL     1       2.157   5.333  17.833  0.00  0.00    +0.000 A 
BRANCH  18  25
ATOM     24  C   UNL     1       0.953   2.841  19.088  0.00  0.00    +0.000 C 
ATOM     25  O   UNL     1       1.637   2.927  17.844  0.00  0.00    +0.000 OA
ENDBRANCH  18  25
BRANCH  21  26
ATOM     26  O   UNL     1       5.392   6.986  17.299  0.00  0.00    +0.000 OA
ATOM     27  C   UNL     1       6.753   6.537  17.288  0.00  0.00    +0.000 C 
ENDBRANCH  21  26
ENDBRANCH  17  22
ENDBRANCH  16  17
ENDBRANCH   1  16
TORSDOF 5
ENDMDL
MODEL 8
REMARK VINA RESULT:      -6.8      3.232      5.623
REMARK  Name = 
REMARK  7 active torsions:
REMARK  status: ('A' for Active; 'I' for Inactive)
REMARK    1  A    between atoms: C_1  and  O_2
REMARK    2  A    between atoms: O_2  and  C_3
REMARK    3  A    between atoms: C_6  and  O_7
REMARK    4  A    between atoms: O_7  and  C_8
REMARK    5  A    between atoms: C_9  and  C_10
REMARK    6  A    between atoms: C_10  and  C_11
REMARK    7  A    between atoms: C_11  and  C_12
REMARK                            x       y       z     vdW  Elec       q    Type
REMARK                         _______ _______ _______ _____ _____    ______ ____
ROOT
ATOM      1  C   UNL     1       2.925   7.146  18.555  0.00  0.00    +0.000 A 
ATOM      2  C   UNL     1       3.642   7.509  17.424  0.00  0.00    +0.000 A 
ATOM      3  S   UNL     1       4.692   6.280  16.877  0.00  0.00    +0.000 S 
ATOM      4  C   UNL     1       4.248   5.253  18.157  0.00  0.00    +0.000 A 
ATOM      5  N   UNL     1       4.815   4.040  18.273  0.00  0.00    +0.000 NA
ATOM      6  C   UNL     1       4.391   3.371  19.334  0.00  0.00    +0.000 A 
ATOM      7  N   UNL     1       4.933   2.109  19.537  0.00  0.00    +0.000 N 
ATOM      8  N   UNL     1       3.464   3.768  20.204  0.00  0.00    +0.000 NA
ATOM      9  C   UNL     1       2.899   4.986  20.064  0.00  0.00    +0.000 A 
ATOM     10  N   UNL     1       1.949   5.326  21.016  0.00  0.00    +0.000 N 
ATOM     11  C   UNL     1       3.299   5.810  18.997  0.00  0.00    +0.000 A 
ATOM     12  H   UNL     1       5.265   1.739  18.655  0.00  0.00    +0.000 HD
ATOM     13  H   UNL     1       4.283   1.543  20.063  0.00  0.00    +0.000 HD
ATOM     14  H   UNL     1       1.998   4.698  21.812  0.00  0.00    +0.000 HD
ATOM     15  H   UNL     1       1.841   6.306  21.244  0.00  0.00    +0.000 HD
ENDROOT
BRANCH   1  16
ATOM     16  C   UNL     1       1.911   8.041  19.234  0.00  0.00    +0.000 C 
BRANCH  16  17
ATOM     17  C   UNL     1       1.450   9.176  18.308  0.00  0.00    +0.000 C 
BRANCH  17  22
ATOM     18  C   UNL     1      -0.065  11.674  20.742  0.00  0.00    +0.000 A 
ATOM     19  C   UNL     1      -1.324  11.903  20.198  0.00  0.00    +0.000 A 
ATOM     20  C   UNL     1      -1.705  11.272  19.014  0.00  0.00    +0.000 A 
ATOM     21  C   UNL     1      -0.843  10.379  18.358  0.00  0.00    +0.000 A 
ATOM     22  C   UNL     1       0.448  10.161  18.881  0.00  0.00    +0.000 A 
ATOM     23  C   UNL     1       0.809  10.814  20.081  0.00  0.00    +0.000 A 
BRANCH  18  25
ATOM     24  C   UNL     1      -0.960  12.679  22.696  0.00  0.00    +0.000 C 
ATOM     25  O   UNL     1       0.178  12.325  21.919  0.00  0.00    +0.000 OA
ENDBRANCH  18  25
BRANCH  21  26
ATOM     26  O   UNL     1      -1.212   9.700  17.223  0.00  0.00    +0.000 OA
ATOM     27  C   UNL     1      -2.347  10.236  16.531  0.00  0.00    +0.000 C 
ENDBRANCH  21  26
ENDBRANCH  17  22
ENDBRANCH  16  17
ENDBRANCH   1  16
TORSDOF 5
ENDMDL
MODEL 9
REMARK VINA RESULT:      -6.8      3.969      6.443
REMARK  Name = 
REMARK  7 active torsions:
REMARK  status: ('A' for Active; 'I' for Inactive)
REMARK    1  A    between atoms: C_1  and  O_2
REMARK    2  A    between atoms: O_2  and  C_3
REMARK    3  A    between atoms: C_6  and  O_7
REMARK    4  A    between atoms: O_7  and  C_8
REMARK    5  A    between atoms: C_9  and  C_10
REMARK    6  A    between atoms: C_10  and  C_11
REMARK    7  A    between atoms: C_11  and  C_12
REMARK                            x       y       z     vdW  Elec       q    Type
REMARK                         _______ _______ _______ _____ _____    ______ ____
ROOT
ATOM      1  C   UNL     1       1.996   8.782  18.668  0.00  0.00    +0.000 A 
ATOM      2  C   UNL     1       1.748   9.909  17.898  0.00  0.00    +0.000 A 
ATOM      3  S   UNL     1       0.767  11.058  18.692  0.00  0.00    +0.000 S 
ATOM      4  C   UNL     1       0.614  10.063  20.062  0.00  0.00    +0.000 A 
ATOM      5  N   UNL     1      -0.129  10.466  21.106  0.00  0.00    +0.000 NA
ATOM      6  C   UNL     1      -0.177   9.573  22.083  0.00  0.00    +0.000 A 
ATOM      7  N   UNL     1      -0.932   9.904  23.198  0.00  0.00    +0.000 N 
ATOM      8  N   UNL     1       0.462   8.405  22.121  0.00  0.00    +0.000 NA
ATOM      9  C   UNL     1       1.213   8.023  21.067  0.00  0.00    +0.000 A 
ATOM     10  N   UNL     1       1.839   6.790  21.183  0.00  0.00    +0.000 N 
ATOM     11  C   UNL     1       1.308   8.870  19.948  0.00  0.00    +0.000 A 
ATOM     12  H   UNL     1      -1.009  10.912  23.267  0.00  0.00    +0.000 HD
ATOM     13  H   UNL     1      -0.579   9.409  24.005  0.00  0.00    +0.000 HD
ATOM     14  H   UNL     1       1.442   6.258  21.951  0.00  0.00    +0.000 HD
ATOM     15  H   UNL     1       2.008   6.266  20.335  0.00  0.00    +0.000 HD
ENDROOT
BRANCH   1  16
ATOM     16  C   UNL     1       2.851   7.620  18.211  0.00  0.00    +0.000 C 
BRANCH  16  17
ATOM     17  C   UNL     1       1.993   6.464  17.676  0.00  0.00    +0.000 C 
BRANCH  17  22
ATOM     18  C   UNL     1       2.148   3.027  19.297  0.00  0.00    +0.000 A 
ATOM     19  C   UNL     1       3.312   2.490  18.759  0.00  0.00    +0.000 A 
ATOM     20  C   UNL     1       4.064   3.219  17.838  0.00  0.00    +0.000 A 
ATOM     21  C   UNL     1       3.681   4.512  17.450  0.00  0.00    +0.000 A 
ATOM     22  C   UNL     1       2.486   5.058  17.963  0.00  0.00    +0.000 A 
ATOM     23  C   UNL     1       1.743   4.297  18.893  0.00  0.00    +0.000 A 
BRANCH  18  25
ATOM     24  C   UNL     1       1.548   2.669  21.563  0.00  0.00    +0.000 C 
ATOM     25  O   UNL     1       1.517   2.230  20.211  0.00  0.00    +0.000 OA
ENDBRANCH  18  25
BRANCH  21  26
ATOM     26  O   UNL     1       4.431   5.275  16.590  0.00  0.00    +0.000 OA
ATOM     27  C   UNL     1       5.299   4.540  15.718  0.00  0.00    +0.000 C 
ENDBRANCH  21  26
ENDBRANCH  17  22
ENDBRANCH  16  17
ENDBRANCH   1  16
TORSDOF 5
ENDMDL
