MODEL 1
REMARK VINA RESULT:      -8.8      0.000      0.000
REMARK  Name = 
REMARK  9 active torsions:
REMARK  status: ('A' for Active; 'I' for Inactive)
REMARK    1  A    between atoms: C_1  and  C_2
REMARK    2  A    between atoms: C_2  and  C_5
REMARK    3  A    between atoms: N_3  and  O_4
REMARK    4  A    between atoms: C_9  and  C_10
REMARK    5  A    between atoms: C_10  and  C_11
REMARK    6  A    between atoms: C_10  and  C_12
REMARK    7  A    between atoms: C_10  and  N_13
REMARK    8  A    between atoms: N_16  and  C_17
REMARK    9  A    between atoms: C_22  and  N_23
REMARK                            x       y       z     vdW  Elec       q    Type
REMARK                         _______ _______ _______ _____ _____    ______ ____
ROOT
ATOM      1  N   UNL     1       3.125   4.872  19.730  0.00  0.00    +0.000 N 
ATOM      2  C   UNL     1       2.810   6.103  19.198  0.00  0.00    +0.000 C 
ATOM      3  O   UNL     1       3.139   6.431  18.062  0.00  0.00    +0.000 OA
ATOM      4  N   UNL     1       2.136   6.921  20.081  0.00  0.00    +0.000 N 
ATOM      5  H   UNL     1       2.499   4.549  20.445  0.00  0.00    +0.000 HD
ATOM      6  H   UNL     1       2.228   6.684  21.060  0.00  0.00    +0.000 HD
ENDROOT
BRANCH   4   7
ATOM      7  C   UNL     1       1.661   8.216  19.753  0.00  0.00    +0.000 A 
ATOM      8  C   UNL     1       1.733   8.732  18.452  0.00  0.00    +0.000 A 
ATOM      9  C   UNL     1       1.310  10.030  18.151  0.00  0.00    +0.000 A 
ATOM     10  C   UNL     1       0.782  10.842  19.147  0.00  0.00    +0.000 A 
ATOM     11 CL   UNL     1       0.244  12.415  18.690  0.00  0.00    +0.000 Cl
ATOM     12  C   UNL     1       0.683  10.321  20.440  0.00  0.00    +0.000 A 
ATOM     13  C   UNL     1       1.107   9.013  20.754  0.00  0.00    +0.000 A 
BRANCH  12  14
ATOM     14  N   UNL     1       0.154  11.132  21.512  0.00  0.00    +0.000 N 
ATOM     15  O   UNL     1       0.791  12.139  21.839  0.00  0.00    +0.000 OA
ATOM     16  O   UNL     1      -0.874  10.715  22.064  0.00  0.00    +0.000 OA
ENDBRANCH  12  14
ENDBRANCH   4   7
BRANCH   1  17
ATOM     17  C   UNL     1       3.873   3.860  18.941  0.00  0.00    +0.000 C 
ATOM     18  C   UNL     1       2.968   3.368  17.782  0.00  0.00    +0.000 C 
ATOM     19  C   UNL     1       4.288   2.672  19.849  0.00  0.00    +0.000 C 
BRANCH  17  24
ATOM     20  C   UNL     1       6.620   4.904  16.374  0.00  0.00    +0.000 A 
ATOM     21  C   UNL     1       7.595   5.421  17.231  0.00  0.00    +0.000 A 
ATOM     22  C   UNL     1       7.372   5.452  18.602  0.00  0.00    +0.000 A 
ATOM     23  C   UNL     1       6.174   4.967  19.121  0.00  0.00    +0.000 A 
ATOM     24  C   UNL     1       5.161   4.434  18.293  0.00  0.00    +0.000 A 
ATOM     25  C   UNL     1       5.409   4.423  16.909  0.00  0.00    +0.000 A 
BRANCH  20  27
ATOM     26  C   UNL     1       5.907   3.946  14.088  0.00  0.00    +0.000 C 
ATOM     27  C   UNL     1       6.848   4.824  14.891  0.00  0.00    +0.000 C 
ATOM     28  N   UNL     1       7.830   5.509  14.374  0.00  0.00    +0.000 NA
BRANCH  28  29
ATOM     29  O   UNL     1       7.917   5.346  12.990  0.00  0.00    +0.000 OA
ATOM     30  H   UNL     1       8.872   5.211  12.851  0.00  0.00    +0.000 HD
ENDBRANCH  28  29
ENDBRANCH  20  27
ENDBRANCH  17  24
ENDBRANCH   1  17
TORSDOF 6
ENDMDL
MODEL 2
REMARK VINA RESULT:      -8.6      1.519      1.946
REMARK  Name = 
REMARK  9 active torsions:
REMARK  status: ('A' for Active; 'I' for Inactive)
REMARK    1  A    between atoms: C_1  and  C_2
REMARK    2  A    between atoms: C_2  and  C_5
REMARK    3  A    between atoms: N_3  and  O_4
REMARK    4  A    between atoms: C_9  and  C_10
REMARK    5  A    between atoms: C_10  and  C_11
REMARK    6  A    between atoms: C_10  and  C_12
REMARK    7  A    between atoms: C_10  and  N_13
REMARK    8  A    between atoms: N_16  and  C_17
REMARK    9  A    between atoms: C_22  and  N_23
REMARK                            x       y       z     vdW  Elec       q    Type
REMARK                         _______ _______ _______ _____ _____    ______ ____
ROOT
ATOM      1  N   UNL     1       2.675   4.927  20.013  0.00  0.00    +0.000 N 
ATOM      2  C   UNL     1       2.276   6.233  19.831  0.00  0.00    +0.000 C 
ATOM      3  O   UNL     1       2.354   6.797  18.743  0.00  0.00    +0.000 OA
ATOM      4  N   UNL     1       1.831   6.833  20.990  0.00  0.00    +0.000 N 
ATOM      5  H   UNL     1       2.216   4.447  20.766  0.00  0.00    +0.000 HD
ATOM      6  H   UNL     1       2.131   6.400  21.854  0.00  0.00    +0.000 HD
ENDROOT
BRANCH   4   7
ATOM      7  C   UNL     1       1.323   8.155  21.051  0.00  0.00    +0.000 A 
ATOM      8  C   UNL     1       0.828   8.713  22.238  0.00  0.00    +0.000 A 
ATOM      9  C   UNL     1       0.281   9.999  22.275  0.00  0.00    +0.000 A 
ATOM     10  C   UNL     1       0.233  10.770  21.121  0.00  0.00    +0.000 A 
ATOM     11 CL   UNL     1      -0.418  12.361  21.255  0.00  0.00    +0.000 Cl
ATOM     12  C   UNL     1       0.750  10.228  19.941  0.00  0.00    +0.000 A 
ATOM     13  C   UNL     1       1.304   8.933  19.893  0.00  0.00    +0.000 A 
BRANCH  12  14
ATOM     14  N   UNL     1       0.709  10.988  18.713  0.00  0.00    +0.000 N 
ATOM     15  O   UNL     1      -0.358  11.016  18.090  0.00  0.00    +0.000 OA
ATOM     16  O   UNL     1       1.774  11.505  18.348  0.00  0.00    +0.000 OA
ENDBRANCH  12  14
ENDBRANCH   4   7
BRANCH   1  17
ATOM     17  C   UNL     1       3.209   4.119  18.886  0.00  0.00    +0.000 C 
ATOM     18  C   UNL     1       2.234   4.236  17.687  0.00  0.00    +0.000 C 
ATOM     19  C   UNL     1       3.368   2.637  19.317  0.00  0.00    +0.000 C 
BRANCH  17  24
ATOM     20  C   UNL     1       6.272   5.029  16.647  0.00  0.00    +0.000 A 
ATOM     21  C   UNL     1       7.182   5.465  17.613  0.00  0.00    +0.000 A 
ATOM     22  C   UNL     1       6.818   5.484  18.954  0.00  0.00    +0.000 A 
ATOM     23  C   UNL     1       5.544   5.069  19.333  0.00  0.00    +0.000 A 
ATOM     24  C   UNL     1       4.592   4.620  18.390  0.00  0.00    +0.000 A 
ATOM     25  C   UNL     1       4.983   4.619  17.040  0.00  0.00    +0.000 A 
BRANCH  20  27
ATOM     26  C   UNL     1       5.733   4.182  14.271  0.00  0.00    +0.000 C 
ATOM     27  C   UNL     1       6.650   4.964  15.194  0.00  0.00    +0.000 C 
ATOM     28  N   UNL     1       7.732   5.577  14.803  0.00  0.00    +0.000 NA
BRANCH  28  29
ATOM     29  O   UNL     1       7.952   5.438  13.431  0.00  0.00    +0.000 OA
ATOM     30  H   UNL     1       8.072   4.476  13.332  0.00  0.00    +0.000 HD
ENDBRANCH  28  29
ENDBRANCH  20  27
ENDBRANCH  17  24
ENDBRANCH   1  17
TORSDOF 6
ENDMDL
MODEL 3
REMARK VINA RESULT:      -8.6      1.219      1.362
REMARK  Name = 
REMARK  9 active torsions:
REMARK  status: ('A' for Active; 'I' for Inactive)
REMARK    1  A    between atoms: C_1  and  C_2
REMARK    2  A    between atoms: C_2  and  C_5
REMARK    3  A    between atoms: N_3  and  O_4
REMARK    4  A    between atoms: C_9  and  C_10
REMARK    5  A    between atoms: C_10  and  C_11
REMARK    6  A    between atoms: C_10  and  C_12
REMARK    7  A    between atoms: C_10  and  N_13
REMARK    8  A    between atoms: N_16  and  C_17
REMARK    9  A    between atoms: C_22  and  N_23
REMARK                            x       y       z     vdW  Elec       q    Type
REMARK                         _______ _______ _______ _____ _____    ______ ____
ROOT
ATOM      1  N   UNL     1       2.232   5.776  17.819  0.00  0.00    +0.000 N 
ATOM      2  C   UNL     1       2.323   6.983  18.476  0.00  0.00    +0.000 C 
ATOM      3  O   UNL     1       3.066   7.150  19.440  0.00  0.00    +0.000 OA
ATOM      4  N   UNL     1       1.477   7.946  17.969  0.00  0.00    +0.000 N 
ATOM      5  H   UNL     1       1.950   5.841  16.857  0.00  0.00    +0.000 HD
ATOM      6  H   UNL     1       0.695   7.604  17.426  0.00  0.00    +0.000 HD
ENDROOT
BRANCH   4   7
ATOM      7  C   UNL     1       1.423   9.280  18.444  0.00  0.00    +0.000 A 
ATOM      8  C   UNL     1       2.172  10.313  17.864  0.00  0.00    +0.000 A 
ATOM      9  C   UNL     1       2.151  11.614  18.373  0.00  0.00    +0.000 A 
ATOM     10  C   UNL     1       1.359  11.921  19.472  0.00  0.00    +0.000 A 
ATOM     11 CL   UNL     1       1.354  13.557  20.018  0.00  0.00    +0.000 Cl
ATOM     12  C   UNL     1       0.589  10.901  20.037  0.00  0.00    +0.000 A 
ATOM     13  C   UNL     1       0.603   9.585  19.530  0.00  0.00    +0.000 A 
BRANCH  12  14
ATOM     14  N   UNL     1      -0.240  11.169  21.190  0.00  0.00    +0.000 N 
ATOM     15  O   UNL     1      -1.367  11.635  20.991  0.00  0.00    +0.000 OA
ATOM     16  O   UNL     1       0.274  10.965  22.299  0.00  0.00    +0.000 OA
ENDBRANCH  12  14
ENDBRANCH   4   7
BRANCH   1  17
ATOM     17  C   UNL     1       3.047   4.606  18.235  0.00  0.00    +0.000 C 
ATOM     18  C   UNL     1       2.490   3.341  17.533  0.00  0.00    +0.000 C 
ATOM     19  C   UNL     1       2.999   4.440  19.776  0.00  0.00    +0.000 C 
BRANCH  17  24
ATOM     20  C   UNL     1       6.340   4.817  16.152  0.00  0.00    +0.000 A 
ATOM     21  C   UNL     1       7.292   4.863  17.173  0.00  0.00    +0.000 A 
ATOM     22  C   UNL     1       6.889   4.844  18.503  0.00  0.00    +0.000 A 
ATOM     23  C   UNL     1       5.534   4.781  18.816  0.00  0.00    +0.000 A 
ATOM     24  C   UNL     1       4.536   4.732  17.816  0.00  0.00    +0.000 A 
ATOM     25  C   UNL     1       4.971   4.761  16.480  0.00  0.00    +0.000 A 
BRANCH  20  27
ATOM     26  C   UNL     1       5.926   3.942  13.761  0.00  0.00    +0.000 C 
ATOM     27  C   UNL     1       6.748   4.800  14.706  0.00  0.00    +0.000 C 
ATOM     28  N   UNL     1       7.773   5.517  14.339  0.00  0.00    +0.000 NA
BRANCH  28  29
ATOM     29  O   UNL     1       8.030   5.411  12.970  0.00  0.00    +0.000 OA
ATOM     30  H   UNL     1       8.402   4.513  12.893  0.00  0.00    +0.000 HD
ENDBRANCH  28  29
ENDBRANCH  20  27
ENDBRANCH  17  24
ENDBRANCH   1  17
TORSDOF 6
ENDMDL
MODEL 4
REMARK VINA RESULT:      -8.5      5.172      7.314
REMARK  Name = 
REMARK  9 active torsions:
REMARK  status: ('A' for Active; 'I' for Inactive)
REMARK    1  A    between atoms: C_1  and  C_2
REMARK    2  A    between atoms: C_2  and  C_5
REMARK    3  A    between atoms: N_3  and  O_4
REMARK    4  A    between atoms: C_9  and  C_10
REMARK    5  A    between atoms: C_10  and  C_11
REMARK    6  A    between atoms: C_10  and  C_12
REMARK    7  A    between atoms: C_10  and  N_13
REMARK    8  A    between atoms: N_16  and  C_17
REMARK    9  A    between atoms: C_22  and  N_23
REMARK                            x       y       z     vdW  Elec       q    Type
REMARK                         _______ _______ _______ _____ _____    ______ ____
ROOT
ATOM      1  N   UNL     1       7.174   7.077  16.647  0.00  0.00    +0.000 N 
ATOM      2  C   UNL     1       7.773   7.801  17.653  0.00  0.00    +0.000 C 
ATOM      3  O   UNL     1       7.958   7.337  18.775  0.00  0.00    +0.000 OA
ATOM      4  N   UNL     1       8.095   9.089  17.280  0.00  0.00    +0.000 N 
ATOM      5  H   UNL     1       7.429   7.356  15.716  0.00  0.00    +0.000 HD
ATOM      6  H   UNL     1       7.597   9.453  16.479  0.00  0.00    +0.000 HD
ENDROOT
BRANCH   4   7
ATOM      7  C   UNL     1       8.762  10.013  18.123  0.00  0.00    +0.000 A 
ATOM      8  C   UNL     1       8.980   9.762  19.484  0.00  0.00    +0.000 A 
ATOM      9  C   UNL     1       9.592  10.702  20.319  0.00  0.00    +0.000 A 
ATOM     10  C   UNL     1      10.022  11.917  19.802  0.00  0.00    +0.000 A 
ATOM     11 CL   UNL     1      10.806  13.008  20.883  0.00  0.00    +0.000 Cl
ATOM     12  C   UNL     1       9.832  12.161  18.439  0.00  0.00    +0.000 A 
ATOM     13  C   UNL     1       9.216  11.219  17.590  0.00  0.00    +0.000 A 
BRANCH  12  14
ATOM     14  N   UNL     1      10.250  13.417  17.860  0.00  0.00    +0.000 N 
ATOM     15  O   UNL     1      11.311  13.432  17.227  0.00  0.00    +0.000 OA
ATOM     16  O   UNL     1       9.536  14.400  18.099  0.00  0.00    +0.000 OA
ENDBRANCH  12  14
ENDBRANCH   4   7
BRANCH   1  17
ATOM     17  C   UNL     1       6.731   5.675  16.863  0.00  0.00    +0.000 C 
ATOM     18  C   UNL     1       7.601   5.049  17.983  0.00  0.00    +0.000 C 
ATOM     19  C   UNL     1       6.867   4.861  15.549  0.00  0.00    +0.000 C 
BRANCH  17  24
ATOM     20  C   UNL     1       3.224   4.324  17.909  0.00  0.00    +0.000 A 
ATOM     21  C   UNL     1       2.527   5.520  18.094  0.00  0.00    +0.000 A 
ATOM     22  C   UNL     1       3.171   6.737  17.905  0.00  0.00    +0.000 A 
ATOM     23  C   UNL     1       4.512   6.762  17.531  0.00  0.00    +0.000 A 
ATOM     24  C   UNL     1       5.256   5.577  17.332  0.00  0.00    +0.000 A 
ATOM     25  C   UNL     1       4.582   4.360  17.538  0.00  0.00    +0.000 A 
BRANCH  20  27
ATOM     26  C   UNL     1       3.428   1.760  18.114  0.00  0.00    +0.000 C 
ATOM     27  C   UNL     1       2.544   2.993  18.071  0.00  0.00    +0.000 C 
ATOM     28  N   UNL     1       1.244   2.965  18.170  0.00  0.00    +0.000 NA
BRANCH  28  29
ATOM     29  O   UNL     1       0.754   1.667  18.325  0.00  0.00    +0.000 OA
ATOM     30  H   UNL     1       0.443   1.449  17.427  0.00  0.00    +0.000 HD
ENDBRANCH  28  29
ENDBRANCH  20  27
ENDBRANCH  17  24
ENDBRANCH   1  17
TORSDOF 6
ENDMDL
MODEL 5
REMARK VINA RESULT:      -8.5      1.787      2.461
REMARK  Name = 
REMARK  9 active torsions:
REMARK  status: ('A' for Active; 'I' for Inactive)
REMARK    1  A    between atoms: C_1  and  C_2
REMARK    2  A    between atoms: C_2  and  C_5
REMARK    3  A    between atoms: N_3  and  O_4
REMARK    4  A    between atoms: C_9  and  C_10
REMARK    5  A    between atoms: C_10  and  C_11
REMARK    6  A    between atoms: C_10  and  C_12
REMARK    7  A    between atoms: C_10  and  N_13
REMARK    8  A    between atoms: N_16  and  C_17
REMARK    9  A    between atoms: C_22  and  N_23
REMARK                            x       y       z     vdW  Elec       q    Type
REMARK                         _______ _______ _______ _____ _____    ______ ____
ROOT
ATOM      1  N   UNL     1       2.964   4.735  19.598  0.00  0.00    +0.000 N 
ATOM      2  C   UNL     1       2.418   5.974  19.348  0.00  0.00    +0.000 C 
ATOM      3  O   UNL     1       2.248   6.398  18.208  0.00  0.00    +0.000 OA
ATOM      4  N   UNL     1       2.132   6.686  20.494  0.00  0.00    +0.000 N 
ATOM      5  H   UNL     1       2.693   4.324  20.474  0.00  0.00    +0.000 HD
ATOM      6  H   UNL     1       2.621   6.391  21.329  0.00  0.00    +0.000 HD
ENDROOT
BRANCH   4   7
ATOM      7  C   UNL     1       1.522   7.965  20.499  0.00  0.00    +0.000 A 
ATOM      8  C   UNL     1       1.530   8.802  19.376  0.00  0.00    +0.000 A 
ATOM      9  C   UNL     1       0.970  10.083  19.408  0.00  0.00    +0.000 A 
ATOM     10  C   UNL     1       0.368  10.553  20.568  0.00  0.00    +0.000 A 
ATOM     11 CL   UNL     1      -0.336  12.126  20.518  0.00  0.00    +0.000 Cl
ATOM     12  C   UNL     1       0.334   9.711  21.682  0.00  0.00    +0.000 A 
ATOM     13  C   UNL     1       0.894   8.417  21.660  0.00  0.00    +0.000 A 
BRANCH  12  14
ATOM     14  N   UNL     1      -0.270  10.161  22.915  0.00  0.00    +0.000 N 
ATOM     15  O   UNL     1       0.287   9.852  23.974  0.00  0.00    +0.000 OA
ATOM     16  O   UNL     1      -1.342  10.774  22.814  0.00  0.00    +0.000 OA
ENDBRANCH  12  14
ENDBRANCH   4   7
BRANCH   1  17
ATOM     17  C   UNL     1       3.362   3.829  18.491  0.00  0.00    +0.000 C 
ATOM     18  C   UNL     1       2.147   3.638  17.547  0.00  0.00    +0.000 C 
ATOM     19  C   UNL     1       3.832   2.463  19.057  0.00  0.00    +0.000 C 
BRANCH  17  24
ATOM     20  C   UNL     1       6.449   5.874  17.261  0.00  0.00    +0.000 A 
ATOM     21  C   UNL     1       6.516   5.468  15.926  0.00  0.00    +0.000 A 
ATOM     22  C   UNL     1       5.602   4.546  15.431  0.00  0.00    +0.000 A 
ATOM     23  C   UNL     1       4.620   4.025  16.270  0.00  0.00    +0.000 A 
ATOM     24  C   UNL     1       4.514   4.406  17.627  0.00  0.00    +0.000 A 
ATOM     25  C   UNL     1       5.456   5.335  18.102  0.00  0.00    +0.000 A 
BRANCH  20  27
ATOM     26  C   UNL     1       8.207   6.507  19.039  0.00  0.00    +0.000 C 
ATOM     27  C   UNL     1       7.401   6.896  17.813  0.00  0.00    +0.000 C 
ATOM     28  N   UNL     1       7.489   8.053  17.217  0.00  0.00    +0.000 NA
BRANCH  28  29
ATOM     29  O   UNL     1       8.417   8.896  17.833  0.00  0.00    +0.000 OA
ATOM     30  H   UNL     1       9.046   8.266  18.230  0.00  0.00    +0.000 HD
ENDBRANCH  28  29
ENDBRANCH  20  27
ENDBRANCH  17  24
ENDBRANCH   1  17
TORSDOF 6
ENDMDL
MODEL 6
REMARK VINA RESULT:      -8.5      5.023      7.369
REMARK  Name = 
REMARK  9 active torsions:
REMARK  status: ('A' for Active; 'I' for Inactive)
REMARK    1  A    between atoms: C_1  and  C_2
REMARK    2  A    between atoms: C_2  and  C_5
REMARK    3  A    between atoms: N_3  and  O_4
REMARK    4  A    between atoms: C_9  and  C_10
REMARK    5  A    between atoms: C_10  and  C_11
REMARK    6  A    between atoms: C_10  and  C_12
REMARK    7  A    between atoms: C_10  and  N_13
REMARK    8  A    between atoms: N_16  and  C_17
REMARK    9  A    between atoms: C_22  and  N_23
REMARK                            x       y       z     vdW  Elec       q    Type
REMARK                         _______ _______ _______ _____ _____    ______ ____
ROOT
ATOM      1  N   UNL     1       6.828   7.034  16.846  0.00  0.00    +0.000 N 
ATOM      2  C   UNL     1       7.665   7.726  17.692  0.00  0.00    +0.000 C 
ATOM      3  O   UNL     1       8.307   7.171  18.580  0.00  0.00    +0.000 OA
ATOM      4  N   UNL     1       7.667   9.087  17.465  0.00  0.00    +0.000 N 
ATOM      5  H   UNL     1       6.685   7.464  15.949  0.00  0.00    +0.000 HD
ATOM      6  H   UNL     1       6.867   9.451  16.963  0.00  0.00    +0.000 HD
ENDROOT
BRANCH   4   7
ATOM      7  C   UNL     1       8.482  10.005  18.173  0.00  0.00    +0.000 A 
ATOM      8  C   UNL     1       9.013   9.715  19.437  0.00  0.00    +0.000 A 
ATOM      9  C   UNL     1       9.772  10.648  20.149  0.00  0.00    +0.000 A 
ATOM     10  C   UNL     1      10.035  11.897  19.601  0.00  0.00    +0.000 A 
ATOM     11 CL   UNL     1      11.013  12.979  20.522  0.00  0.00    +0.000 Cl
ATOM     12  C   UNL     1       9.531  12.181  18.330  0.00  0.00    +0.000 A 
ATOM     13  C   UNL     1       8.765  11.247  17.603  0.00  0.00    +0.000 A 
BRANCH  12  14
ATOM     14  N   UNL     1       9.768  13.472  17.725  0.00  0.00    +0.000 N 
ATOM     15  O   UNL     1      10.753  13.589  16.988  0.00  0.00    +0.000 OA
ATOM     16  O   UNL     1       8.992  14.383  18.046  0.00  0.00    +0.000 OA
ENDBRANCH  12  14
ENDBRANCH   4   7
BRANCH   1  17
ATOM     17  C   UNL     1       6.670   5.561  16.951  0.00  0.00    +0.000 C 
ATOM     18  C   UNL     1       7.583   5.046  18.093  0.00  0.00    +0.000 C 
ATOM     19  C   UNL     1       7.046   4.884  15.606  0.00  0.00    +0.000 C 
BRANCH  17  24
ATOM     20  C   UNL     1       3.157   5.299  18.629  0.00  0.00    +0.000 A 
ATOM     21  C   UNL     1       2.621   4.207  17.942  0.00  0.00    +0.000 A 
ATOM     22  C   UNL     1       3.361   3.576  16.950  0.00  0.00    +0.000 A 
ATOM     23  C   UNL     1       4.638   4.035  16.640  0.00  0.00    +0.000 A 
ATOM     24  C   UNL     1       5.221   5.136  17.308  0.00  0.00    +0.000 A 
ATOM     25  C   UNL     1       4.447   5.760  18.301  0.00  0.00    +0.000 A 
BRANCH  20  27
ATOM     26  C   UNL     1       1.636   5.090  20.701  0.00  0.00    +0.000 C 
ATOM     27  C   UNL     1       2.394   5.978  19.731  0.00  0.00    +0.000 C 
ATOM     28  N   UNL     1       2.425   7.279  19.801  0.00  0.00    +0.000 NA
BRANCH  28  29
ATOM     29  O   UNL     1       1.681   7.769  20.877  0.00  0.00    +0.000 OA
ATOM     30  H   UNL     1       2.359   8.211  21.420  0.00  0.00    +0.000 HD
ENDBRANCH  28  29
ENDBRANCH  20  27
ENDBRANCH  17  24
ENDBRANCH   1  17
TORSDOF 6
ENDMDL
MODEL 7
REMARK VINA RESULT:      -8.4      1.766      2.219
REMARK  Name = 
REMARK  9 active torsions:
REMARK  status: ('A' for Active; 'I' for Inactive)
REMARK    1  A    between atoms: C_1  and  C_2
REMARK    2  A    between atoms: C_2  and  C_5
REMARK    3  A    between atoms: N_3  and  O_4
REMARK    4  A    between atoms: C_9  and  C_10
REMARK    5  A    between atoms: C_10  and  C_11
REMARK    6  A    between atoms: C_10  and  C_12
REMARK    7  A    between atoms: C_10  and  N_13
REMARK    8  A    between atoms: N_16  and  C_17
REMARK    9  A    between atoms: C_22  and  N_23
REMARK                            x       y       z     vdW  Elec       q    Type
REMARK                         _______ _______ _______ _____ _____    ______ ____
ROOT
ATOM      1  N   UNL     1       2.987   6.706  18.564  0.00  0.00    +0.000 N 
ATOM      2  C   UNL     1       2.158   7.183  19.555  0.00  0.00    +0.000 C 
ATOM      3  O   UNL     1       1.744   6.469  20.464  0.00  0.00    +0.000 OA
ATOM      4  N   UNL     1       1.819   8.510  19.391  0.00  0.00    +0.000 N 
ATOM      5  H   UNL     1       3.577   7.399  18.138  0.00  0.00    +0.000 HD
ATOM      6  H   UNL     1       1.930   8.880  18.456  0.00  0.00    +0.000 HD
ENDROOT
BRANCH   4   7
ATOM      7  C   UNL     1       1.018   9.240  20.304  0.00  0.00    +0.000 A 
ATOM      8  C   UNL     1       0.921   8.893  21.658  0.00  0.00    +0.000 A 
ATOM      9  C   UNL     1       0.087   9.588  22.539  0.00  0.00    +0.000 A 
ATOM     10  C   UNL     1      -0.662  10.667  22.086  0.00  0.00    +0.000 A 
ATOM     11 CL   UNL     1      -1.635  11.500  23.240  0.00  0.00    +0.000 Cl
ATOM     12  C   UNL     1      -0.547  11.034  20.743  0.00  0.00    +0.000 A 
ATOM     13  C   UNL     1       0.291  10.340  19.847  0.00  0.00    +0.000 A 
BRANCH  12  14
ATOM     14  N   UNL     1      -1.317  12.141  20.223  0.00  0.00    +0.000 N 
ATOM     15  O   UNL     1      -2.443  11.898  19.777  0.00  0.00    +0.000 OA
ATOM     16  O   UNL     1      -0.755  13.245  20.210  0.00  0.00    +0.000 OA
ENDBRANCH  12  14
ENDBRANCH   4   7
BRANCH   1  17
ATOM     17  C   UNL     1       3.443   5.293  18.553  0.00  0.00    +0.000 C 
ATOM     18  C   UNL     1       2.508   4.478  17.621  0.00  0.00    +0.000 C 
ATOM     19  C   UNL     1       3.421   4.710  19.990  0.00  0.00    +0.000 C 
BRANCH  17  24
ATOM     20  C   UNL     1       6.507   4.890  16.171  0.00  0.00    +0.000 A 
ATOM     21  C   UNL     1       7.539   4.727  17.098  0.00  0.00    +0.000 A 
ATOM     22  C   UNL     1       7.264   4.762  18.460  0.00  0.00    +0.000 A 
ATOM     23  C   UNL     1       5.957   4.961  18.898  0.00  0.00    +0.000 A 
ATOM     24  C   UNL     1       4.883   5.130  17.997  0.00  0.00    +0.000 A 
ATOM     25  C   UNL     1       5.191   5.099  16.626  0.00  0.00    +0.000 A 
BRANCH  20  27
ATOM     26  C   UNL     1       5.838   3.960  13.860  0.00  0.00    +0.000 C 
ATOM     27  C   UNL     1       6.770   4.821  14.693  0.00  0.00    +0.000 C 
ATOM     28  N   UNL     1       7.770   5.500  14.205  0.00  0.00    +0.000 NA
BRANCH  28  29
ATOM     29  O   UNL     1       7.888   5.348  12.822  0.00  0.00    +0.000 OA
ATOM     30  H   UNL     1       7.033   5.688  12.498  0.00  0.00    +0.000 HD
ENDBRANCH  28  29
ENDBRANCH  20  27
ENDBRANCH  17  24
ENDBRANCH   1  17
TORSDOF 6
ENDMDL
MODEL 8
REMARK VINA RESULT:      -8.4      1.810      2.165
REMARK  Name = 
REMARK  9 active torsions:
REMARK  status: ('A' for Active; 'I' for Inactive)
REMARK    1  A    between atoms: C_1  and  C_2
REMARK    2  A    between atoms: C_2  and  C_5
REMARK    3  A    between atoms: N_3  and  O_4
REMARK    4  A    between atoms: C_9  and  C_10
REMARK    5  A    between atoms: C_10  and  C_11
REMARK    6  A    between atoms: C_10  and  C_12
REMARK    7  A    between atoms: C_10  and  N_13
REMARK    8  A    between atoms: N_16  and  C_17
REMARK    9  A    between atoms: C_22  and  N_23
REMARK                            x       y       z     vdW  Elec       q    Type
REMARK                         _______ _______ _______ _____ _____    ______ ____
ROOT
ATOM      1  N   UNL     1       2.954   7.041  17.679  0.00  0.00    +0.000 N 
ATOM      2  C   UNL     1       2.170   7.887  18.432  0.00  0.00    +0.000 C 
ATOM      3  O   UNL     1       1.828   7.617  19.580  0.00  0.00    +0.000 OA
ATOM      4  N   UNL     1       1.787   9.024  17.752  0.00  0.00    +0.000 N 
ATOM      5  H   UNL     1       3.500   7.494  16.968  0.00  0.00    +0.000 HD
ATOM      6  H   UNL     1       1.834   8.971  16.743  0.00  0.00    +0.000 HD
ENDROOT
BRANCH   4   7
ATOM      7  C   UNL     1       1.019  10.068  18.327  0.00  0.00    +0.000 A 
ATOM      8  C   UNL     1      -0.381  10.086  18.270  0.00  0.00    +0.000 A 
ATOM      9  C   UNL     1      -1.126  11.146  18.794  0.00  0.00    +0.000 A 
ATOM     10  C   UNL     1      -0.484  12.213  19.410  0.00  0.00    +0.000 A 
ATOM     11 CL   UNL     1      -1.472  13.463  20.069  0.00  0.00    +0.000 Cl
ATOM     12  C   UNL     1       0.910  12.186  19.494  0.00  0.00    +0.000 A 
ATOM     13  C   UNL     1       1.671  11.121  18.969  0.00  0.00    +0.000 A 
BRANCH  12  14
ATOM     14  N   UNL     1       1.623  13.279  20.113  0.00  0.00    +0.000 N 
ATOM     15  O   UNL     1       1.868  14.272  19.419  0.00  0.00    +0.000 OA
ATOM     16  O   UNL     1       1.989  13.107  21.284  0.00  0.00    +0.000 OA
ENDBRANCH  12  14
ENDBRANCH   4   7
BRANCH   1  17
ATOM     17  C   UNL     1       3.447   5.752  18.229  0.00  0.00    +0.000 C 
ATOM     18  C   UNL     1       2.503   4.618  17.752  0.00  0.00    +0.000 C 
ATOM     19  C   UNL     1       3.490   5.810  19.778  0.00  0.00    +0.000 C 
BRANCH  17  24
ATOM     20  C   UNL     1       6.517   4.932  15.964  0.00  0.00    +0.000 A 
ATOM     21  C   UNL     1       7.477   4.621  16.929  0.00  0.00    +0.000 A 
ATOM     22  C   UNL     1       7.156   4.688  18.279  0.00  0.00    +0.000 A 
ATOM     23  C   UNL     1       5.874   5.067  18.669  0.00  0.00    +0.000 A 
ATOM     24  C   UNL     1       4.870   5.391  17.728  0.00  0.00    +0.000 A 
ATOM     25  C   UNL     1       5.225   5.322  16.369  0.00  0.00    +0.000 A 
BRANCH  20  27
ATOM     26  C   UNL     1       5.941   3.928  13.659  0.00  0.00    +0.000 C 
ATOM     27  C   UNL     1       6.826   4.833  14.497  0.00  0.00    +0.000 C 
ATOM     28  N   UNL     1       7.824   5.523  14.022  0.00  0.00    +0.000 NA
BRANCH  28  29
ATOM     29  O   UNL     1       7.987   5.341  12.647  0.00  0.00    +0.000 OA
ATOM     30  H   UNL     1       8.776   4.770  12.601  0.00  0.00    +0.000 HD
ENDBRANCH  28  29
ENDBRANCH  20  27
ENDBRANCH  17  24
ENDBRANCH   1  17
TORSDOF 6
ENDMDL
MODEL 9
REMARK VINA RESULT:      -8.4      4.960      7.302
REMARK  Name = 
REMARK  9 active torsions:
REMARK  status: ('A' for Active; 'I' for Inactive)
REMARK    1  A    between atoms: C_1  and  C_2
REMARK    2  A    between atoms: C_2  and  C_5
REMARK    3  A    between atoms: N_3  and  O_4
REMARK    4  A    between atoms: C_9  and  C_10
REMARK    5  A    between atoms: C_10  and  C_11
REMARK    6  A    between atoms: C_10  and  C_12
REMARK    7  A    between atoms: C_10  and  N_13
REMARK    8  A    between atoms: N_16  and  C_17
REMARK    9  A    between atoms: C_22  and  N_23
REMARK                            x       y       z     vdW  Elec       q    Type
REMARK                         _______ _______ _______ _____ _____    ______ ____
ROOT
ATOM      1  N   UNL     1       7.057   6.980  16.629  0.00  0.00    +0.000 N 
ATOM      2  C   UNL     1       7.706   7.701  17.606  0.00  0.00    +0.000 C 
ATOM      3  O   UNL     1       8.060   7.196  18.668  0.00  0.00    +0.000 OA
ATOM      4  N   UNL     1       7.872   9.032  17.283  0.00  0.00    +0.000 N 
ATOM      5  H   UNL     1       7.178   7.331  15.695  0.00  0.00    +0.000 HD
ATOM      6  H   UNL     1       7.254   9.391  16.567  0.00  0.00    +0.000 HD
ENDROOT
BRANCH   4   7
ATOM      7  C   UNL     1       8.552   9.966  18.103  0.00  0.00    +0.000 A 
ATOM      8  C   UNL     1       9.024   9.636  19.381  0.00  0.00    +0.000 A 
ATOM      9  C   UNL     1       9.647  10.579  20.203  0.00  0.00    +0.000 A 
ATOM     10  C   UNL     1       9.831  11.881  19.755  0.00  0.00    +0.000 A 
ATOM     11 CL   UNL     1      10.644  12.977  20.809  0.00  0.00    +0.000 Cl
ATOM     12  C   UNL     1       9.386  12.208  18.471  0.00  0.00    +0.000 A 
ATOM     13  C   UNL     1       8.757  11.264  17.635  0.00  0.00    +0.000 A 
BRANCH  12  14
ATOM     14  N   UNL     1       9.544  13.553  17.968  0.00  0.00    +0.000 N 
ATOM     15  O   UNL     1       8.650  14.369  18.220  0.00  0.00    +0.000 OA
ATOM     16  O   UNL     1      10.541  13.766  17.264  0.00  0.00    +0.000 OA
ENDBRANCH  12  14
ENDBRANCH   4   7
BRANCH   1  17
ATOM     17  C   UNL     1       6.764   5.534  16.802  0.00  0.00    +0.000 C 
ATOM     18  C   UNL     1       7.653   4.983  17.947  0.00  0.00    +0.000 C 
ATOM     19  C   UNL     1       7.040   4.768  15.482  0.00  0.00    +0.000 C 
BRANCH  17  24
ATOM     20  C   UNL     1       3.197   5.847  18.352  0.00  0.00    +0.000 A 
ATOM     21  C   UNL     1       2.642   4.620  17.980  0.00  0.00    +0.000 A 
ATOM     22  C   UNL     1       3.387   3.716  17.232  0.00  0.00    +0.000 A 
ATOM     23  C   UNL     1       4.689   4.036  16.855  0.00  0.00    +0.000 A 
ATOM     24  C   UNL     1       5.291   5.265  17.209  0.00  0.00    +0.000 A 
ATOM     25  C   UNL     1       4.511   6.163  17.958  0.00  0.00    +0.000 A 
BRANCH  20  27
ATOM     26  C   UNL     1       2.104   8.173  18.567  0.00  0.00    +0.000 C 
ATOM     27  C   UNL     1       2.427   6.827  19.191  0.00  0.00    +0.000 C 
ATOM     28  N   UNL     1       2.076   6.477  20.396  0.00  0.00    +0.000 NA
BRANCH  28  29
ATOM     29  O   UNL     1       1.361   7.481  21.052  0.00  0.00    +0.000 OA
ATOM     30  H   UNL     1       2.056   7.938  21.561  0.00  0.00    +0.000 HD
ENDBRANCH  28  29
ENDBRANCH  20  27
ENDBRANCH  17  24
ENDBRANCH   1  17
TORSDOF 6
ENDMDL
