MODEL 1
REMARK VINA RESULT:      -4.3      0.000      0.000
REMARK  Name = 
REMARK  7 active torsions:
REMARK  status: ('A' for Active; 'I' for Inactive)
REMARK    1  A    between atoms: C_1  and  N_2
REMARK    2  A    between atoms: N_2  and  C_3
REMARK    3  A    between atoms: N_2  and  C_4
REMARK    4  A    between atoms: N_2  and  C_5
REMARK    5  A    between atoms: C_5  and  C_6
REMARK    6  A    between atoms: C_6  and  O_7
REMARK    7  A    between atoms: O_7  and  C_8
REMARK                            x       y       z     vdW  Elec       q    Type
REMARK                         _______ _______ _______ _____ _____    ______ ____
ROOT
ATOM      1  C   UNL     1       4.877   4.539  16.476  0.00  0.00    +0.000 C 
ENDROOT
BRANCH   1   2
ATOM      2  C   UNL     1       4.093   3.557  17.361  0.00  0.00    +0.000 C 
BRANCH   2   4
ATOM      3  C   UNL     1       5.152   4.982  19.162  0.00  0.00    +0.000 C 
ATOM      4  N   UNL     1       4.116   3.898  18.856  0.00  0.00    +0.000 N 
ATOM      5  C   UNL     1       4.365   2.688  19.728  0.00  0.00    +0.000 C 
ATOM      6  C   UNL     1       2.739   4.478  19.229  0.00  0.00    +0.000 C 
ENDBRANCH   2   4
ENDBRANCH   1   2
BRANCH   1   7
ATOM      7  O   UNL     1       5.982   3.889  15.823  0.00  0.00    +0.000 OA
BRANCH   7   8
ATOM      8  C   UNL     1       7.172   4.509  15.977  0.00  0.00    +0.000 C 
ATOM      9  N   UNL     1       7.428   5.293  14.911  0.00  0.00    +0.000 N 
ATOM     10  O   UNL     1       7.913   4.383  16.938  0.00  0.00    +0.000 OA
ATOM     11  H   UNL     1       6.745   5.393  14.177  0.00  0.00    +0.000 HD
ATOM     12  H   UNL     1       8.261   5.866  14.906  0.00  0.00    +0.000 HD
ENDBRANCH   7   8
ENDBRANCH   1   7
TORSDOF 4
ENDMDL
MODEL 2
REMARK VINA RESULT:      -4.2      1.140      1.977
REMARK  Name = 
REMARK  7 active torsions:
REMARK  status: ('A' for Active; 'I' for Inactive)
REMARK    1  A    between atoms: C_1  and  N_2
REMARK    2  A    between atoms: N_2  and  C_3
REMARK    3  A    between atoms: N_2  and  C_4
REMARK    4  A    between atoms: N_2  and  C_5
REMARK    5  A    between atoms: C_5  and  C_6
REMARK    6  A    between atoms: C_6  and  O_7
REMARK    7  A    between atoms: O_7  and  C_8
REMARK                            x       y       z     vdW  Elec       q    Type
REMARK                         _______ _______ _______ _____ _____    ______ ____
ROOT
ATOM      1  C   UNL     1       5.112   4.527  15.848  0.00  0.00    +0.000 C 
ENDROOT
BRANCH   1   2
ATOM      2  C   UNL     1       4.140   4.153  16.978  0.00  0.00    +0.000 C 
BRANCH   2   4
ATOM      3  C   UNL     1       2.459   5.235  18.527  0.00  0.00    +0.000 C 
ATOM      4  N   UNL     1       3.894   5.274  17.995  0.00  0.00    +0.000 N 
ATOM      5  C   UNL     1       4.199   6.646  17.439  0.00  0.00    +0.000 C 
ATOM      6  C   UNL     1       4.824   5.030  19.199  0.00  0.00    +0.000 C 
ENDBRANCH   2   4
ENDBRANCH   1   2
BRANCH   1   7
ATOM      7  O   UNL     1       6.369   3.842  15.990  0.00  0.00    +0.000 OA
BRANCH   7   8
ATOM      8  C   UNL     1       7.364   4.591  16.514  0.00  0.00    +0.000 C 
ATOM      9  N   UNL     1       7.370   5.814  15.948  0.00  0.00    +0.000 N 
ATOM     10  O   UNL     1       8.145   4.223  17.375  0.00  0.00    +0.000 OA
ATOM     11  H   UNL     1       6.659   6.071  15.281  0.00  0.00    +0.000 HD
ATOM     12  H   UNL     1       8.026   6.509  16.277  0.00  0.00    +0.000 HD
ENDBRANCH   7   8
ENDBRANCH   1   7
TORSDOF 4
ENDMDL
MODEL 3
REMARK VINA RESULT:      -4.2      0.733      1.406
REMARK  Name = 
REMARK  7 active torsions:
REMARK  status: ('A' for Active; 'I' for Inactive)
REMARK    1  A    between atoms: C_1  and  N_2
REMARK    2  A    between atoms: N_2  and  C_3
REMARK    3  A    between atoms: N_2  and  C_4
REMARK    4  A    between atoms: N_2  and  C_5
REMARK    5  A    between atoms: C_5  and  C_6
REMARK    6  A    between atoms: C_6  and  O_7
REMARK    7  A    between atoms: O_7  and  C_8
REMARK                            x       y       z     vdW  Elec       q    Type
REMARK                         _______ _______ _______ _____ _____    ______ ____
ROOT
ATOM      1  C   UNL     1       4.892   4.986  16.794  0.00  0.00    +0.000 C 
ENDROOT
BRANCH   1   2
ATOM      2  C   UNL     1       3.681   4.192  17.307  0.00  0.00    +0.000 C 
BRANCH   2   4
ATOM      3  C   UNL     1       4.252   2.889  19.398  0.00  0.00    +0.000 C 
ATOM      4  N   UNL     1       3.564   4.135  18.834  0.00  0.00    +0.000 N 
ATOM      5  C   UNL     1       2.131   4.191  19.312  0.00  0.00    +0.000 C 
ATOM      6  C   UNL     1       4.306   5.355  19.410  0.00  0.00    +0.000 C 
ENDBRANCH   2   4
ENDBRANCH   1   2
BRANCH   1   7
ATOM      7  O   UNL     1       5.997   4.117  16.484  0.00  0.00    +0.000 OA
BRANCH   7   8
ATOM      8  C   UNL     1       7.216   4.675  16.646  0.00  0.00    +0.000 C 
ATOM      9  N   UNL     1       7.291   5.833  15.961  0.00  0.00    +0.000 N 
ATOM     10  O   UNL     1       8.123   4.206  17.314  0.00  0.00    +0.000 OA
ATOM     11  H   UNL     1       6.484   6.190  15.473  0.00  0.00    +0.000 HD
ATOM     12  H   UNL     1       8.128   6.396  16.029  0.00  0.00    +0.000 HD
ENDBRANCH   7   8
ENDBRANCH   1   7
TORSDOF 4
ENDMDL
MODEL 4
REMARK VINA RESULT:      -4.2      1.160      1.394
REMARK  Name = 
REMARK  7 active torsions:
REMARK  status: ('A' for Active; 'I' for Inactive)
REMARK    1  A    between atoms: C_1  and  N_2
REMARK    2  A    between atoms: N_2  and  C_3
REMARK    3  A    between atoms: N_2  and  C_4
REMARK    4  A    between atoms: N_2  and  C_5
REMARK    5  A    between atoms: C_5  and  C_6
REMARK    6  A    between atoms: C_6  and  O_7
REMARK    7  A    between atoms: O_7  and  C_8
REMARK                            x       y       z     vdW  Elec       q    Type
REMARK                         _______ _______ _______ _____ _____    ______ ____
ROOT
ATOM      1  C   UNL     1       5.238   4.406  17.689  0.00  0.00    +0.000 C 
ENDROOT
BRANCH   1   2
ATOM      2  C   UNL     1       3.714   4.464  17.503  0.00  0.00    +0.000 C 
BRANCH   2   4
ATOM      3  C   UNL     1       3.240   3.658  19.853  0.00  0.00    +0.000 C 
ATOM      4  N   UNL     1       2.934   3.465  18.366  0.00  0.00    +0.000 N 
ATOM      5  C   UNL     1       3.188   2.028  17.970  0.00  0.00    +0.000 C 
ATOM      6  C   UNL     1       1.432   3.751  18.178  0.00  0.00    +0.000 C 
ENDBRANCH   2   4
ENDBRANCH   1   2
BRANCH   1   7
ATOM      7  O   UNL     1       5.908   4.134  16.445  0.00  0.00    +0.000 OA
BRANCH   7   8
ATOM      8  C   UNL     1       7.177   4.592  16.375  0.00  0.00    +0.000 C 
ATOM      9  N   UNL     1       7.330   5.366  15.281  0.00  0.00    +0.000 N 
ATOM     10  O   UNL     1       8.060   4.349  17.180  0.00  0.00    +0.000 OA
ATOM     11  H   UNL     1       6.542   5.571  14.687  0.00  0.00    +0.000 HD
ATOM     12  H   UNL     1       8.215   5.828  15.121  0.00  0.00    +0.000 HD
ENDBRANCH   7   8
ENDBRANCH   1   7
TORSDOF 4
ENDMDL
MODEL 5
REMARK VINA RESULT:      -4.1      2.435      2.931
REMARK  Name = 
REMARK  7 active torsions:
REMARK  status: ('A' for Active; 'I' for Inactive)
REMARK    1  A    between atoms: C_1  and  N_2
REMARK    2  A    between atoms: N_2  and  C_3
REMARK    3  A    between atoms: N_2  and  C_4
REMARK    4  A    between atoms: N_2  and  C_5
REMARK    5  A    between atoms: C_5  and  C_6
REMARK    6  A    between atoms: C_6  and  O_7
REMARK    7  A    between atoms: O_7  and  C_8
REMARK                            x       y       z     vdW  Elec       q    Type
REMARK                         _______ _______ _______ _____ _____    ______ ____
ROOT
ATOM      1  C   UNL     1       5.550   4.706  18.503  0.00  0.00    +0.000 C 
ENDROOT
BRANCH   1   2
ATOM      2  C   UNL     1       4.805   3.596  19.260  0.00  0.00    +0.000 C 
BRANCH   2   4
ATOM      3  C   UNL     1       3.152   4.043  17.399  0.00  0.00    +0.000 C 
ATOM      4  N   UNL     1       3.436   3.237  18.669  0.00  0.00    +0.000 N 
ATOM      5  C   UNL     1       2.307   3.420  19.658  0.00  0.00    +0.000 C 
ATOM      6  C   UNL     1       3.474   1.753  18.258  0.00  0.00    +0.000 C 
ENDBRANCH   2   4
ENDBRANCH   1   2
BRANCH   1   7
ATOM      7  O   UNL     1       6.976   4.528  18.580  0.00  0.00    +0.000 OA
BRANCH   7   8
ATOM      8  C   UNL     1       7.663   5.629  18.955  0.00  0.00    +0.000 C 
ATOM      9  N   UNL     1       8.255   5.422  20.148  0.00  0.00    +0.000 N 
ATOM     10  O   UNL     1       7.742   6.663  18.314  0.00  0.00    +0.000 OA
ATOM     11  H   UNL     1       8.194   4.522  20.598  0.00  0.00    +0.000 HD
ATOM     12  H   UNL     1       8.852   6.139  20.536  0.00  0.00    +0.000 HD
ENDBRANCH   7   8
ENDBRANCH   1   7
TORSDOF 4
ENDMDL
MODEL 6
REMARK VINA RESULT:      -4.1      1.261      1.905
REMARK  Name = 
REMARK  7 active torsions:
REMARK  status: ('A' for Active; 'I' for Inactive)
REMARK    1  A    between atoms: C_1  and  N_2
REMARK    2  A    between atoms: N_2  and  C_3
REMARK    3  A    between atoms: N_2  and  C_4
REMARK    4  A    between atoms: N_2  and  C_5
REMARK    5  A    between atoms: C_5  and  C_6
REMARK    6  A    between atoms: C_6  and  O_7
REMARK    7  A    between atoms: O_7  and  C_8
REMARK                            x       y       z     vdW  Elec       q    Type
REMARK                         _______ _______ _______ _____ _____    ______ ____
ROOT
ATOM      1  C   UNL     1       4.726   4.626  16.823  0.00  0.00    +0.000 C 
ENDROOT
BRANCH   1   2
ATOM      2  C   UNL     1       3.842   3.548  17.468  0.00  0.00    +0.000 C 
BRANCH   2   4
ATOM      3  C   UNL     1       1.926   3.848  19.091  0.00  0.00    +0.000 C 
ATOM      4  N   UNL     1       3.447   3.840  18.921  0.00  0.00    +0.000 N 
ATOM      5  C   UNL     1       4.029   5.138  19.434  0.00  0.00    +0.000 C 
ATOM      6  C   UNL     1       3.990   2.695  19.796  0.00  0.00    +0.000 C 
ENDBRANCH   2   4
ENDBRANCH   1   2
BRANCH   1   7
ATOM      7  O   UNL     1       5.951   4.066  16.316  0.00  0.00    +0.000 OA
BRANCH   7   8
ATOM      8  C   UNL     1       7.059   4.784  16.600  0.00  0.00    +0.000 C 
ATOM      9  N   UNL     1       7.638   4.318  17.725  0.00  0.00    +0.000 N 
ATOM     10  O   UNL     1       7.483   5.718  15.940  0.00  0.00    +0.000 OA
ATOM     11  H   UNL     1       7.265   3.506  18.191  0.00  0.00    +0.000 HD
ATOM     12  H   UNL     1       8.511   4.721  18.037  0.00  0.00    +0.000 HD
ENDBRANCH   7   8
ENDBRANCH   1   7
TORSDOF 4
ENDMDL
MODEL 7
REMARK VINA RESULT:      -4.1      1.740      2.212
REMARK  Name = 
REMARK  7 active torsions:
REMARK  status: ('A' for Active; 'I' for Inactive)
REMARK    1  A    between atoms: C_1  and  N_2
REMARK    2  A    between atoms: N_2  and  C_3
REMARK    3  A    between atoms: N_2  and  C_4
REMARK    4  A    between atoms: N_2  and  C_5
REMARK    5  A    between atoms: C_5  and  C_6
REMARK    6  A    between atoms: C_6  and  O_7
REMARK    7  A    between atoms: O_7  and  C_8
REMARK                            x       y       z     vdW  Elec       q    Type
REMARK                         _______ _______ _______ _____ _____    ______ ____
ROOT
ATOM      1  C   UNL     1       5.658   4.514  18.652  0.00  0.00    +0.000 C 
ENDROOT
BRANCH   1   2
ATOM      2  C   UNL     1       4.437   5.299  19.155  0.00  0.00    +0.000 C 
BRANCH   2   4
ATOM      3  C   UNL     1       3.470   2.974  19.385  0.00  0.00    +0.000 C 
ATOM      4  N   UNL     1       3.154   4.467  19.270  0.00  0.00    +0.000 N 
ATOM      5  C   UNL     1       2.199   4.704  18.122  0.00  0.00    +0.000 C 
ATOM      6  C   UNL     1       2.442   4.875  20.573  0.00  0.00    +0.000 C 
ENDBRANCH   2   4
ENDBRANCH   1   2
BRANCH   1   7
ATOM      7  O   UNL     1       5.878   4.730  17.247  0.00  0.00    +0.000 OA
BRANCH   7   8
ATOM      8  C   UNL     1       7.168   4.628  16.856  0.00  0.00    +0.000 C 
ATOM      9  N   UNL     1       7.949   4.323  17.911  0.00  0.00    +0.000 N 
ATOM     10  O   UNL     1       7.573   4.786  15.716  0.00  0.00    +0.000 OA
ATOM     11  H   UNL     1       7.539   4.152  18.816  0.00  0.00    +0.000 HD
ATOM     12  H   UNL     1       8.936   4.160  17.766  0.00  0.00    +0.000 HD
ENDBRANCH   7   8
ENDBRANCH   1   7
TORSDOF 4
ENDMDL
MODEL 8
REMARK VINA RESULT:      -4.1      1.899      2.569
REMARK  Name = 
REMARK  7 active torsions:
REMARK  status: ('A' for Active; 'I' for Inactive)
REMARK    1  A    between atoms: C_1  and  N_2
REMARK    2  A    between atoms: N_2  and  C_3
REMARK    3  A    between atoms: N_2  and  C_4
REMARK    4  A    between atoms: N_2  and  C_5
REMARK    5  A    between atoms: C_5  and  C_6
REMARK    6  A    between atoms: C_6  and  O_7
REMARK    7  A    between atoms: O_7  and  C_8
REMARK                            x       y       z     vdW  Elec       q    Type
REMARK                         _______ _______ _______ _____ _____    ______ ____
ROOT
ATOM      1  C   UNL     1       5.223   4.672  19.036  0.00  0.00    +0.000 C 
ENDROOT
BRANCH   1   2
ATOM      2  C   UNL     1       4.408   3.950  17.952  0.00  0.00    +0.000 C 
BRANCH   2   4
ATOM      3  C   UNL     1       2.567   2.221  17.823  0.00  0.00    +0.000 C 
ATOM      4  N   UNL     1       2.978   3.589  18.372  0.00  0.00    +0.000 N 
ATOM      5  C   UNL     1       1.966   4.634  17.958  0.00  0.00    +0.000 C 
ATOM      6  C   UNL     1       2.950   3.481  19.908  0.00  0.00    +0.000 C 
ENDBRANCH   2   4
ENDBRANCH   1   2
BRANCH   1   7
ATOM      7  O   UNL     1       6.620   4.340  18.950  0.00  0.00    +0.000 OA
BRANCH   7   8
ATOM      8  C   UNL     1       7.328   5.102  18.087  0.00  0.00    +0.000 C 
ATOM      9  N   UNL     1       7.906   4.325  17.149  0.00  0.00    +0.000 N 
ATOM     10  O   UNL     1       7.434   6.316  18.141  0.00  0.00    +0.000 OA
ATOM     11  H   UNL     1       7.732   3.332  17.132  0.00  0.00    +0.000 HD
ATOM     12  H   UNL     1       8.427   4.758  16.399  0.00  0.00    +0.000 HD
ENDBRANCH   7   8
ENDBRANCH   1   7
TORSDOF 4
ENDMDL
MODEL 9
REMARK VINA RESULT:      -4.1      1.192      1.844
REMARK  Name = 
REMARK  7 active torsions:
REMARK  status: ('A' for Active; 'I' for Inactive)
REMARK    1  A    between atoms: C_1  and  N_2
REMARK    2  A    between atoms: N_2  and  C_3
REMARK    3  A    between atoms: N_2  and  C_4
REMARK    4  A    between atoms: N_2  and  C_5
REMARK    5  A    between atoms: C_5  and  C_6
REMARK    6  A    between atoms: C_6  and  O_7
REMARK    7  A    between atoms: O_7  and  C_8
REMARK                            x       y       z     vdW  Elec       q    Type
REMARK                         _______ _______ _______ _____ _____    ______ ____
ROOT
ATOM      1  C   UNL     1       5.696   4.830  18.428  0.00  0.00    +0.000 C 
ENDROOT
BRANCH   1   2
ATOM      2  C   UNL     1       4.865   3.670  18.996  0.00  0.00    +0.000 C 
BRANCH   2   4
ATOM      3  C   UNL     1       2.627   3.510  17.829  0.00  0.00    +0.000 C 
ATOM      4  N   UNL     1       3.362   3.959  19.095  0.00  0.00    +0.000 N 
ATOM      5  C   UNL     1       3.064   5.415  19.374  0.00  0.00    +0.000 C 
ATOM      6  C   UNL     1       2.797   3.125  20.260  0.00  0.00    +0.000 C 
ENDBRANCH   2   4
ENDBRANCH   1   2
BRANCH   1   7
ATOM      7  O   UNL     1       5.908   4.680  17.013  0.00  0.00    +0.000 OA
BRANCH   7   8
ATOM      8  C   UNL     1       7.203   4.720  16.628  0.00  0.00    +0.000 C 
ATOM      9  N   UNL     1       7.326   5.430  15.489  0.00  0.00    +0.000 N 
ATOM     10  O   UNL     1       8.131   4.196  17.220  0.00  0.00    +0.000 OA
ATOM     11  H   UNL     1       6.522   5.884  15.082  0.00  0.00    +0.000 HD
ATOM     12  H   UNL     1       8.246   5.596  15.105  0.00  0.00    +0.000 HD
ENDBRANCH   7   8
ENDBRANCH   1   7
TORSDOF 4
ENDMDL
