MODEL 1
REMARK VINA RESULT:      -7.7      0.000      0.000
REMARK  Name = 
REMARK  15 active torsions:
REMARK  status: ('A' for Active; 'I' for Inactive)
REMARK    1  A    between atoms: C_1  and  C_2
REMARK    2  A    between atoms: C_2  and  C_3
REMARK    3  A    between atoms: C_3  and  O_4
REMARK    4  A    between atoms: O_4  and  C_5
REMARK    5  A    between atoms: C_8  and  C_9
REMARK    6  A    between atoms: C_10  and  C_11
REMARK    7  A    between atoms: C_11  and  C_12
REMARK    8  A    between atoms: C_11  and  C_13
REMARK    9  A    between atoms: C_11  and  C_22
REMARK   10  A    between atoms: C_14  and  C_15
REMARK   11  A    between atoms: C_18  and  O_19
REMARK   12  A    between atoms: C_22  and  C_23
REMARK   13  A    between atoms: C_23  and  C_24
REMARK   14  A    between atoms: C_25  and  C_26
REMARK   15  A    between atoms: C_25  and  C_27
REMARK                            x       y       z     vdW  Elec       q    Type
REMARK                         _______ _______ _______ _____ _____    ______ ____
ROOT
ATOM      1  C   UNL     1       6.462   5.627  17.412  0.00  0.00    +0.000 C 
ATOM      2  C   UNL     1       7.688   4.694  17.226  0.00  0.00    +0.000 C 
ENDROOT
BRANCH   1   4
ATOM      3  C   UNL     1       7.932   7.730  17.507  0.00  0.00    +0.000 C 
ATOM      4  C   UNL     1       6.873   7.009  17.912  0.00  0.00    +0.000 C 
BRANCH   3   8
ATOM      5  C   UNL     1       9.077  11.572  19.037  0.00  0.00    +0.000 A 
ATOM      6  C   UNL     1       9.508  10.385  19.643  0.00  0.00    +0.000 A 
ATOM      7  C   UNL     1       9.110   9.138  19.155  0.00  0.00    +0.000 A 
ATOM      8  C   UNL     1       8.268   9.053  18.046  0.00  0.00    +0.000 A 
ATOM      9  C   UNL     1       7.846  10.236  17.429  0.00  0.00    +0.000 A 
ATOM     10  C   UNL     1       8.250  11.489  17.908  0.00  0.00    +0.000 A 
ATOM     11 CL   UNL     1       7.730  12.841  16.961  0.00  0.00    +0.000 Cl
BRANCH   5  12
ATOM     12  O   UNL     1       9.602  12.687  19.633  0.00  0.00    +0.000 OA
BRANCH  12  13
ATOM     13  C   UNL     1       9.205  12.952  20.975  0.00  0.00    +0.000 C 
BRANCH  13  15
ATOM     14  C   UNL     1      10.005  15.027  22.128  0.00  0.00    +0.000 C 
ATOM     15  C   UNL     1       9.008  14.455  21.136  0.00  0.00    +0.000 C 
ENDBRANCH  13  15
ENDBRANCH  12  13
ENDBRANCH   5  12
ENDBRANCH   3   8
ENDBRANCH   1   4
BRANCH   1  16
ATOM     16  C   UNL     1       5.476   5.053  18.425  0.00  0.00    +0.000 C 
ATOM     17  C   UNL     1       4.149   4.897  18.276  0.00  0.00    +0.000 C 
BRANCH  17  18
ATOM     18  C   UNL     1       3.285   4.333  19.322  0.00  0.00    +0.000 A 
ATOM     19  C   UNL     1       2.008   4.847  19.587  0.00  0.00    +0.000 A 
ATOM     20  C   UNL     1       1.185   4.258  20.551  0.00  0.00    +0.000 A 
ATOM     21  C   UNL     1       1.638   3.141  21.242  0.00  0.00    +0.000 A 
ATOM     22  C   UNL     1       2.896   2.613  20.991  0.00  0.00    +0.000 A 
ATOM     23  C   UNL     1       3.719   3.205  20.030  0.00  0.00    +0.000 A 
BRANCH  21  24
ATOM     24  O   UNL     1       0.860   2.524  22.176  0.00  0.00    +0.000 OA
ATOM     25  H   UNL     1       0.728   3.135  22.917  0.00  0.00    +0.000 HD
ENDBRANCH  21  24
ENDBRANCH  17  18
ENDBRANCH   1  16
BRANCH   1  26
ATOM     26  C   UNL     1       5.784   5.735  15.991  0.00  0.00    +0.000 C 
BRANCH  26  27
ATOM     27  C   UNL     1       6.444   4.897  14.880  0.00  0.00    +0.000 C 
BRANCH  27  28
ATOM     28  C   UNL     1       5.505   4.130  13.996  0.00  0.00    +0.000 C 
ATOM     29  C   UNL     1       5.819   3.775  12.731  0.00  0.00    +0.000 C 
ATOM     30  C   UNL     1       7.135   4.103  12.066  0.00  0.00    +0.000 C 
ATOM     31  C   UNL     1       4.862   3.011  11.862  0.00  0.00    +0.000 C 
ENDBRANCH  27  28
ENDBRANCH  26  27
ENDBRANCH   1  26
TORSDOF 11
ENDMDL
MODEL 2
REMARK VINA RESULT:      -7.7      6.011      9.800
REMARK  Name = 
REMARK  15 active torsions:
REMARK  status: ('A' for Active; 'I' for Inactive)
REMARK    1  A    between atoms: C_1  and  C_2
REMARK    2  A    between atoms: C_2  and  C_3
REMARK    3  A    between atoms: C_3  and  O_4
REMARK    4  A    between atoms: O_4  and  C_5
REMARK    5  A    between atoms: C_8  and  C_9
REMARK    6  A    between atoms: C_10  and  C_11
REMARK    7  A    between atoms: C_11  and  C_12
REMARK    8  A    between atoms: C_11  and  C_13
REMARK    9  A    between atoms: C_11  and  C_22
REMARK   10  A    between atoms: C_14  and  C_15
REMARK   11  A    between atoms: C_18  and  O_19
REMARK   12  A    between atoms: C_22  and  C_23
REMARK   13  A    between atoms: C_23  and  C_24
REMARK   14  A    between atoms: C_25  and  C_26
REMARK   15  A    between atoms: C_25  and  C_27
REMARK                            x       y       z     vdW  Elec       q    Type
REMARK                         _______ _______ _______ _____ _____    ______ ____
ROOT
ATOM      1  C   UNL     1       0.353  10.265  19.888  0.00  0.00    +0.000 C 
ATOM      2  C   UNL     1       0.401  10.083  21.428  0.00  0.00    +0.000 C 
ENDROOT
BRANCH   1   4
ATOM      3  C   UNL     1       1.744   8.121  19.637  0.00  0.00    +0.000 C 
ATOM      4  C   UNL     1       1.298   9.301  19.175  0.00  0.00    +0.000 C 
BRANCH   3   8
ATOM      5  C   UNL     1       4.562   5.686  17.505  0.00  0.00    +0.000 A 
ATOM      6  C   UNL     1       4.244   6.982  17.078  0.00  0.00    +0.000 A 
ATOM      7  C   UNL     1       3.307   7.758  17.761  0.00  0.00    +0.000 A 
ATOM      8  C   UNL     1       2.664   7.253  18.892  0.00  0.00    +0.000 A 
ATOM      9  C   UNL     1       2.988   5.965  19.331  0.00  0.00    +0.000 A 
ATOM     10  C   UNL     1       3.936   5.185  18.655  0.00  0.00    +0.000 A 
ATOM     11 CL   UNL     1       4.301   3.664  19.396  0.00  0.00    +0.000 Cl
BRANCH   5  12
ATOM     12  O   UNL     1       5.526   5.099  16.731  0.00  0.00    +0.000 OA
BRANCH  12  13
ATOM     13  C   UNL     1       6.834   5.663  16.783  0.00  0.00    +0.000 C 
BRANCH  13  15
ATOM     14  C   UNL     1       7.926   6.053  19.003  0.00  0.00    +0.000 C 
ATOM     15  C   UNL     1       7.593   5.022  17.939  0.00  0.00    +0.000 C 
ENDBRANCH  13  15
ENDBRANCH  12  13
ENDBRANCH   5  12
ENDBRANCH   3   8
ENDBRANCH   1   4
BRANCH   1  16
ATOM     16  C   UNL     1       0.757  11.679  19.482  0.00  0.00    +0.000 C 
ATOM     17  C   UNL     1       1.917  12.069  18.926  0.00  0.00    +0.000 C 
BRANCH  17  18
ATOM     18  C   UNL     1       2.207  13.466  18.573  0.00  0.00    +0.000 A 
ATOM     19  C   UNL     1       1.291  14.499  18.817  0.00  0.00    +0.000 A 
ATOM     20  C   UNL     1       1.613  15.826  18.520  0.00  0.00    +0.000 A 
ATOM     21  C   UNL     1       2.862  16.121  17.990  0.00  0.00    +0.000 A 
ATOM     22  C   UNL     1       3.786  15.114  17.745  0.00  0.00    +0.000 A 
ATOM     23  C   UNL     1       3.461  13.788  18.039  0.00  0.00    +0.000 A 
BRANCH  21  24
ATOM     24  O   UNL     1       3.225  17.404  17.704  0.00  0.00    +0.000 OA
ATOM     25  H   UNL     1       2.529  17.997  18.023  0.00  0.00    +0.000 HD
ENDBRANCH  21  24
ENDBRANCH  17  18
ENDBRANCH   1  16
BRANCH   1  26
ATOM     26  C   UNL     1      -1.141   9.981  19.468  0.00  0.00    +0.000 C 
BRANCH  26  27
ATOM     27  C   UNL     1      -1.710  10.915  18.383  0.00  0.00    +0.000 C 
BRANCH  27  28
ATOM     28  C   UNL     1      -1.825  10.324  17.008  0.00  0.00    +0.000 C 
ATOM     29  C   UNL     1      -2.914  10.497  16.228  0.00  0.00    +0.000 C 
ATOM     30  C   UNL     1      -4.127  11.297  16.641  0.00  0.00    +0.000 C 
ATOM     31  C   UNL     1      -3.011   9.894  14.857  0.00  0.00    +0.000 C 
ENDBRANCH  27  28
ENDBRANCH  26  27
ENDBRANCH   1  26
TORSDOF 11
ENDMDL
MODEL 3
REMARK VINA RESULT:      -7.6      4.655      8.038
REMARK  Name = 
REMARK  15 active torsions:
REMARK  status: ('A' for Active; 'I' for Inactive)
REMARK    1  A    between atoms: C_1  and  C_2
REMARK    2  A    between atoms: C_2  and  C_3
REMARK    3  A    between atoms: C_3  and  O_4
REMARK    4  A    between atoms: O_4  and  C_5
REMARK    5  A    between atoms: C_8  and  C_9
REMARK    6  A    between atoms: C_10  and  C_11
REMARK    7  A    between atoms: C_11  and  C_12
REMARK    8  A    between atoms: C_11  and  C_13
REMARK    9  A    between atoms: C_11  and  C_22
REMARK   10  A    between atoms: C_14  and  C_15
REMARK   11  A    between atoms: C_18  and  O_19
REMARK   12  A    between atoms: C_22  and  C_23
REMARK   13  A    between atoms: C_23  and  C_24
REMARK   14  A    between atoms: C_25  and  C_26
REMARK   15  A    between atoms: C_25  and  C_27
REMARK                            x       y       z     vdW  Elec       q    Type
REMARK                         _______ _______ _______ _____ _____    ______ ____
ROOT
ATOM      1  C   UNL     1       5.119   4.763  18.415  0.00  0.00    +0.000 C 
ATOM      2  C   UNL     1       4.366   3.494  18.897  0.00  0.00    +0.000 C 
ENDROOT
BRANCH   1   4
ATOM      3  C   UNL     1       3.274   6.326  19.280  0.00  0.00    +0.000 C 
ATOM      4  C   UNL     1       4.202   5.983  18.371  0.00  0.00    +0.000 C 
BRANCH   3   8
ATOM      5  C   UNL     1       0.668   9.706  18.837  0.00  0.00    +0.000 A 
ATOM      6  C   UNL     1       1.370   9.176  17.747  0.00  0.00    +0.000 A 
ATOM      7  C   UNL     1       2.237   8.092  17.904  0.00  0.00    +0.000 A 
ATOM      8  C   UNL     1       2.420   7.514  19.160  0.00  0.00    +0.000 A 
ATOM      9  C   UNL     1       1.710   8.031  20.249  0.00  0.00    +0.000 A 
ATOM     10  C   UNL     1       0.832   9.112  20.096  0.00  0.00    +0.000 A 
ATOM     11 CL   UNL     1      -0.049   9.551  21.519  0.00  0.00    +0.000 Cl
BRANCH   5  12
ATOM     12  O   UNL     1      -0.157  10.738  18.478  0.00  0.00    +0.000 OA
BRANCH  12  13
ATOM     13  C   UNL     1      -1.548  10.452  18.375  0.00  0.00    +0.000 C 
BRANCH  13  15
ATOM     14  C   UNL     1      -3.674  11.246  17.314  0.00  0.00    +0.000 C 
ATOM     15  C   UNL     1      -2.162  11.391  17.343  0.00  0.00    +0.000 C 
ENDBRANCH  13  15
ENDBRANCH  12  13
ENDBRANCH   5  12
ENDBRANCH   3   8
ENDBRANCH   1   4
BRANCH   1  16
ATOM     16  C   UNL     1       5.687   4.573  17.012  0.00  0.00    +0.000 C 
ATOM     17  C   UNL     1       5.018   4.615  15.847  0.00  0.00    +0.000 C 
BRANCH  17  18
ATOM     18  C   UNL     1       5.665   4.416  14.542  0.00  0.00    +0.000 A 
ATOM     19  C   UNL     1       6.923   4.961  14.247  0.00  0.00    +0.000 A 
ATOM     20  C   UNL     1       7.540   4.712  13.018  0.00  0.00    +0.000 A 
ATOM     21  C   UNL     1       6.901   3.903  12.087  0.00  0.00    +0.000 A 
ATOM     22  C   UNL     1       5.658   3.349  12.361  0.00  0.00    +0.000 A 
ATOM     23  C   UNL     1       5.041   3.602  13.588  0.00  0.00    +0.000 A 
BRANCH  21  24
ATOM     24  O   UNL     1       7.475   3.619  10.884  0.00  0.00    +0.000 OA
ATOM     25  H   UNL     1       6.821   3.776  10.187  0.00  0.00    +0.000 HD
ENDBRANCH  21  24
ENDBRANCH  17  18
ENDBRANCH   1  16
BRANCH   1  26
ATOM     26  C   UNL     1       6.287   4.991  19.452  0.00  0.00    +0.000 C 
BRANCH  26  27
ATOM     27  C   UNL     1       7.661   5.314  18.836  0.00  0.00    +0.000 C 
BRANCH  27  28
ATOM     28  C   UNL     1       8.147   6.722  19.024  0.00  0.00    +0.000 C 
ATOM     29  C   UNL     1       7.968   7.685  18.094  0.00  0.00    +0.000 C 
ATOM     30  C   UNL     1       7.268   7.464  16.775  0.00  0.00    +0.000 C 
ATOM     31  C   UNL     1       8.466   9.087  18.301  0.00  0.00    +0.000 C 
ENDBRANCH  27  28
ENDBRANCH  26  27
ENDBRANCH   1  26
TORSDOF 11
ENDMDL
MODEL 4
REMARK VINA RESULT:      -7.6      0.996      1.046
REMARK  Name = 
REMARK  15 active torsions:
REMARK  status: ('A' for Active; 'I' for Inactive)
REMARK    1  A    between atoms: C_1  and  C_2
REMARK    2  A    between atoms: C_2  and  C_3
REMARK    3  A    between atoms: C_3  and  O_4
REMARK    4  A    between atoms: O_4  and  C_5
REMARK    5  A    between atoms: C_8  and  C_9
REMARK    6  A    between atoms: C_10  and  C_11
REMARK    7  A    between atoms: C_11  and  C_12
REMARK    8  A    between atoms: C_11  and  C_13
REMARK    9  A    between atoms: C_11  and  C_22
REMARK   10  A    between atoms: C_14  and  C_15
REMARK   11  A    between atoms: C_18  and  O_19
REMARK   12  A    between atoms: C_22  and  C_23
REMARK   13  A    between atoms: C_23  and  C_24
REMARK   14  A    between atoms: C_25  and  C_26
REMARK   15  A    between atoms: C_25  and  C_27
REMARK                            x       y       z     vdW  Elec       q    Type
REMARK                         _______ _______ _______ _____ _____    ______ ____
ROOT
ATOM      1  C   UNL     1       6.430   5.794  16.902  0.00  0.00    +0.000 C 
ATOM      2  C   UNL     1       7.662   4.861  16.768  0.00  0.00    +0.000 C 
ENDROOT
BRANCH   1   4
ATOM      3  C   UNL     1       8.012   7.587  17.837  0.00  0.00    +0.000 C 
ATOM      4  C   UNL     1       6.831   7.206  17.324  0.00  0.00    +0.000 C 
BRANCH   3   8
ATOM      5  C   UNL     1       9.072  11.599  18.933  0.00  0.00    +0.000 A 
ATOM      6  C   UNL     1       9.583  10.492  19.624  0.00  0.00    +0.000 A 
ATOM      7  C   UNL     1       9.213   9.191  19.278  0.00  0.00    +0.000 A 
ATOM      8  C   UNL     1       8.319   8.968  18.230  0.00  0.00    +0.000 A 
ATOM      9  C   UNL     1       7.817  10.069  17.528  0.00  0.00    +0.000 A 
ATOM     10  C   UNL     1       8.193  11.376  17.863  0.00  0.00    +0.000 A 
ATOM     11 CL   UNL     1       7.569  12.611  16.823  0.00  0.00    +0.000 Cl
BRANCH   5  12
ATOM     12  O   UNL     1       9.578  12.785  19.392  0.00  0.00    +0.000 OA
BRANCH  12  13
ATOM     13  C   UNL     1      10.663  13.353  18.664  0.00  0.00    +0.000 C 
BRANCH  13  15
ATOM     14  C   UNL     1      10.841  14.847  20.666  0.00  0.00    +0.000 C 
ATOM     15  C   UNL     1      11.612  14.023  19.650  0.00  0.00    +0.000 C 
ENDBRANCH  13  15
ENDBRANCH  12  13
ENDBRANCH   5  12
ENDBRANCH   3   8
ENDBRANCH   1   4
BRANCH   1  16
ATOM     16  C   UNL     1       5.447   5.272  17.946  0.00  0.00    +0.000 C 
ATOM     17  C   UNL     1       4.273   4.655  17.726  0.00  0.00    +0.000 C 
BRANCH  17  18
ATOM     18  C   UNL     1       3.397   4.190  18.810  0.00  0.00    +0.000 A 
ATOM     19  C   UNL     1       3.135   4.976  19.943  0.00  0.00    +0.000 A 
ATOM     20  C   UNL     1       2.256   4.533  20.934  0.00  0.00    +0.000 A 
ATOM     21  C   UNL     1       1.625   3.304  20.784  0.00  0.00    +0.000 A 
ATOM     22  C   UNL     1       1.865   2.513  19.669  0.00  0.00    +0.000 A 
ATOM     23  C   UNL     1       2.747   2.956  18.681  0.00  0.00    +0.000 A 
BRANCH  21  24
ATOM     24  O   UNL     1       0.745   2.842  21.717  0.00  0.00    +0.000 OA
ATOM     25  H   UNL     1      -0.078   2.596  21.268  0.00  0.00    +0.000 HD
ENDBRANCH  21  24
ENDBRANCH  17  18
ENDBRANCH   1  16
BRANCH   1  26
ATOM     26  C   UNL     1       5.752   5.819  15.477  0.00  0.00    +0.000 C 
BRANCH  26  27
ATOM     27  C   UNL     1       6.239   4.735  14.497  0.00  0.00    +0.000 C 
BRANCH  27  28
ATOM     28  C   UNL     1       5.200   4.186  13.562  0.00  0.00    +0.000 C 
ATOM     29  C   UNL     1       5.514   3.604  12.385  0.00  0.00    +0.000 C 
ATOM     30  C   UNL     1       6.926   3.437  11.876  0.00  0.00    +0.000 C 
ATOM     31  C   UNL     1       4.459   3.064  11.463  0.00  0.00    +0.000 C 
ENDBRANCH  27  28
ENDBRANCH  26  27
ENDBRANCH   1  26
TORSDOF 11
ENDMDL
MODEL 5
REMARK VINA RESULT:      -7.5      3.318     10.333
REMARK  Name = 
REMARK  15 active torsions:
REMARK  status: ('A' for Active; 'I' for Inactive)
REMARK    1  A    between atoms: C_1  and  C_2
REMARK    2  A    between atoms: C_2  and  C_3
REMARK    3  A    between atoms: C_3  and  O_4
REMARK    4  A    between atoms: O_4  and  C_5
REMARK    5  A    between atoms: C_8  and  C_9
REMARK    6  A    between atoms: C_10  and  C_11
REMARK    7  A    between atoms: C_11  and  C_12
REMARK    8  A    between atoms: C_11  and  C_13
REMARK    9  A    between atoms: C_11  and  C_22
REMARK   10  A    between atoms: C_14  and  C_15
REMARK   11  A    between atoms: C_18  and  O_19
REMARK   12  A    between atoms: C_22  and  C_23
REMARK   13  A    between atoms: C_23  and  C_24
REMARK   14  A    between atoms: C_25  and  C_26
REMARK   15  A    between atoms: C_25  and  C_27
REMARK                            x       y       z     vdW  Elec       q    Type
REMARK                         _______ _______ _______ _____ _____    ______ ____
ROOT
ATOM      1  C   UNL     1       9.772  11.515  18.895  0.00  0.00    +0.000 C 
ATOM      2  C   UNL     1      10.731  11.757  17.699  0.00  0.00    +0.000 C 
ENDROOT
BRANCH   1   4
ATOM      3  C   UNL     1       8.546   9.536  17.812  0.00  0.00    +0.000 C 
ATOM      4  C   UNL     1       9.160  10.117  18.856  0.00  0.00    +0.000 C 
BRANCH   3   8
ATOM      5  C   UNL     1       6.784   5.633  18.086  0.00  0.00    +0.000 A 
ATOM      6  C   UNL     1       7.741   6.070  19.011  0.00  0.00    +0.000 A 
ATOM      7  C   UNL     1       8.330   7.332  18.900  0.00  0.00    +0.000 A 
ATOM      8  C   UNL     1       7.972   8.186  17.856  0.00  0.00    +0.000 A 
ATOM      9  C   UNL     1       7.006   7.759  16.938  0.00  0.00    +0.000 A 
ATOM     10  C   UNL     1       6.405   6.498  17.051  0.00  0.00    +0.000 A 
ATOM     11 CL   UNL     1       5.152   6.175  15.901  0.00  0.00    +0.000 Cl
BRANCH   5  12
ATOM     12  O   UNL     1       6.298   4.388  18.382  0.00  0.00    +0.000 OA
BRANCH  12  13
ATOM     13  C   UNL     1       5.339   4.298  19.431  0.00  0.00    +0.000 C 
BRANCH  13  15
ATOM     14  C   UNL     1       3.504   3.648  17.855  0.00  0.00    +0.000 C 
ATOM     15  C   UNL     1       3.972   4.674  18.873  0.00  0.00    +0.000 C 
ENDBRANCH  13  15
ENDBRANCH  12  13
ENDBRANCH   5  12
ENDBRANCH   3   8
ENDBRANCH   1   4
BRANCH   1  16
ATOM     16  C   UNL     1       8.619  12.514  18.893  0.00  0.00    +0.000 C 
ATOM     17  C   UNL     1       8.583  13.719  18.299  0.00  0.00    +0.000 C 
BRANCH  17  18
ATOM     18  C   UNL     1       7.415  14.610  18.360  0.00  0.00    +0.000 A 
ATOM     19  C   UNL     1       7.508  15.923  18.844  0.00  0.00    +0.000 A 
ATOM     20  C   UNL     1       6.394  16.767  18.842  0.00  0.00    +0.000 A 
ATOM     21  C   UNL     1       5.186  16.297  18.342  0.00  0.00    +0.000 A 
ATOM     22  C   UNL     1       5.073  15.003  17.854  0.00  0.00    +0.000 A 
ATOM     23  C   UNL     1       6.187  14.160  17.860  0.00  0.00    +0.000 A 
BRANCH  21  24
ATOM     24  O   UNL     1       4.079  17.093  18.304  0.00  0.00    +0.000 OA
ATOM     25  H   UNL     1       4.168  17.774  18.987  0.00  0.00    +0.000 HD
ENDBRANCH  21  24
ENDBRANCH  17  18
ENDBRANCH   1  16
BRANCH   1  26
ATOM     26  C   UNL     1      10.649  11.695  20.194  0.00  0.00    +0.000 C 
BRANCH  26  27
ATOM     27  C   UNL     1       9.919  12.308  21.403  0.00  0.00    +0.000 C 
BRANCH  27  28
ATOM     28  C   UNL     1      10.129  13.779  21.616  0.00  0.00    +0.000 C 
ATOM     29  C   UNL     1       9.123  14.621  21.938  0.00  0.00    +0.000 C 
ATOM     30  C   UNL     1       7.688  14.189  22.120  0.00  0.00    +0.000 C 
ATOM     31  C   UNL     1       9.355  16.091  22.142  0.00  0.00    +0.000 C 
ENDBRANCH  27  28
ENDBRANCH  26  27
ENDBRANCH   1  26
TORSDOF 11
ENDMDL
MODEL 6
REMARK VINA RESULT:      -7.5      6.324     10.393
REMARK  Name = 
REMARK  15 active torsions:
REMARK  status: ('A' for Active; 'I' for Inactive)
REMARK    1  A    between atoms: C_1  and  C_2
REMARK    2  A    between atoms: C_2  and  C_3
REMARK    3  A    between atoms: C_3  and  O_4
REMARK    4  A    between atoms: O_4  and  C_5
REMARK    5  A    between atoms: C_8  and  C_9
REMARK    6  A    between atoms: C_10  and  C_11
REMARK    7  A    between atoms: C_11  and  C_12
REMARK    8  A    between atoms: C_11  and  C_13
REMARK    9  A    between atoms: C_11  and  C_22
REMARK   10  A    between atoms: C_14  and  C_15
REMARK   11  A    between atoms: C_18  and  O_19
REMARK   12  A    between atoms: C_22  and  C_23
REMARK   13  A    between atoms: C_23  and  C_24
REMARK   14  A    between atoms: C_25  and  C_26
REMARK   15  A    between atoms: C_25  and  C_27
REMARK                            x       y       z     vdW  Elec       q    Type
REMARK                         _______ _______ _______ _____ _____    ______ ____
ROOT
ATOM      1  C   UNL     1      -0.004  10.688  20.039  0.00  0.00    +0.000 C 
ATOM      2  C   UNL     1      -0.250  10.908  21.556  0.00  0.00    +0.000 C 
ENDROOT
BRANCH   1   4
ATOM      3  C   UNL     1       1.481   9.154  18.614  0.00  0.00    +0.000 C 
ATOM      4  C   UNL     1       0.909   9.492  19.781  0.00  0.00    +0.000 C 
BRANCH   3   8
ATOM      5  C   UNL     1       4.131   5.809  18.162  0.00  0.00    +0.000 A 
ATOM      6  C   UNL     1       4.204   6.920  17.312  0.00  0.00    +0.000 A 
ATOM      7  C   UNL     1       3.321   7.993  17.448  0.00  0.00    +0.000 A 
ATOM      8  C   UNL     1       2.342   7.977  18.442  0.00  0.00    +0.000 A 
ATOM      9  C   UNL     1       2.275   6.876  19.303  0.00  0.00    +0.000 A 
ATOM     10  C   UNL     1       3.165   5.801  19.177  0.00  0.00    +0.000 A 
ATOM     11 CL   UNL     1       3.016   4.577  20.392  0.00  0.00    +0.000 Cl
BRANCH   5  12
ATOM     12  O   UNL     1       5.101   4.880  17.896  0.00  0.00    +0.000 OA
BRANCH  12  13
ATOM     13  C   UNL     1       4.887   4.019  16.782  0.00  0.00    +0.000 C 
BRANCH  13  15
ATOM     14  C   UNL     1       5.720   4.318  14.438  0.00  0.00    +0.000 C 
ATOM     15  C   UNL     1       6.117   4.072  15.884  0.00  0.00    +0.000 C 
ENDBRANCH  13  15
ENDBRANCH  12  13
ENDBRANCH   5  12
ENDBRANCH   3   8
ENDBRANCH   1   4
BRANCH   1  16
ATOM     16  C   UNL     1       0.655  11.907  19.400  0.00  0.00    +0.000 C 
ATOM     17  C   UNL     1       1.009  13.054  20.004  0.00  0.00    +0.000 C 
BRANCH  17  18
ATOM     18  C   UNL     1       1.640  14.174  19.292  0.00  0.00    +0.000 A 
ATOM     19  C   UNL     1       2.782  13.998  18.496  0.00  0.00    +0.000 A 
ATOM     20  C   UNL     1       3.331  15.069  17.786  0.00  0.00    +0.000 A 
ATOM     21  C   UNL     1       2.727  16.318  17.863  0.00  0.00    +0.000 A 
ATOM     22  C   UNL     1       1.594  16.513  18.641  0.00  0.00    +0.000 A 
ATOM     23  C   UNL     1       1.048  15.442  19.352  0.00  0.00    +0.000 A 
BRANCH  21  24
ATOM     24  O   UNL     1       3.219  17.385  17.172  0.00  0.00    +0.000 OA
ATOM     25  H   UNL     1       3.678  17.969  17.795  0.00  0.00    +0.000 HD
ENDBRANCH  21  24
ENDBRANCH  17  18
ENDBRANCH   1  16
BRANCH   1  26
ATOM     26  C   UNL     1      -1.427  10.440  19.404  0.00  0.00    +0.000 C 
BRANCH  26  27
ATOM     27  C   UNL     1      -1.785  11.349  18.212  0.00  0.00    +0.000 C 
BRANCH  27  28
ATOM     28  C   UNL     1      -1.885  10.667  16.879  0.00  0.00    +0.000 C 
ATOM     29  C   UNL     1      -3.012  10.683  16.135  0.00  0.00    +0.000 C 
ATOM     30  C   UNL     1      -4.286  11.380  16.549  0.00  0.00    +0.000 C 
ATOM     31  C   UNL     1      -3.093   9.990  14.804  0.00  0.00    +0.000 C 
ENDBRANCH  27  28
ENDBRANCH  26  27
ENDBRANCH   1  26
TORSDOF 11
ENDMDL
MODEL 7
REMARK VINA RESULT:      -7.4      5.903     10.101
REMARK  Name = 
REMARK  15 active torsions:
REMARK  status: ('A' for Active; 'I' for Inactive)
REMARK    1  A    between atoms: C_1  and  C_2
REMARK    2  A    between atoms: C_2  and  C_3
REMARK    3  A    between atoms: C_3  and  O_4
REMARK    4  A    between atoms: O_4  and  C_5
REMARK    5  A    between atoms: C_8  and  C_9
REMARK    6  A    between atoms: C_10  and  C_11
REMARK    7  A    between atoms: C_11  and  C_12
REMARK    8  A    between atoms: C_11  and  C_13
REMARK    9  A    between atoms: C_11  and  C_22
REMARK   10  A    between atoms: C_14  and  C_15
REMARK   11  A    between atoms: C_18  and  O_19
REMARK   12  A    between atoms: C_22  and  C_23
REMARK   13  A    between atoms: C_23  and  C_24
REMARK   14  A    between atoms: C_25  and  C_26
REMARK   15  A    between atoms: C_25  and  C_27
REMARK                            x       y       z     vdW  Elec       q    Type
REMARK                         _______ _______ _______ _____ _____    ______ ____
ROOT
ATOM      1  C   UNL     1       0.620  10.108  20.136  0.00  0.00    +0.000 C 
ATOM      2  C   UNL     1       0.829   9.767  21.635  0.00  0.00    +0.000 C 
ENDROOT
BRANCH   1   4
ATOM      3  C   UNL     1       1.904   7.955  19.576  0.00  0.00    +0.000 C 
ATOM      4  C   UNL     1       1.366   9.136  19.225  0.00  0.00    +0.000 C 
BRANCH   3   8
ATOM      5  C   UNL     1       4.134   5.409  16.938  0.00  0.00    +0.000 A 
ATOM      6  C   UNL     1       4.422   6.775  17.053  0.00  0.00    +0.000 A 
ATOM      7  C   UNL     1       3.675   7.603  17.893  0.00  0.00    +0.000 A 
ATOM      8  C   UNL     1       2.619   7.079  18.640  0.00  0.00    +0.000 A 
ATOM      9  C   UNL     1       2.337   5.712  18.540  0.00  0.00    +0.000 A 
ATOM     10  C   UNL     1       3.090   4.875  17.706  0.00  0.00    +0.000 A 
ATOM     11 CL   UNL     1       2.681   3.195  17.787  0.00  0.00    +0.000 Cl
BRANCH   5  12
ATOM     12  O   UNL     1       4.996   4.759  16.097  0.00  0.00    +0.000 OA
BRANCH  12  13
ATOM     13  C   UNL     1       6.385   5.040  16.246  0.00  0.00    +0.000 C 
BRANCH  13  15
ATOM     14  C   UNL     1       6.329   3.933  14.000  0.00  0.00    +0.000 C 
ATOM     15  C   UNL     1       7.051   4.940  14.879  0.00  0.00    +0.000 C 
ENDBRANCH  13  15
ENDBRANCH  12  13
ENDBRANCH   5  12
ENDBRANCH   3   8
ENDBRANCH   1   4
BRANCH   1  16
ATOM     16  C   UNL     1       1.123  11.510  19.809  0.00  0.00    +0.000 C 
ATOM     17  C   UNL     1       1.874  11.885  18.759  0.00  0.00    +0.000 C 
BRANCH  17  18
ATOM     18  C   UNL     1       2.308  13.271  18.538  0.00  0.00    +0.000 A 
ATOM     19  C   UNL     1       3.585  13.580  18.046  0.00  0.00    +0.000 A 
ATOM     20  C   UNL     1       3.954  14.904  17.793  0.00  0.00    +0.000 A 
ATOM     21  C   UNL     1       3.036  15.921  18.021  0.00  0.00    +0.000 A 
ATOM     22  C   UNL     1       1.765  15.638  18.503  0.00  0.00    +0.000 A 
ATOM     23  C   UNL     1       1.400  14.314  18.758  0.00  0.00    +0.000 A 
BRANCH  21  24
ATOM     24  O   UNL     1       3.348  17.225  17.770  0.00  0.00    +0.000 OA
ATOM     25  H   UNL     1       4.008  17.251  17.062  0.00  0.00    +0.000 HD
ENDBRANCH  21  24
ENDBRANCH  17  18
ENDBRANCH   1  16
BRANCH   1  26
ATOM     26  C   UNL     1      -0.935  10.011  19.885  0.00  0.00    +0.000 C 
BRANCH  26  27
ATOM     27  C   UNL     1      -1.478  10.914  18.761  0.00  0.00    +0.000 C 
BRANCH  27  28
ATOM     28  C   UNL     1      -1.690  10.247  17.433  0.00  0.00    +0.000 C 
ATOM     29  C   UNL     1      -2.779  10.476  16.668  0.00  0.00    +0.000 C 
ATOM     30  C   UNL     1      -3.896  11.417  17.051  0.00  0.00    +0.000 C 
ATOM     31  C   UNL     1      -2.974   9.794  15.344  0.00  0.00    +0.000 C 
ENDBRANCH  27  28
ENDBRANCH  26  27
ENDBRANCH   1  26
TORSDOF 11
ENDMDL
MODEL 8
REMARK VINA RESULT:      -7.4      6.221     10.257
REMARK  Name = 
REMARK  15 active torsions:
REMARK  status: ('A' for Active; 'I' for Inactive)
REMARK    1  A    between atoms: C_1  and  C_2
REMARK    2  A    between atoms: C_2  and  C_3
REMARK    3  A    between atoms: C_3  and  O_4
REMARK    4  A    between atoms: O_4  and  C_5
REMARK    5  A    between atoms: C_8  and  C_9
REMARK    6  A    between atoms: C_10  and  C_11
REMARK    7  A    between atoms: C_11  and  C_12
REMARK    8  A    between atoms: C_11  and  C_13
REMARK    9  A    between atoms: C_11  and  C_22
REMARK   10  A    between atoms: C_14  and  C_15
REMARK   11  A    between atoms: C_18  and  O_19
REMARK   12  A    between atoms: C_22  and  C_23
REMARK   13  A    between atoms: C_23  and  C_24
REMARK   14  A    between atoms: C_25  and  C_26
REMARK   15  A    between atoms: C_25  and  C_27
REMARK                            x       y       z     vdW  Elec       q    Type
REMARK                         _______ _______ _______ _____ _____    ______ ____
ROOT
ATOM      1  C   UNL     1       0.313  10.328  19.713  0.00  0.00    +0.000 C 
ATOM      2  C   UNL     1       0.090  10.454  21.243  0.00  0.00    +0.000 C 
ENDROOT
BRANCH   1   4
ATOM      3  C   UNL     1       1.449   8.588  18.205  0.00  0.00    +0.000 C 
ATOM      4  C   UNL     1       1.322   9.232  19.376  0.00  0.00    +0.000 C 
BRANCH   3   8
ATOM      5  C   UNL     1       4.449   5.576  17.616  0.00  0.00    +0.000 A 
ATOM      6  C   UNL     1       4.681   6.916  17.279  0.00  0.00    +0.000 A 
ATOM      7  C   UNL     1       3.691   7.886  17.449  0.00  0.00    +0.000 A 
ATOM      8  C   UNL     1       2.442   7.534  17.961  0.00  0.00    +0.000 A 
ATOM      9  C   UNL     1       2.210   6.200  18.313  0.00  0.00    +0.000 A 
ATOM     10  C   UNL     1       3.203   5.224  18.154  0.00  0.00    +0.000 A 
ATOM     11 CL   UNL     1       2.789   3.650  18.743  0.00  0.00    +0.000 Cl
BRANCH   5  12
ATOM     12  O   UNL     1       5.548   4.785  17.414  0.00  0.00    +0.000 OA
BRANCH  12  13
ATOM     13  C   UNL     1       5.489   3.854  16.338  0.00  0.00    +0.000 C 
BRANCH  13  15
ATOM     14  C   UNL     1       6.060   4.249  13.931  0.00  0.00    +0.000 C 
ATOM     15  C   UNL     1       6.601   4.183  15.349  0.00  0.00    +0.000 C 
ENDBRANCH  13  15
ENDBRANCH  12  13
ENDBRANCH   5  12
ENDBRANCH   3   8
ENDBRANCH   1   4
BRANCH   1  16
ATOM     16  C   UNL     1       0.842  11.629  19.118  0.00  0.00    +0.000 C 
ATOM     17  C   UNL     1       1.229  12.732  19.782  0.00  0.00    +0.000 C 
BRANCH  17  18
ATOM     18  C   UNL     1       1.725  13.941  19.108  0.00  0.00    +0.000 A 
ATOM     19  C   UNL     1       1.045  15.165  19.184  0.00  0.00    +0.000 A 
ATOM     20  C   UNL     1       1.566  16.312  18.579  0.00  0.00    +0.000 A 
ATOM     21  C   UNL     1       2.780  16.235  17.908  0.00  0.00    +0.000 A 
ATOM     22  C   UNL     1       3.472  15.034  17.825  0.00  0.00    +0.000 A 
ATOM     23  C   UNL     1       2.948  13.889  18.427  0.00  0.00    +0.000 A 
BRANCH  21  24
ATOM     24  O   UNL     1       3.334  17.334  17.320  0.00  0.00    +0.000 OA
ATOM     25  H   UNL     1       2.866  18.120  17.638  0.00  0.00    +0.000 HD
ENDBRANCH  21  24
ENDBRANCH  17  18
ENDBRANCH   1  16
BRANCH   1  26
ATOM     26  C   UNL     1      -1.099   9.981  19.099  0.00  0.00    +0.000 C 
BRANCH  26  27
ATOM     27  C   UNL     1      -1.632  10.987  18.061  0.00  0.00    +0.000 C 
BRANCH  27  28
ATOM     28  C   UNL     1      -1.931  10.425  16.702  0.00  0.00    +0.000 C 
ATOM     29  C   UNL     1      -3.126  10.586  16.093  0.00  0.00    +0.000 C 
ATOM     30  C   UNL     1      -4.285  11.341  16.699  0.00  0.00    +0.000 C 
ATOM     31  C   UNL     1      -3.406  10.012  14.734  0.00  0.00    +0.000 C 
ENDBRANCH  27  28
ENDBRANCH  26  27
ENDBRANCH   1  26
TORSDOF 11
ENDMDL
MODEL 9
REMARK VINA RESULT:      -7.4      6.793     10.614
REMARK  Name = 
REMARK  15 active torsions:
REMARK  status: ('A' for Active; 'I' for Inactive)
REMARK    1  A    between atoms: C_1  and  C_2
REMARK    2  A    between atoms: C_2  and  C_3
REMARK    3  A    between atoms: C_3  and  O_4
REMARK    4  A    between atoms: O_4  and  C_5
REMARK    5  A    between atoms: C_8  and  C_9
REMARK    6  A    between atoms: C_10  and  C_11
REMARK    7  A    between atoms: C_11  and  C_12
REMARK    8  A    between atoms: C_11  and  C_13
REMARK    9  A    between atoms: C_11  and  C_22
REMARK   10  A    between atoms: C_14  and  C_15
REMARK   11  A    between atoms: C_18  and  O_19
REMARK   12  A    between atoms: C_22  and  C_23
REMARK   13  A    between atoms: C_23  and  C_24
REMARK   14  A    between atoms: C_25  and  C_26
REMARK   15  A    between atoms: C_25  and  C_27
REMARK                            x       y       z     vdW  Elec       q    Type
REMARK                         _______ _______ _______ _____ _____    ______ ____
ROOT
ATOM      1  C   UNL     1       0.484  10.545  19.946  0.00  0.00    +0.000 C 
ATOM      2  C   UNL     1       1.230  11.904  19.997  0.00  0.00    +0.000 C 
ENDROOT
BRANCH   1   4
ATOM      3  C   UNL     1       1.660   8.599  18.753  0.00  0.00    +0.000 C 
ATOM      4  C   UNL     1       1.452   9.370  19.834  0.00  0.00    +0.000 C 
BRANCH   3   8
ATOM      5  C   UNL     1       4.293   5.212  18.645  0.00  0.00    +0.000 A 
ATOM      6  C   UNL     1       3.360   5.381  19.677  0.00  0.00    +0.000 A 
ATOM      7  C   UNL     1       2.525   6.500  19.719  0.00  0.00    +0.000 A 
ATOM      8  C   UNL     1       2.606   7.477  18.726  0.00  0.00    +0.000 A 
ATOM      9  C   UNL     1       3.526   7.305  17.687  0.00  0.00    +0.000 A 
ATOM     10  C   UNL     1       4.359   6.180  17.633  0.00  0.00    +0.000 A 
ATOM     11 CL   UNL     1       5.355   6.068  16.222  0.00  0.00    +0.000 Cl
BRANCH   5  12
ATOM     12  O   UNL     1       4.991   4.040  18.756  0.00  0.00    +0.000 OA
BRANCH  12  13
ATOM     13  C   UNL     1       4.618   2.976  17.885  0.00  0.00    +0.000 C 
BRANCH  13  15
ATOM     14  C   UNL     1       2.234   2.211  17.954  0.00  0.00    +0.000 C 
ATOM     15  C   UNL     1       3.602   2.095  18.603  0.00  0.00    +0.000 C 
ENDBRANCH  13  15
ENDBRANCH  12  13
ENDBRANCH   5  12
ENDBRANCH   3   8
ENDBRANCH   1   4
BRANCH   1  16
ATOM     16  C   UNL     1      -0.458  10.472  18.748  0.00  0.00    +0.000 C 
ATOM     17  C   UNL     1      -1.775  10.738  18.727  0.00  0.00    +0.000 C 
BRANCH  17  18
ATOM     18  C   UNL     1      -2.595  10.634  17.511  0.00  0.00    +0.000 A 
ATOM     19  C   UNL     1      -3.767  11.386  17.340  0.00  0.00    +0.000 A 
ATOM     20  C   UNL     1      -4.499  11.309  16.152  0.00  0.00    +0.000 A 
ATOM     21  C   UNL     1      -4.048  10.486  15.127  0.00  0.00    +0.000 A 
ATOM     22  C   UNL     1      -2.889   9.738  15.274  0.00  0.00    +0.000 A 
ATOM     23  C   UNL     1      -2.160   9.814  16.463  0.00  0.00    +0.000 A 
BRANCH  21  24
ATOM     24  O   UNL     1      -4.722  10.396  13.945  0.00  0.00    +0.000 OA
ATOM     25  H   UNL     1      -5.502   9.837  14.079  0.00  0.00    +0.000 HD
ENDBRANCH  21  24
ENDBRANCH  17  18
ENDBRANCH   1  16
BRANCH   1  26
ATOM     26  C   UNL     1      -0.336  10.453  21.292  0.00  0.00    +0.000 C 
BRANCH  26  27
ATOM     27  C   UNL     1      -0.414  11.758  22.106  0.00  0.00    +0.000 C 
BRANCH  27  28
ATOM     28  C   UNL     1      -1.516  11.829  23.123  0.00  0.00    +0.000 C 
ATOM     29  C   UNL     1      -2.739  12.325  22.839  0.00  0.00    +0.000 C 
ATOM     30  C   UNL     1      -3.140  12.858  21.484  0.00  0.00    +0.000 C 
ATOM     31  C   UNL     1      -3.827  12.390  23.873  0.00  0.00    +0.000 C 
ENDBRANCH  27  28
ENDBRANCH  26  27
ENDBRANCH   1  26
TORSDOF 11
ENDMDL
