MODEL 1
REMARK VINA RESULT:      -8.1      0.000      0.000
REMARK  Name = 
REMARK  10 active torsions:
REMARK  status: ('A' for Active; 'I' for Inactive)
REMARK    1  A    between atoms: C_1  and  C_2
REMARK    2  A    between atoms: C_4  and  C_5
REMARK    3  A    between atoms: C_8  and  C_9
REMARK    4  A    between atoms: C_9  and  C_10
REMARK    5  A    between atoms: C_12  and  C_13
REMARK    6  A    between atoms: C_15  and  C_16
REMARK    7  A    between atoms: C_16  and  O_17
REMARK    8  A    between atoms: C_18  and  O_19
REMARK    9  A    between atoms: C_20  and  O_21
REMARK   10  A    between atoms: C_22  and  O_23
REMARK                            x       y       z     vdW  Elec       q    Type
REMARK                         _______ _______ _______ _____ _____    ______ ____
ROOT
ATOM      1  C   UNL     1       3.943   4.360  19.652  0.00  0.00    +0.000 A 
ATOM      2  C   UNL     1       3.563   5.687  19.899  0.00  0.00    +0.000 A 
ATOM      3  C   UNL     1       2.231   6.128  19.760  0.00  0.00    +0.000 A 
ATOM      4  C   UNL     1       1.245   5.188  19.464  0.00  0.00    +0.000 A 
ATOM      5  C   UNL     1       1.602   3.853  19.244  0.00  0.00    +0.000 A 
ATOM      6  C   UNL     1       2.940   3.446  19.309  0.00  0.00    +0.000 A 
ATOM      7 CL   UNL     1       3.298   1.803  18.918  0.00  0.00    +0.000 Cl
ENDROOT
BRANCH   3   8
ATOM      8  C   UNL     1       2.018   7.625  19.778  0.00  0.00    +0.000 C 
ATOM      9  O   UNL     1       0.981   7.887  20.733  0.00  0.00    +0.000 OA
ATOM     10  C   UNL     1       1.032   9.237  21.215  0.00  0.00    +0.000 C 
ATOM     11  C   UNL     1       0.772  10.222  20.063  0.00  0.00    +0.000 C 
ATOM     12  C   UNL     1       1.720   9.914  18.881  0.00  0.00    +0.000 C 
ATOM     13  C   UNL     1       1.734   8.416  18.495  0.00  0.00    +0.000 C 
BRANCH  11  14
ATOM     14  O   UNL     1       0.958  11.571  20.495  0.00  0.00    +0.000 OA
ATOM     15  H   UNL     1       1.807  11.901  20.152  0.00  0.00    +0.000 HD
ENDBRANCH  11  14
BRANCH  12  16
ATOM     16  O   UNL     1       1.428  10.702  17.718  0.00  0.00    +0.000 OA
ATOM     17  H   UNL     1       0.887  11.466  17.991  0.00  0.00    +0.000 HD
ENDBRANCH  12  16
BRANCH  13  18
ATOM     18  O   UNL     1       2.765   8.210  17.517  0.00  0.00    +0.000 OA
ATOM     19  H   UNL     1       2.756   7.262  17.280  0.00  0.00    +0.000 HD
ENDBRANCH  13  18
BRANCH  10  20
ATOM     20  C   UNL     1       0.002   9.335  22.343  0.00  0.00    +0.000 C 
BRANCH  20  21
ATOM     21  O   UNL     1       0.643   9.630  23.582  0.00  0.00    +0.000 OA
ATOM     22  H   UNL     1       1.602   9.577  23.403  0.00  0.00    +0.000 HD
ENDBRANCH  20  21
ENDBRANCH  10  20
ENDBRANCH   3   8
BRANCH   1  23
ATOM     23  C   UNL     1       5.422   4.033  19.649  0.00  0.00    +0.000 C 
BRANCH  23  27
ATOM     24  C   UNL     1       6.612   4.403  15.977  0.00  0.00    +0.000 A 
ATOM     25  N   UNL     1       7.615   4.723  16.776  0.00  0.00    +0.000 NA
ATOM     26  N   UNL     1       7.291   4.647  18.111  0.00  0.00    +0.000 NA
ATOM     27  C   UNL     1       6.047   4.265  18.303  0.00  0.00    +0.000 A 
ATOM     28  S   UNL     1       5.171   4.020  16.844  0.00  0.00    +0.000 S 
BRANCH  24  32
ATOM     29  C   UNL     1       5.358   2.562  11.438  0.00  0.00    +0.000 C 
ATOM     30  C   UNL     1       6.134   3.486  12.326  0.00  0.00    +0.000 A 
ATOM     31  C   UNL     1       5.958   3.481  13.708  0.00  0.00    +0.000 A 
ATOM     32  C   UNL     1       6.713   4.349  14.509  0.00  0.00    +0.000 A 
ATOM     33  C   UNL     1       7.612   5.209  13.866  0.00  0.00    +0.000 A 
ATOM     34  C   UNL     1       7.727   5.157  12.483  0.00  0.00    +0.000 A 
ATOM     35  N   UNL     1       7.019   4.309  11.712  0.00  0.00    +0.000 NA
ENDBRANCH  24  32
ENDBRANCH  23  27
ENDBRANCH   1  23
TORSDOF 9
ENDMDL
MODEL 2
REMARK VINA RESULT:      -7.9      6.229     10.128
REMARK  Name = 
REMARK  10 active torsions:
REMARK  status: ('A' for Active; 'I' for Inactive)
REMARK    1  A    between atoms: C_1  and  C_2
REMARK    2  A    between atoms: C_4  and  C_5
REMARK    3  A    between atoms: C_8  and  C_9
REMARK    4  A    between atoms: C_9  and  C_10
REMARK    5  A    between atoms: C_12  and  C_13
REMARK    6  A    between atoms: C_15  and  C_16
REMARK    7  A    between atoms: C_16  and  O_17
REMARK    8  A    between atoms: C_18  and  O_19
REMARK    9  A    between atoms: C_20  and  O_21
REMARK   10  A    between atoms: C_22  and  O_23
REMARK                            x       y       z     vdW  Elec       q    Type
REMARK                         _______ _______ _______ _____ _____    ______ ____
ROOT
ATOM      1  C   UNL     1       0.925   9.470  19.326  0.00  0.00    +0.000 A 
ATOM      2  C   UNL     1       1.484   8.282  18.833  0.00  0.00    +0.000 A 
ATOM      3  C   UNL     1       1.986   7.276  19.683  0.00  0.00    +0.000 A 
ATOM      4  C   UNL     1       1.829   7.427  21.059  0.00  0.00    +0.000 A 
ATOM      5  C   UNL     1       1.246   8.593  21.569  0.00  0.00    +0.000 A 
ATOM      6  C   UNL     1       0.823   9.618  20.713  0.00  0.00    +0.000 A 
ATOM      7 CL   UNL     1       0.215  11.064  21.434  0.00  0.00    +0.000 Cl
ENDROOT
BRANCH   3   8
ATOM      8  C   UNL     1       2.809   6.193  19.022  0.00  0.00    +0.000 C 
ATOM      9  O   UNL     1       3.656   6.841  18.062  0.00  0.00    +0.000 OA
ATOM     10  C   UNL     1       4.805   6.043  17.745  0.00  0.00    +0.000 C 
ATOM     11  C   UNL     1       4.370   4.729  17.073  0.00  0.00    +0.000 C 
ATOM     12  C   UNL     1       3.302   4.022  17.937  0.00  0.00    +0.000 C 
ATOM     13  C   UNL     1       2.156   4.966  18.372  0.00  0.00    +0.000 C 
BRANCH  11  14
ATOM     14  O   UNL     1       5.489   3.862  16.878  0.00  0.00    +0.000 OA
ATOM     15  H   UNL     1       5.396   3.410  16.022  0.00  0.00    +0.000 HD
ENDBRANCH  11  14
BRANCH  12  16
ATOM     16  O   UNL     1       2.747   2.866  17.295  0.00  0.00    +0.000 OA
ATOM     17  H   UNL     1       3.037   2.073  17.781  0.00  0.00    +0.000 HD
ENDBRANCH  12  16
BRANCH  13  18
ATOM     18  O   UNL     1       1.321   4.266  19.306  0.00  0.00    +0.000 OA
ATOM     19  H   UNL     1       1.411   3.311  19.119  0.00  0.00    +0.000 HD
ENDBRANCH  13  18
BRANCH  10  20
ATOM     20  C   UNL     1       5.705   6.910  16.862  0.00  0.00    +0.000 C 
BRANCH  20  21
ATOM     21  O   UNL     1       5.514   6.591  15.486  0.00  0.00    +0.000 OA
ATOM     22  H   UNL     1       4.581   6.311  15.407  0.00  0.00    +0.000 HD
ENDBRANCH  20  21
ENDBRANCH  10  20
ENDBRANCH   3   8
BRANCH   1  23
ATOM     23  C   UNL     1       0.587  10.562  18.332  0.00  0.00    +0.000 C 
BRANCH  23  27
ATOM     24  C   UNL     1      -3.230  10.900  17.738  0.00  0.00    +0.000 A 
ATOM     25  N   UNL     1      -2.792   9.858  17.055  0.00  0.00    +0.000 NA
ATOM     26  N   UNL     1      -1.435   9.659  17.178  0.00  0.00    +0.000 NA
ATOM     27  C   UNL     1      -0.868  10.553  17.958  0.00  0.00    +0.000 A 
ATOM     28  S   UNL     1      -1.963  11.735  18.557  0.00  0.00    +0.000 S 
BRANCH  24  32
ATOM     29  C   UNL     1      -7.139  13.913  16.640  0.00  0.00    +0.000 C 
ATOM     30  C   UNL     1      -6.533  12.720  17.313  0.00  0.00    +0.000 A 
ATOM     31  C   UNL     1      -5.183  12.411  17.163  0.00  0.00    +0.000 A 
ATOM     32  C   UNL     1      -4.647  11.294  17.819  0.00  0.00    +0.000 A 
ATOM     33  C   UNL     1      -5.517  10.518  18.595  0.00  0.00    +0.000 A 
ATOM     34  C   UNL     1      -6.851  10.888  18.691  0.00  0.00    +0.000 A 
ATOM     35  N   UNL     1      -7.365  11.973  18.078  0.00  0.00    +0.000 NA
ENDBRANCH  24  32
ENDBRANCH  23  27
ENDBRANCH   1  23
TORSDOF 9
ENDMDL
MODEL 3
REMARK VINA RESULT:      -7.9      6.178     10.268
REMARK  Name = 
REMARK  10 active torsions:
REMARK  status: ('A' for Active; 'I' for Inactive)
REMARK    1  A    between atoms: C_1  and  C_2
REMARK    2  A    between atoms: C_4  and  C_5
REMARK    3  A    between atoms: C_8  and  C_9
REMARK    4  A    between atoms: C_9  and  C_10
REMARK    5  A    between atoms: C_12  and  C_13
REMARK    6  A    between atoms: C_15  and  C_16
REMARK    7  A    between atoms: C_16  and  O_17
REMARK    8  A    between atoms: C_18  and  O_19
REMARK    9  A    between atoms: C_20  and  O_21
REMARK   10  A    between atoms: C_22  and  O_23
REMARK                            x       y       z     vdW  Elec       q    Type
REMARK                         _______ _______ _______ _____ _____    ______ ____
ROOT
ATOM      1  C   UNL     1       0.954   9.476  19.428  0.00  0.00    +0.000 A 
ATOM      2  C   UNL     1       1.499   8.295  18.906  0.00  0.00    +0.000 A 
ATOM      3  C   UNL     1       1.965   7.250  19.730  0.00  0.00    +0.000 A 
ATOM      4  C   UNL     1       1.785   7.358  21.108  0.00  0.00    +0.000 A 
ATOM      5  C   UNL     1       1.215   8.517  21.646  0.00  0.00    +0.000 A 
ATOM      6  C   UNL     1       0.829   9.579  20.818  0.00  0.00    +0.000 A 
ATOM      7 CL   UNL     1       0.235  11.012  21.577  0.00  0.00    +0.000 Cl
ENDROOT
BRANCH   3   8
ATOM      8  C   UNL     1       2.779   6.174  19.047  0.00  0.00    +0.000 C 
ATOM      9  O   UNL     1       3.605   6.830  18.075  0.00  0.00    +0.000 OA
ATOM     10  C   UNL     1       4.751   6.038  17.732  0.00  0.00    +0.000 C 
ATOM     11  C   UNL     1       4.308   4.727  17.061  0.00  0.00    +0.000 C 
ATOM     12  C   UNL     1       3.260   4.011  17.942  0.00  0.00    +0.000 C 
ATOM     13  C   UNL     1       2.119   4.948  18.403  0.00  0.00    +0.000 C 
BRANCH  11  14
ATOM     14  O   UNL     1       5.426   3.865  16.840  0.00  0.00    +0.000 OA
ATOM     15  H   UNL     1       6.220   4.406  16.684  0.00  0.00    +0.000 HD
ENDBRANCH  11  14
BRANCH  12  16
ATOM     16  O   UNL     1       2.696   2.856  17.304  0.00  0.00    +0.000 OA
ATOM     17  H   UNL     1       2.082   2.427  17.928  0.00  0.00    +0.000 HD
ENDBRANCH  12  16
BRANCH  13  18
ATOM     18  O   UNL     1       1.304   4.240  19.350  0.00  0.00    +0.000 OA
ATOM     19  H   UNL     1       1.891   3.932  20.067  0.00  0.00    +0.000 HD
ENDBRANCH  13  18
BRANCH  10  20
ATOM     20  C   UNL     1       5.631   6.913  16.836  0.00  0.00    +0.000 C 
BRANCH  20  21
ATOM     21  O   UNL     1       5.480   6.541  15.468  0.00  0.00    +0.000 OA
ATOM     22  H   UNL     1       5.441   7.380  14.969  0.00  0.00    +0.000 HD
ENDBRANCH  20  21
ENDBRANCH  10  20
ENDBRANCH   3   8
BRANCH   1  23
ATOM     23  C   UNL     1       0.656  10.608  18.467  0.00  0.00    +0.000 C 
BRANCH  23  27
ATOM     24  C   UNL     1      -3.146  11.247  18.050  0.00  0.00    +0.000 A 
ATOM     25  N   UNL     1      -2.822  10.180  17.342  0.00  0.00    +0.000 NA
ATOM     26  N   UNL     1      -1.481   9.875  17.402  0.00  0.00    +0.000 NA
ATOM     27  C   UNL     1      -0.811  10.715  18.160  0.00  0.00    +0.000 A 
ATOM     28  S   UNL     1      -1.781  11.974  18.815  0.00  0.00    +0.000 S 
BRANCH  24  32
ATOM     29  C   UNL     1      -7.143  12.697  20.786  0.00  0.00    +0.000 C 
ATOM     30  C   UNL     1      -6.449  12.446  19.482  0.00  0.00    +0.000 A 
ATOM     31  C   UNL     1      -5.134  11.988  19.437  0.00  0.00    +0.000 A 
ATOM     32  C   UNL     1      -4.522  11.750  18.199  0.00  0.00    +0.000 A 
ATOM     33  C   UNL     1      -5.271  12.007  17.044  0.00  0.00    +0.000 A 
ATOM     34  C   UNL     1      -6.575  12.468  17.172  0.00  0.00    +0.000 A 
ATOM     35  N   UNL     1      -7.174  12.677  18.361  0.00  0.00    +0.000 NA
ENDBRANCH  24  32
ENDBRANCH  23  27
ENDBRANCH   1  23
TORSDOF 9
ENDMDL
MODEL 4
REMARK VINA RESULT:      -7.7      6.104     10.902
REMARK  Name = 
REMARK  10 active torsions:
REMARK  status: ('A' for Active; 'I' for Inactive)
REMARK    1  A    between atoms: C_1  and  C_2
REMARK    2  A    between atoms: C_4  and  C_5
REMARK    3  A    between atoms: C_8  and  C_9
REMARK    4  A    between atoms: C_9  and  C_10
REMARK    5  A    between atoms: C_12  and  C_13
REMARK    6  A    between atoms: C_15  and  C_16
REMARK    7  A    between atoms: C_16  and  O_17
REMARK    8  A    between atoms: C_18  and  O_19
REMARK    9  A    between atoms: C_20  and  O_21
REMARK   10  A    between atoms: C_22  and  O_23
REMARK                            x       y       z     vdW  Elec       q    Type
REMARK                         _______ _______ _______ _____ _____    ______ ____
ROOT
ATOM      1  C   UNL     1       0.731   9.150  20.123  0.00  0.00    +0.000 A 
ATOM      2  C   UNL     1       1.580   8.048  20.298  0.00  0.00    +0.000 A 
ATOM      3  C   UNL     1       2.311   7.483  19.233  0.00  0.00    +0.000 A 
ATOM      4  C   UNL     1       2.262   8.105  17.987  0.00  0.00    +0.000 A 
ATOM      5  C   UNL     1       1.442   9.224  17.801  0.00  0.00    +0.000 A 
ATOM      6  C   UNL     1       0.662   9.726  18.850  0.00  0.00    +0.000 A 
ATOM      7 CL   UNL     1      -0.399  11.042  18.500  0.00  0.00    +0.000 Cl
ENDROOT
BRANCH   3   8
ATOM      8  C   UNL     1       2.955   6.141  19.504  0.00  0.00    +0.000 C 
ATOM      9  O   UNL     1       3.998   5.977  18.534  0.00  0.00    +0.000 OA
ATOM     10  C   UNL     1       4.986   5.034  18.972  0.00  0.00    +0.000 C 
ATOM     11  C   UNL     1       4.358   3.639  19.123  0.00  0.00    +0.000 C 
ATOM     12  C   UNL     1       3.095   3.722  20.010  0.00  0.00    +0.000 C 
ATOM     13  C   UNL     1       2.129   4.851  19.580  0.00  0.00    +0.000 C 
BRANCH  11  14
ATOM     14  O   UNL     1       5.291   2.719  19.693  0.00  0.00    +0.000 OA
ATOM     15  H   UNL     1       4.815   1.924  19.989  0.00  0.00    +0.000 HD
ENDBRANCH  11  14
BRANCH  12  16
ATOM     16  O   UNL     1       2.378   2.480  20.070  0.00  0.00    +0.000 OA
ATOM     17  H   UNL     1       1.875   2.374  19.241  0.00  0.00    +0.000 HD
ENDBRANCH  12  16
BRANCH  13  18
ATOM     18  O   UNL     1       1.088   4.956  20.562  0.00  0.00    +0.000 OA
ATOM     19  H   UNL     1       1.436   5.495  21.299  0.00  0.00    +0.000 HD
ENDBRANCH  13  18
BRANCH  10  20
ATOM     20  C   UNL     1       6.120   5.083  17.945  0.00  0.00    +0.000 C 
BRANCH  20  21
ATOM     21  O   UNL     1       7.187   4.221  18.334  0.00  0.00    +0.000 OA
ATOM     22  H   UNL     1       7.502   4.563  19.194  0.00  0.00    +0.000 HD
ENDBRANCH  20  21
ENDBRANCH  10  20
ENDBRANCH   3   8
BRANCH   1  23
ATOM     23  C   UNL     1      -0.148   9.562  21.286  0.00  0.00    +0.000 C 
BRANCH  23  27
ATOM     24  C   UNL     1      -0.266  13.315  22.255  0.00  0.00    +0.000 A 
ATOM     25  N   UNL     1       0.903  13.066  21.694  0.00  0.00    +0.000 NA
ATOM     26  N   UNL     1       1.061  11.748  21.330  0.00  0.00    +0.000 NA
ATOM     27  C   UNL     1       0.003  11.020  21.617  0.00  0.00    +0.000 A 
ATOM     28  S   UNL     1      -1.245  11.902  22.404  0.00  0.00    +0.000 S 
BRANCH  24  32
ATOM     29  C   UNL     1      -0.948  18.274  21.544  0.00  0.00    +0.000 C 
ATOM     30  C   UNL     1      -1.041  17.028  22.370  0.00  0.00    +0.000 A 
ATOM     31  C   UNL     1      -0.618  15.797  21.875  0.00  0.00    +0.000 A 
ATOM     32  C   UNL     1      -0.706  14.655  22.683  0.00  0.00    +0.000 A 
ATOM     33  C   UNL     1      -1.243  14.807  23.967  0.00  0.00    +0.000 A 
ATOM     34  C   UNL     1      -1.646  16.067  24.386  0.00  0.00    +0.000 A 
ATOM     35  N   UNL     1      -1.544  17.172  23.620  0.00  0.00    +0.000 NA
ENDBRANCH  24  32
ENDBRANCH  23  27
ENDBRANCH   1  23
TORSDOF 9
ENDMDL
MODEL 5
REMARK VINA RESULT:      -7.7      5.574      9.652
REMARK  Name = 
REMARK  10 active torsions:
REMARK  status: ('A' for Active; 'I' for Inactive)
REMARK    1  A    between atoms: C_1  and  C_2
REMARK    2  A    between atoms: C_4  and  C_5
REMARK    3  A    between atoms: C_8  and  C_9
REMARK    4  A    between atoms: C_9  and  C_10
REMARK    5  A    between atoms: C_12  and  C_13
REMARK    6  A    between atoms: C_15  and  C_16
REMARK    7  A    between atoms: C_16  and  O_17
REMARK    8  A    between atoms: C_18  and  O_19
REMARK    9  A    between atoms: C_20  and  O_21
REMARK   10  A    between atoms: C_22  and  O_23
REMARK                            x       y       z     vdW  Elec       q    Type
REMARK                         _______ _______ _______ _____ _____    ______ ____
ROOT
ATOM      1  C   UNL     1       1.971   8.283  19.109  0.00  0.00    +0.000 A 
ATOM      2  C   UNL     1       2.862   7.453  18.414  0.00  0.00    +0.000 A 
ATOM      3  C   UNL     1       3.225   6.174  18.885  0.00  0.00    +0.000 A 
ATOM      4  C   UNL     1       2.596   5.682  20.027  0.00  0.00    +0.000 A 
ATOM      5  C   UNL     1       1.680   6.485  20.717  0.00  0.00    +0.000 A 
ATOM      6  C   UNL     1       1.391   7.783  20.280  0.00  0.00    +0.000 A 
ATOM      7 CL   UNL     1       0.331   8.738  21.253  0.00  0.00    +0.000 Cl
ENDROOT
BRANCH   3   8
ATOM      8  C   UNL     1       4.399   5.517  18.194  0.00  0.00    +0.000 C 
ATOM      9  O   UNL     1       5.435   6.504  18.104  0.00  0.00    +0.000 OA
ATOM     10  C   UNL     1       6.729   5.903  17.951  0.00  0.00    +0.000 C 
ATOM     11  C   UNL     1       6.799   5.127  16.625  0.00  0.00    +0.000 C 
ATOM     12  C   UNL     1       5.607   4.149  16.521  0.00  0.00    +0.000 C 
ATOM     13  C   UNL     1       4.249   4.818  16.837  0.00  0.00    +0.000 C 
BRANCH  11  14
ATOM     14  O   UNL     1       8.029   4.407  16.521  0.00  0.00    +0.000 OA
ATOM     15  H   UNL     1       8.561   4.787  15.801  0.00  0.00    +0.000 HD
ENDBRANCH  11  14
BRANCH  12  16
ATOM     16  O   UNL     1       5.532   3.501  15.243  0.00  0.00    +0.000 OA
ATOM     17  H   UNL     1       4.696   3.001  15.199  0.00  0.00    +0.000 HD
ENDBRANCH  12  16
BRANCH  13  18
ATOM     18  O   UNL     1       3.241   3.797  16.886  0.00  0.00    +0.000 OA
ATOM     19  H   UNL     1       2.924   3.655  15.974  0.00  0.00    +0.000 HD
ENDBRANCH  13  18
BRANCH  10  20
ATOM     20  C   UNL     1       7.750   7.038  18.047  0.00  0.00    +0.000 C 
BRANCH  20  21
ATOM     21  O   UNL     1       7.406   8.098  17.158  0.00  0.00    +0.000 OA
ATOM     22  H   UNL     1       6.783   8.666  17.652  0.00  0.00    +0.000 HD
ENDBRANCH  20  21
ENDBRANCH  10  20
ENDBRANCH   3   8
BRANCH   1  23
ATOM     23  C   UNL     1       1.792   9.704  18.618  0.00  0.00    +0.000 C 
BRANCH  23  27
ATOM     24  C   UNL     1      -1.887  10.775  18.027  0.00  0.00    +0.000 A 
ATOM     25  N   UNL     1      -1.620   9.748  17.241  0.00  0.00    +0.000 NA
ATOM     26  N   UNL     1      -0.324   9.299  17.355  0.00  0.00    +0.000 NA
ATOM     27  C   UNL     1       0.370   9.993  18.231  0.00  0.00    +0.000 A 
ATOM     28  S   UNL     1      -0.516  11.283  18.943  0.00  0.00    +0.000 S 
BRANCH  24  32
ATOM     29  C   UNL     1      -5.520  13.220  20.555  0.00  0.00    +0.000 C 
ATOM     30  C   UNL     1      -4.969  12.571  19.322  0.00  0.00    +0.000 A 
ATOM     31  C   UNL     1      -3.691  12.017  19.304  0.00  0.00    +0.000 A 
ATOM     32  C   UNL     1      -3.214  11.405  18.137  0.00  0.00    +0.000 A 
ATOM     33  C   UNL     1      -4.056  11.397  17.017  0.00  0.00    +0.000 A 
ATOM     34  C   UNL     1      -5.314  11.975  17.113  0.00  0.00    +0.000 A 
ATOM     35  N   UNL     1      -5.785  12.545  18.241  0.00  0.00    +0.000 NA
ENDBRANCH  24  32
ENDBRANCH  23  27
ENDBRANCH   1  23
TORSDOF 9
ENDMDL
MODEL 6
REMARK VINA RESULT:      -7.7      6.107     10.990
REMARK  Name = 
REMARK  10 active torsions:
REMARK  status: ('A' for Active; 'I' for Inactive)
REMARK    1  A    between atoms: C_1  and  C_2
REMARK    2  A    between atoms: C_4  and  C_5
REMARK    3  A    between atoms: C_8  and  C_9
REMARK    4  A    between atoms: C_9  and  C_10
REMARK    5  A    between atoms: C_12  and  C_13
REMARK    6  A    between atoms: C_15  and  C_16
REMARK    7  A    between atoms: C_16  and  O_17
REMARK    8  A    between atoms: C_18  and  O_19
REMARK    9  A    between atoms: C_20  and  O_21
REMARK   10  A    between atoms: C_22  and  O_23
REMARK                            x       y       z     vdW  Elec       q    Type
REMARK                         _______ _______ _______ _____ _____    ______ ____
ROOT
ATOM      1  C   UNL     1       0.700   9.013  20.339  0.00  0.00    +0.000 A 
ATOM      2  C   UNL     1       1.535   7.895  20.479  0.00  0.00    +0.000 A 
ATOM      3  C   UNL     1       2.256   7.352  19.397  0.00  0.00    +0.000 A 
ATOM      4  C   UNL     1       2.213   8.012  18.170  0.00  0.00    +0.000 A 
ATOM      5  C   UNL     1       1.409   9.147  18.019  0.00  0.00    +0.000 A 
ATOM      6  C   UNL     1       0.638   9.628  19.084  0.00  0.00    +0.000 A 
ATOM      7 CL   UNL     1      -0.406  10.969  18.776  0.00  0.00    +0.000 Cl
ENDROOT
BRANCH   3   8
ATOM      8  C   UNL     1       2.882   5.994  19.625  0.00  0.00    +0.000 C 
ATOM      9  O   UNL     1       4.092   5.959  18.857  0.00  0.00    +0.000 OA
ATOM     10  C   UNL     1       5.012   4.980  19.362  0.00  0.00    +0.000 C 
ATOM     11  C   UNL     1       4.412   3.570  19.227  0.00  0.00    +0.000 C 
ATOM     12  C   UNL     1       3.004   3.532  19.863  0.00  0.00    +0.000 C 
ATOM     13  C   UNL     1       2.099   4.695  19.392  0.00  0.00    +0.000 C 
BRANCH  11  14
ATOM     14  O   UNL     1       5.253   2.598  19.852  0.00  0.00    +0.000 OA
ATOM     15  H   UNL     1       6.183   2.823  19.678  0.00  0.00    +0.000 HD
ENDBRANCH  11  14
BRANCH  12  16
ATOM     16  O   UNL     1       2.330   2.286  19.641  0.00  0.00    +0.000 OA
ATOM     17  H   UNL     1       1.402   2.474  19.407  0.00  0.00    +0.000 HD
ENDBRANCH  12  16
BRANCH  13  18
ATOM     18  O   UNL     1       0.890   4.671  20.167  0.00  0.00    +0.000 OA
ATOM     19  H   UNL     1       0.605   5.597  20.292  0.00  0.00    +0.000 HD
ENDBRANCH  13  18
BRANCH  10  20
ATOM     20  C   UNL     1       6.315   5.164  18.580  0.00  0.00    +0.000 C 
BRANCH  20  21
ATOM     21  O   UNL     1       6.661   3.964  17.893  0.00  0.00    +0.000 OA
ATOM     22  H   UNL     1       6.494   4.144  16.947  0.00  0.00    +0.000 HD
ENDBRANCH  20  21
ENDBRANCH  10  20
ENDBRANCH   3   8
BRANCH   1  23
ATOM     23  C   UNL     1      -0.170   9.402  21.516  0.00  0.00    +0.000 C 
BRANCH  23  27
ATOM     24  C   UNL     1      -0.437  13.158  22.443  0.00  0.00    +0.000 A 
ATOM     25  N   UNL     1       0.721  12.958  21.841  0.00  0.00    +0.000 NA
ATOM     26  N   UNL     1       0.930  11.644  21.487  0.00  0.00    +0.000 NA
ATOM     27  C   UNL     1      -0.079  10.870  21.823  0.00  0.00    +0.000 A 
ATOM     28  S   UNL     1      -1.339  11.701  22.647  0.00  0.00    +0.000 S 
BRANCH  24  32
ATOM     29  C   UNL     1      -3.690  16.204  24.832  0.00  0.00    +0.000 C 
ATOM     30  C   UNL     1      -2.467  15.960  24.002  0.00  0.00    +0.000 A 
ATOM     31  C   UNL     1      -2.067  14.670  23.662  0.00  0.00    +0.000 A 
ATOM     32  C   UNL     1      -0.926  14.480  22.871  0.00  0.00    +0.000 A 
ATOM     33  C   UNL     1      -0.218  15.620  22.469  0.00  0.00    +0.000 A 
ATOM     34  C   UNL     1      -0.677  16.872  22.853  0.00  0.00    +0.000 A 
ATOM     35  N   UNL     1      -1.786  17.059  23.596  0.00  0.00    +0.000 NA
ENDBRANCH  24  32
ENDBRANCH  23  27
ENDBRANCH   1  23
TORSDOF 9
ENDMDL
MODEL 7
REMARK VINA RESULT:      -7.7      6.174     10.218
REMARK  Name = 
REMARK  10 active torsions:
REMARK  status: ('A' for Active; 'I' for Inactive)
REMARK    1  A    between atoms: C_1  and  C_2
REMARK    2  A    between atoms: C_4  and  C_5
REMARK    3  A    between atoms: C_8  and  C_9
REMARK    4  A    between atoms: C_9  and  C_10
REMARK    5  A    between atoms: C_12  and  C_13
REMARK    6  A    between atoms: C_15  and  C_16
REMARK    7  A    between atoms: C_16  and  O_17
REMARK    8  A    between atoms: C_18  and  O_19
REMARK    9  A    between atoms: C_20  and  O_21
REMARK   10  A    between atoms: C_22  and  O_23
REMARK                            x       y       z     vdW  Elec       q    Type
REMARK                         _______ _______ _______ _____ _____    ______ ____
ROOT
ATOM      1  C   UNL     1       1.028   9.389  19.279  0.00  0.00    +0.000 A 
ATOM      2  C   UNL     1       1.629   8.358  18.543  0.00  0.00    +0.000 A 
ATOM      3  C   UNL     1       2.131   7.190  19.152  0.00  0.00    +0.000 A 
ATOM      4  C   UNL     1       1.931   7.013  20.520  0.00  0.00    +0.000 A 
ATOM      5  C   UNL     1       1.306   8.018  21.266  0.00  0.00    +0.000 A 
ATOM      6  C   UNL     1       0.884   9.207  20.659  0.00  0.00    +0.000 A 
ATOM      7 CL   UNL     1       0.221  10.435  21.676  0.00  0.00    +0.000 Cl
ENDROOT
BRANCH   3   8
ATOM      8  C   UNL     1       2.998   6.305  18.284  0.00  0.00    +0.000 C 
ATOM      9  O   UNL     1       3.388   5.185  19.091  0.00  0.00    +0.000 OA
ATOM     10  C   UNL     1       3.761   4.057  18.287  0.00  0.00    +0.000 C 
ATOM     11  C   UNL     1       5.003   4.394  17.445  0.00  0.00    +0.000 C 
ATOM     12  C   UNL     1       4.770   5.705  16.662  0.00  0.00    +0.000 C 
ATOM     13  C   UNL     1       4.230   6.851  17.551  0.00  0.00    +0.000 C 
BRANCH  11  14
ATOM     14  O   UNL     1       5.305   3.333  16.536  0.00  0.00    +0.000 OA
ATOM     15  H   UNL     1       4.698   2.591  16.700  0.00  0.00    +0.000 HD
ENDBRANCH  11  14
BRANCH  12  16
ATOM     16  O   UNL     1       5.944   6.154  15.971  0.00  0.00    +0.000 OA
ATOM     17  H   UNL     1       6.247   6.984  16.384  0.00  0.00    +0.000 HD
ENDBRANCH  12  16
BRANCH  13  18
ATOM     18  O   UNL     1       3.883   7.957  16.704  0.00  0.00    +0.000 OA
ATOM     19  H   UNL     1       4.288   8.758  17.090  0.00  0.00    +0.000 HD
ENDBRANCH  13  18
BRANCH  10  20
ATOM     20  C   UNL     1       3.979   2.889  19.252  0.00  0.00    +0.000 C 
BRANCH  20  21
ATOM     21  O   UNL     1       5.371   2.670  19.468  0.00  0.00    +0.000 OA
ATOM     22  H   UNL     1       5.513   1.713  19.330  0.00  0.00    +0.000 HD
ENDBRANCH  20  21
ENDBRANCH  10  20
ENDBRANCH   3   8
BRANCH   1  23
ATOM     23  C   UNL     1       0.693  10.677  18.557  0.00  0.00    +0.000 C 
BRANCH  23  27
ATOM     24  C   UNL     1      -3.116  11.309  18.197  0.00  0.00    +0.000 A 
ATOM     25  N   UNL     1      -2.786  10.295  17.417  0.00  0.00    +0.000 NA
ATOM     26  N   UNL     1      -1.442   9.999  17.452  0.00  0.00    +0.000 NA
ATOM     27  C   UNL     1      -0.776  10.792  18.263  0.00  0.00    +0.000 A 
ATOM     28  S   UNL     1      -1.755  11.995  19.004  0.00  0.00    +0.000 S 
BRANCH  24  32
ATOM     29  C   UNL     1      -6.918  13.120  20.996  0.00  0.00    +0.000 C 
ATOM     30  C   UNL     1      -6.332  12.652  19.699  0.00  0.00    +0.000 A 
ATOM     31  C   UNL     1      -5.006  12.234  19.611  0.00  0.00    +0.000 A 
ATOM     32  C   UNL     1      -4.497  11.788  18.383  0.00  0.00    +0.000 A 
ATOM     33  C   UNL     1      -5.357  11.803  17.279  0.00  0.00    +0.000 A 
ATOM     34  C   UNL     1      -6.664  12.239  17.446  0.00  0.00    +0.000 A 
ATOM     35  N   UNL     1      -7.165  12.648  18.629  0.00  0.00    +0.000 NA
ENDBRANCH  24  32
ENDBRANCH  23  27
ENDBRANCH   1  23
TORSDOF 9
ENDMDL
MODEL 8
REMARK VINA RESULT:      -7.7      5.920     10.644
REMARK  Name = 
REMARK  10 active torsions:
REMARK  status: ('A' for Active; 'I' for Inactive)
REMARK    1  A    between atoms: C_1  and  C_2
REMARK    2  A    between atoms: C_4  and  C_5
REMARK    3  A    between atoms: C_8  and  C_9
REMARK    4  A    between atoms: C_9  and  C_10
REMARK    5  A    between atoms: C_12  and  C_13
REMARK    6  A    between atoms: C_15  and  C_16
REMARK    7  A    between atoms: C_16  and  O_17
REMARK    8  A    between atoms: C_18  and  O_19
REMARK    9  A    between atoms: C_20  and  O_21
REMARK   10  A    between atoms: C_22  and  O_23
REMARK                            x       y       z     vdW  Elec       q    Type
REMARK                         _______ _______ _______ _____ _____    ______ ____
ROOT
ATOM      1  C   UNL     1       1.080   8.782  20.073  0.00  0.00    +0.000 A 
ATOM      2  C   UNL     1       1.929   7.668  20.008  0.00  0.00    +0.000 A 
ATOM      3  C   UNL     1       2.511   7.233  18.800  0.00  0.00    +0.000 A 
ATOM      4  C   UNL     1       2.314   7.998  17.652  0.00  0.00    +0.000 A 
ATOM      5  C   UNL     1       1.495   9.131  17.704  0.00  0.00    +0.000 A 
ATOM      6  C   UNL     1       0.860   9.505  18.895  0.00  0.00    +0.000 A 
ATOM      7 CL   UNL     1      -0.217  10.853  18.840  0.00  0.00    +0.000 Cl
ENDROOT
BRANCH   3   8
ATOM      8  C   UNL     1       3.164   5.869  18.827  0.00  0.00    +0.000 C 
ATOM      9  O   UNL     1       2.599   5.158  19.937  0.00  0.00    +0.000 OA
ATOM     10  C   UNL     1       2.732   3.739  19.782  0.00  0.00    +0.000 C 
ATOM     11  C   UNL     1       4.218   3.343  19.769  0.00  0.00    +0.000 C 
ATOM     12  C   UNL     1       4.981   4.189  18.724  0.00  0.00    +0.000 C 
ATOM     13  C   UNL     1       4.689   5.704  18.846  0.00  0.00    +0.000 C 
BRANCH  11  14
ATOM     14  O   UNL     1       4.373   1.954  19.475  0.00  0.00    +0.000 OA
ATOM     15  H   UNL     1       3.562   1.626  19.050  0.00  0.00    +0.000 HD
ENDBRANCH  11  14
BRANCH  12  16
ATOM     16  O   UNL     1       6.398   3.974  18.766  0.00  0.00    +0.000 OA
ATOM     17  H   UNL     1       6.843   4.841  18.749  0.00  0.00    +0.000 HD
ENDBRANCH  12  16
BRANCH  13  18
ATOM     18  O   UNL     1       5.298   6.374  17.733  0.00  0.00    +0.000 OA
ATOM     19  H   UNL     1       5.520   5.693  17.068  0.00  0.00    +0.000 HD
ENDBRANCH  13  18
BRANCH  10  20
ATOM     20  C   UNL     1       1.942   3.100  20.927  0.00  0.00    +0.000 C 
BRANCH  20  21
ATOM     21  O   UNL     1       2.825   2.620  21.938  0.00  0.00    +0.000 OA
ATOM     22  H   UNL     1       2.400   1.817  22.298  0.00  0.00    +0.000 HD
ENDBRANCH  20  21
ENDBRANCH  10  20
ENDBRANCH   3   8
BRANCH   1  23
ATOM     23  C   UNL     1       0.362   9.054  21.378  0.00  0.00    +0.000 C 
BRANCH  23  27
ATOM     24  C   UNL     1      -0.402  12.762  22.215  0.00  0.00    +0.000 A 
ATOM     25  N   UNL     1       0.831  12.685  21.746  0.00  0.00    +0.000 NA
ATOM     26  N   UNL     1       1.215  11.400  21.437  0.00  0.00    +0.000 NA
ATOM     27  C   UNL     1       0.263  10.524  21.672  0.00  0.00    +0.000 A 
ATOM     28  S   UNL     1      -1.161  11.218  22.340  0.00  0.00    +0.000 S 
BRANCH  24  32
ATOM     29  C   UNL     1      -2.090  16.201  25.515  0.00  0.00    +0.000 C 
ATOM     30  C   UNL     1      -1.891  15.685  24.122  0.00  0.00    +0.000 A 
ATOM     31  C   UNL     1      -1.226  14.485  23.882  0.00  0.00    +0.000 A 
ATOM     32  C   UNL     1      -1.072  14.026  22.567  0.00  0.00    +0.000 A 
ATOM     33  C   UNL     1      -1.589  14.821  21.537  0.00  0.00    +0.000 A 
ATOM     34  C   UNL     1      -2.235  16.007  21.857  0.00  0.00    +0.000 A 
ATOM     35  N   UNL     1      -2.404  16.442  23.122  0.00  0.00    +0.000 NA
ENDBRANCH  24  32
ENDBRANCH  23  27
ENDBRANCH   1  23
TORSDOF 9
ENDMDL
MODEL 9
REMARK VINA RESULT:      -7.7      5.651      9.766
REMARK  Name = 
REMARK  10 active torsions:
REMARK  status: ('A' for Active; 'I' for Inactive)
REMARK    1  A    between atoms: C_1  and  C_2
REMARK    2  A    between atoms: C_4  and  C_5
REMARK    3  A    between atoms: C_8  and  C_9
REMARK    4  A    between atoms: C_9  and  C_10
REMARK    5  A    between atoms: C_12  and  C_13
REMARK    6  A    between atoms: C_15  and  C_16
REMARK    7  A    between atoms: C_16  and  O_17
REMARK    8  A    between atoms: C_18  and  O_19
REMARK    9  A    between atoms: C_20  and  O_21
REMARK   10  A    between atoms: C_22  and  O_23
REMARK                            x       y       z     vdW  Elec       q    Type
REMARK                         _______ _______ _______ _____ _____    ______ ____
ROOT
ATOM      1  C   UNL     1       1.916   8.322  19.165  0.00  0.00    +0.000 A 
ATOM      2  C   UNL     1       2.803   7.490  18.468  0.00  0.00    +0.000 A 
ATOM      3  C   UNL     1       3.143   6.199  18.924  0.00  0.00    +0.000 A 
ATOM      4  C   UNL     1       2.494   5.700  20.052  0.00  0.00    +0.000 A 
ATOM      5  C   UNL     1       1.582   6.505  20.743  0.00  0.00    +0.000 A 
ATOM      6  C   UNL     1       1.315   7.813  20.322  0.00  0.00    +0.000 A 
ATOM      7 CL   UNL     1       0.259   8.770  21.297  0.00  0.00    +0.000 Cl
ENDROOT
BRANCH   3   8
ATOM      8  C   UNL     1       4.315   5.535  18.237  0.00  0.00    +0.000 C 
ATOM      9  O   UNL     1       5.338   6.531  18.105  0.00  0.00    +0.000 OA
ATOM     10  C   UNL     1       6.636   5.940  17.951  0.00  0.00    +0.000 C 
ATOM     11  C   UNL     1       6.698   5.126  16.648  0.00  0.00    +0.000 C 
ATOM     12  C   UNL     1       5.517   4.132  16.589  0.00  0.00    +0.000 C 
ATOM     13  C   UNL     1       4.155   4.795  16.903  0.00  0.00    +0.000 C 
BRANCH  11  14
ATOM     14  O   UNL     1       7.935   4.417  16.548  0.00  0.00    +0.000 OA
ATOM     15  H   UNL     1       8.354   4.383  17.426  0.00  0.00    +0.000 HD
ENDBRANCH  11  14
BRANCH  12  16
ATOM     16  O   UNL     1       5.432   3.446  15.331  0.00  0.00    +0.000 OA
ATOM     17  H   UNL     1       5.975   3.928  14.680  0.00  0.00    +0.000 HD
ENDBRANCH  12  16
BRANCH  13  18
ATOM     18  O   UNL     1       3.160   3.765  16.996  0.00  0.00    +0.000 OA
ATOM     19  H   UNL     1       3.623   2.928  17.191  0.00  0.00    +0.000 HD
ENDBRANCH  13  18
BRANCH  10  20
ATOM     20  C   UNL     1       7.646   7.089  18.000  0.00  0.00    +0.000 C 
BRANCH  20  21
ATOM     21  O   UNL     1       8.019   7.484  16.683  0.00  0.00    +0.000 OA
ATOM     22  H   UNL     1       7.206   7.839  16.273  0.00  0.00    +0.000 HD
ENDBRANCH  20  21
ENDBRANCH  10  20
ENDBRANCH   3   8
BRANCH   1  23
ATOM     23  C   UNL     1       1.763   9.753  18.693  0.00  0.00    +0.000 C 
BRANCH  23  27
ATOM     24  C   UNL     1      -1.899  11.018  18.563  0.00  0.00    +0.000 A 
ATOM     25  N   UNL     1      -1.770  10.025  17.701  0.00  0.00    +0.000 NA
ATOM     26  N   UNL     1      -0.493   9.514  17.650  0.00  0.00    +0.000 NA
ATOM     27  C   UNL     1       0.324  10.126  18.480  0.00  0.00    +0.000 A 
ATOM     28  S   UNL     1      -0.415  11.412  19.348  0.00  0.00    +0.000 S 
BRANCH  24  32
ATOM     29  C   UNL     1      -6.714  12.185  17.547  0.00  0.00    +0.000 C 
ATOM     30  C   UNL     1      -5.475  12.276  18.386  0.00  0.00    +0.000 A 
ATOM     31  C   UNL     1      -4.318  11.578  18.049  0.00  0.00    +0.000 A 
ATOM     32  C   UNL     1      -3.174  11.700  18.849  0.00  0.00    +0.000 A 
ATOM     33  C   UNL     1      -3.258  12.519  19.982  0.00  0.00    +0.000 A 
ATOM     34  C   UNL     1      -4.449  13.178  20.253  0.00  0.00    +0.000 A 
ATOM     35  N   UNL     1      -5.545  13.080  19.474  0.00  0.00    +0.000 NA
ENDBRANCH  24  32
ENDBRANCH  23  27
ENDBRANCH   1  23
TORSDOF 9
ENDMDL
