MODEL 1
REMARK VINA RESULT:      -6.5      0.000      0.000
REMARK  Name = 
REMARK  25 active torsions:
REMARK  status: ('A' for Active; 'I' for Inactive)
REMARK    1  A    between atoms: C_1  and  C_2
REMARK    2  A    between atoms: C_2  and  C_3
REMARK    3  A    between atoms: C_3  and  C_4
REMARK    4  A    between atoms: C_4  and  C_5
REMARK    5  A    between atoms: C_5  and  C_6
REMARK    6  A    between atoms: C_6  and  C_7
REMARK    7  A    between atoms: C_7  and  C_8
REMARK    8  A    between atoms: C_8  and  C_9
REMARK    9  A    between atoms: C_9  and  C_10
REMARK   10  A    between atoms: C_10  and  C_11
REMARK   11  A    between atoms: C_11  and  C_12
REMARK   12  A    between atoms: C_12  and  C_13
REMARK   13  A    between atoms: C_13  and  C_14
REMARK   14  A    between atoms: N_16  and  C_17
REMARK   15  A    between atoms: C_18  and  O_19
REMARK   16  A    between atoms: C_21  and  O_22
REMARK   17  A    between atoms: C_21  and  C_24
REMARK   18  A    between atoms: O_22  and  C_23
REMARK   19  A    between atoms: C_24  and  O_26
REMARK   20  A    between atoms: C_28  and  C_29
REMARK   21  A    between atoms: C_29  and  O_30
REMARK   22  A    between atoms: C_29  and  C_31
REMARK   23  A    between atoms: C_31  and  O_32
REMARK   24  A    between atoms: C_31  and  C_33
REMARK   25  A    between atoms: C_33  and  O_34
REMARK                            x       y       z     vdW  Elec       q    Type
REMARK                         _______ _______ _______ _____ _____    ______ ____
ROOT
ATOM      1  C   UNL     1       0.334  10.598  18.583  0.00  0.00    +0.000 C 
ATOM      2  C   UNL     1       1.277  11.526  19.395  0.00  0.00    +0.000 C 
ATOM      3  C   UNL     1       0.876  11.733  20.869  0.00  0.00    +0.000 C 
ATOM      4  C   UNL     1      -0.638  11.826  21.141  0.00  0.00    +0.000 C 
ATOM      5  O   UNL     1      -1.383  10.856  20.373  0.00  0.00    +0.000 OA
ATOM      6  C   UNL     1      -1.182  10.781  18.958  0.00  0.00    +0.000 C 
ENDROOT
BRANCH   1   9
ATOM      7  C   UNL     1       1.831   8.647  18.029  0.00  0.00    +0.000 C 
ATOM      8  O   UNL     1       2.446   9.320  17.171  0.00  0.00    +0.000 OA
ATOM      9  N   UNL     1       0.785   9.172  18.761  0.00  0.00    +0.000 N 
ATOM     10  H   UNL     1       0.264   8.544  19.381  0.00  0.00    +0.000 HD
BRANCH   7  11
ATOM     11  C   UNL     1       2.235   7.198  18.283  0.00  0.00    +0.000 C 
BRANCH  11  12
ATOM     12  C   UNL     1       2.617   7.074  19.748  0.00  0.00    +0.000 C 
BRANCH  12  13
ATOM     13  C   UNL     1       1.643   6.205  20.526  0.00  0.00    +0.000 C 
BRANCH  13  14
ATOM     14  C   UNL     1       2.125   4.761  20.606  0.00  0.00    +0.000 C 
BRANCH  14  15
ATOM     15  C   UNL     1       0.987   3.824  20.231  0.00  0.00    +0.000 C 
BRANCH  15  16
ATOM     16  C   UNL     1       1.238   3.133  18.906  0.00  0.00    +0.000 C 
BRANCH  16  17
ATOM     17  C   UNL     1       2.726   3.179  18.590  0.00  0.00    +0.000 C 
BRANCH  17  18
ATOM     18  C   UNL     1       2.972   3.760  17.207  0.00  0.00    +0.000 C 
BRANCH  18  19
ATOM     19  C   UNL     1       4.467   3.887  16.951  0.00  0.00    +0.000 C 
BRANCH  19  20
ATOM     20  C   UNL     1       4.829   5.316  16.564  0.00  0.00    +0.000 C 
BRANCH  20  21
ATOM     21  C   UNL     1       5.604   5.336  15.252  0.00  0.00    +0.000 C 
BRANCH  21  23
ATOM     22  C   UNL     1       6.098   3.753  13.371  0.00  0.00    +0.000 C 
ATOM     23  C   UNL     1       6.083   3.937  14.878  0.00  0.00    +0.000 C 
ENDBRANCH  21  23
ENDBRANCH  20  21
ENDBRANCH  19  20
ENDBRANCH  18  19
ENDBRANCH  17  18
ENDBRANCH  16  17
ENDBRANCH  15  16
ENDBRANCH  14  15
ENDBRANCH  13  14
ENDBRANCH  12  13
ENDBRANCH  11  12
ENDBRANCH   7  11
ENDBRANCH   1   9
BRANCH   4  24
ATOM     24  C   UNL     1      -1.032  11.375  22.581  0.00  0.00    +0.000 C 
ATOM     25  O   UNL     1      -2.105  11.587  23.129  0.00  0.00    +0.000 OA
BRANCH  24  26
ATOM     26  O   UNL     1      -0.072  10.585  23.151  0.00  0.00    +0.000 OA
ATOM     27  H   UNL     1       0.646  11.171  23.494  0.00  0.00    +0.000 HD
ENDBRANCH  24  26
ENDBRANCH   4  24
BRANCH   4  28
ATOM     28  O   UNL     1      -1.218  13.130  20.978  0.00  0.00    +0.000 OA
ATOM     29  C   UNL     1      -0.432  14.221  21.476  0.00  0.00    +0.000 C 
ENDBRANCH   4  28
BRANCH   2  30
ATOM     30  O   UNL     1       1.509  12.798  18.780  0.00  0.00    +0.000 OA
ATOM     31  H   UNL     1       2.033  13.369  19.365  0.00  0.00    +0.000 HD
ENDBRANCH   2  30
BRANCH   6  32
ATOM     32  C   UNL     1      -2.073  11.841  18.209  0.00  0.00    +0.000 C 
BRANCH  32  33
ATOM     33  O   UNL     1      -1.192  12.686  17.462  0.00  0.00    +0.000 OA
ATOM     34  H   UNL     1      -1.732  13.377  17.039  0.00  0.00    +0.000 HD
ENDBRANCH  32  33
BRANCH  32  35
ATOM     35  C   UNL     1      -3.170  11.175  17.258  0.00  0.00    +0.000 C 
BRANCH  35  36
ATOM     36  O   UNL     1      -3.665   9.918  17.729  0.00  0.00    +0.000 OA
ATOM     37  H   UNL     1      -2.908   9.410  18.075  0.00  0.00    +0.000 HD
ENDBRANCH  35  36
BRANCH  35  38
ATOM     38  C   UNL     1      -2.777  10.929  15.798  0.00  0.00    +0.000 C 
BRANCH  38  39
ATOM     39  O   UNL     1      -3.259   9.681  15.336  0.00  0.00    +0.000 OA
ATOM     40  H   UNL     1      -2.495   9.214  14.950  0.00  0.00    +0.000 HD
ENDBRANCH  38  39
ENDBRANCH  35  38
ENDBRANCH  32  35
ENDBRANCH   6  32
TORSDOF 23
ENDMDL
MODEL 2
REMARK VINA RESULT:      -6.4      1.069      1.397
REMARK  Name = 
REMARK  25 active torsions:
REMARK  status: ('A' for Active; 'I' for Inactive)
REMARK    1  A    between atoms: C_1  and  C_2
REMARK    2  A    between atoms: C_2  and  C_3
REMARK    3  A    between atoms: C_3  and  C_4
REMARK    4  A    between atoms: C_4  and  C_5
REMARK    5  A    between atoms: C_5  and  C_6
REMARK    6  A    between atoms: C_6  and  C_7
REMARK    7  A    between atoms: C_7  and  C_8
REMARK    8  A    between atoms: C_8  and  C_9
REMARK    9  A    between atoms: C_9  and  C_10
REMARK   10  A    between atoms: C_10  and  C_11
REMARK   11  A    between atoms: C_11  and  C_12
REMARK   12  A    between atoms: C_12  and  C_13
REMARK   13  A    between atoms: C_13  and  C_14
REMARK   14  A    between atoms: N_16  and  C_17
REMARK   15  A    between atoms: C_18  and  O_19
REMARK   16  A    between atoms: C_21  and  O_22
REMARK   17  A    between atoms: C_21  and  C_24
REMARK   18  A    between atoms: O_22  and  C_23
REMARK   19  A    between atoms: C_24  and  O_26
REMARK   20  A    between atoms: C_28  and  C_29
REMARK   21  A    between atoms: C_29  and  O_30
REMARK   22  A    between atoms: C_29  and  C_31
REMARK   23  A    between atoms: C_31  and  O_32
REMARK   24  A    between atoms: C_31  and  C_33
REMARK   25  A    between atoms: C_33  and  O_34
REMARK                            x       y       z     vdW  Elec       q    Type
REMARK                         _______ _______ _______ _____ _____    ______ ____
ROOT
ATOM      1  C   UNL     1       0.510  10.450  18.727  0.00  0.00    +0.000 C 
ATOM      2  C   UNL     1       1.315  11.523  19.510  0.00  0.00    +0.000 C 
ATOM      3  C   UNL     1       0.877  11.726  20.974  0.00  0.00    +0.000 C 
ATOM      4  C   UNL     1      -0.639  11.626  21.236  0.00  0.00    +0.000 C 
ATOM      5  O   UNL     1      -1.242  10.540  20.500  0.00  0.00    +0.000 OA
ATOM      6  C   UNL     1      -1.021  10.444  19.089  0.00  0.00    +0.000 C 
ENDROOT
BRANCH   1   9
ATOM      7  C   UNL     1       2.092   8.592  18.094  0.00  0.00    +0.000 C 
ATOM      8  O   UNL     1       2.460   9.211  17.069  0.00  0.00    +0.000 OA
ATOM      9  N   UNL     1       1.145   9.104  18.958  0.00  0.00    +0.000 N 
ATOM     10  H   UNL     1       0.820   8.510  19.728  0.00  0.00    +0.000 HD
BRANCH   7  11
ATOM     11  C   UNL     1       2.696   7.229  18.410  0.00  0.00    +0.000 C 
BRANCH  11  12
ATOM     12  C   UNL     1       2.308   6.868  19.834  0.00  0.00    +0.000 C 
BRANCH  12  13
ATOM     13  C   UNL     1       1.860   5.422  19.960  0.00  0.00    +0.000 C 
BRANCH  13  14
ATOM     14  C   UNL     1       1.762   4.748  18.597  0.00  0.00    +0.000 C 
BRANCH  14  15
ATOM     15  C   UNL     1       1.893   3.241  18.764  0.00  0.00    +0.000 C 
BRANCH  15  16
ATOM     16  C   UNL     1       3.085   2.691  18.007  0.00  0.00    +0.000 C 
BRANCH  16  17
ATOM     17  C   UNL     1       4.083   3.813  17.758  0.00  0.00    +0.000 C 
BRANCH  17  18
ATOM     18  C   UNL     1       5.107   3.890  18.879  0.00  0.00    +0.000 C 
BRANCH  18  19
ATOM     19  C   UNL     1       5.967   5.136  18.718  0.00  0.00    +0.000 C 
BRANCH  19  20
ATOM     20  C   UNL     1       7.150   4.861  17.798  0.00  0.00    +0.000 C 
BRANCH  20  21
ATOM     21  C   UNL     1       6.977   5.589  16.471  0.00  0.00    +0.000 C 
BRANCH  21  23
ATOM     22  C   UNL     1       5.714   4.608  14.539  0.00  0.00    +0.000 C 
ATOM     23  C   UNL     1       7.028   4.612  15.301  0.00  0.00    +0.000 C 
ENDBRANCH  21  23
ENDBRANCH  20  21
ENDBRANCH  19  20
ENDBRANCH  18  19
ENDBRANCH  17  18
ENDBRANCH  16  17
ENDBRANCH  15  16
ENDBRANCH  14  15
ENDBRANCH  13  14
ENDBRANCH  12  13
ENDBRANCH  11  12
ENDBRANCH   7  11
ENDBRANCH   1   9
BRANCH   4  24
ATOM     24  C   UNL     1      -0.983  11.177  22.689  0.00  0.00    +0.000 C 
ATOM     25  O   UNL     1      -0.243  10.558  23.441  0.00  0.00    +0.000 OA
BRANCH  24  26
ATOM     26  O   UNL     1      -2.193  11.664  23.103  0.00  0.00    +0.000 OA
ATOM     27  H   UNL     1      -2.031  12.333  23.811  0.00  0.00    +0.000 HD
ENDBRANCH  24  26
ENDBRANCH   4  24
BRANCH   4  28
ATOM     28  O   UNL     1      -1.385  12.836  21.024  0.00  0.00    +0.000 OA
ATOM     29  C   UNL     1      -0.677  14.053  21.293  0.00  0.00    +0.000 C 
ENDBRANCH   4  28
BRANCH   2  30
ATOM     30  O   UNL     1       1.381  12.793  18.851  0.00  0.00    +0.000 OA
ATOM     31  H   UNL     1       0.547  12.984  18.394  0.00  0.00    +0.000 HD
ENDBRANCH   2  30
BRANCH   6  32
ATOM     32  C   UNL     1      -2.038  11.349  18.299  0.00  0.00    +0.000 C 
BRANCH  32  33
ATOM     33  O   UNL     1      -1.270  12.230  17.473  0.00  0.00    +0.000 OA
ATOM     34  H   UNL     1      -0.558  12.605  18.022  0.00  0.00    +0.000 HD
ENDBRANCH  32  33
BRANCH  32  35
ATOM     35  C   UNL     1      -3.076  10.507  17.427  0.00  0.00    +0.000 C 
BRANCH  35  36
ATOM     36  O   UNL     1      -2.468   9.529  16.577  0.00  0.00    +0.000 OA
ATOM     37  H   UNL     1      -2.943   8.687  16.705  0.00  0.00    +0.000 HD
ENDBRANCH  35  36
BRANCH  35  38
ATOM     38  C   UNL     1      -4.027  11.291  16.516  0.00  0.00    +0.000 C 
BRANCH  38  39
ATOM     39  O   UNL     1      -3.378  11.715  15.333  0.00  0.00    +0.000 OA
ATOM     40  H   UNL     1      -2.429  11.785  15.546  0.00  0.00    +0.000 HD
ENDBRANCH  38  39
ENDBRANCH  35  38
ENDBRANCH  32  35
ENDBRANCH   6  32
TORSDOF 23
ENDMDL
MODEL 3
REMARK VINA RESULT:      -6.3      1.465      2.108
REMARK  Name = 
REMARK  25 active torsions:
REMARK  status: ('A' for Active; 'I' for Inactive)
REMARK    1  A    between atoms: C_1  and  C_2
REMARK    2  A    between atoms: C_2  and  C_3
REMARK    3  A    between atoms: C_3  and  C_4
REMARK    4  A    between atoms: C_4  and  C_5
REMARK    5  A    between atoms: C_5  and  C_6
REMARK    6  A    between atoms: C_6  and  C_7
REMARK    7  A    between atoms: C_7  and  C_8
REMARK    8  A    between atoms: C_8  and  C_9
REMARK    9  A    between atoms: C_9  and  C_10
REMARK   10  A    between atoms: C_10  and  C_11
REMARK   11  A    between atoms: C_11  and  C_12
REMARK   12  A    between atoms: C_12  and  C_13
REMARK   13  A    between atoms: C_13  and  C_14
REMARK   14  A    between atoms: N_16  and  C_17
REMARK   15  A    between atoms: C_18  and  O_19
REMARK   16  A    between atoms: C_21  and  O_22
REMARK   17  A    between atoms: C_21  and  C_24
REMARK   18  A    between atoms: O_22  and  C_23
REMARK   19  A    between atoms: C_24  and  O_26
REMARK   20  A    between atoms: C_28  and  C_29
REMARK   21  A    between atoms: C_29  and  O_30
REMARK   22  A    between atoms: C_29  and  C_31
REMARK   23  A    between atoms: C_31  and  O_32
REMARK   24  A    between atoms: C_31  and  C_33
REMARK   25  A    between atoms: C_33  and  O_34
REMARK                            x       y       z     vdW  Elec       q    Type
REMARK                         _______ _______ _______ _____ _____    ______ ____
ROOT
ATOM      1  C   UNL     1       0.434  10.586  18.579  0.00  0.00    +0.000 C 
ATOM      2  C   UNL     1       1.362  11.758  18.998  0.00  0.00    +0.000 C 
ATOM      3  C   UNL     1       1.071  12.352  20.391  0.00  0.00    +0.000 C 
ATOM      4  C   UNL     1      -0.417  12.433  20.783  0.00  0.00    +0.000 C 
ATOM      5  O   UNL     1      -1.141  11.245  20.398  0.00  0.00    +0.000 OA
ATOM      6  C   UNL     1      -1.055  10.783  19.046  0.00  0.00    +0.000 C 
ENDROOT
BRANCH   1   9
ATOM      7  C   UNL     1       1.921   8.562  18.358  0.00  0.00    +0.000 C 
ATOM      8  O   UNL     1       2.291   8.919  17.216  0.00  0.00    +0.000 OA
ATOM      9  N   UNL     1       1.016   9.297  19.098  0.00  0.00    +0.000 N 
ATOM     10  H   UNL     1       0.684   8.906  19.986  0.00  0.00    +0.000 HD
BRANCH   7  11
ATOM     11  C   UNL     1       2.475   7.277  18.964  0.00  0.00    +0.000 C 
BRANCH  11  12
ATOM     12  C   UNL     1       2.118   6.133  18.029  0.00  0.00    +0.000 C 
BRANCH  12  13
ATOM     13  C   UNL     1       1.829   4.844  18.780  0.00  0.00    +0.000 C 
BRANCH  13  14
ATOM     14  C   UNL     1       3.080   4.302  19.460  0.00  0.00    +0.000 C 
BRANCH  14  15
ATOM     15  C   UNL     1       4.172   4.092  18.422  0.00  0.00    +0.000 C 
BRANCH  15  16
ATOM     16  C   UNL     1       5.546   4.013  19.056  0.00  0.00    +0.000 C 
BRANCH  16  17
ATOM     17  C   UNL     1       6.031   5.420  19.379  0.00  0.00    +0.000 C 
BRANCH  17  18
ATOM     18  C   UNL     1       7.305   5.745  18.616  0.00  0.00    +0.000 C 
BRANCH  18  19
ATOM     19  C   UNL     1       7.632   4.624  17.639  0.00  0.00    +0.000 C 
BRANCH  19  20
ATOM     20  C   UNL     1       7.435   5.087  16.201  0.00  0.00    +0.000 C 
BRANCH  20  21
ATOM     21  C   UNL     1       6.518   4.128  15.451  0.00  0.00    +0.000 C 
BRANCH  21  23
ATOM     22  C   UNL     1       5.188   6.253  15.528  0.00  0.00    +0.000 C 
ATOM     23  C   UNL     1       5.181   4.787  15.129  0.00  0.00    +0.000 C 
ENDBRANCH  21  23
ENDBRANCH  20  21
ENDBRANCH  19  20
ENDBRANCH  18  19
ENDBRANCH  17  18
ENDBRANCH  16  17
ENDBRANCH  15  16
ENDBRANCH  14  15
ENDBRANCH  13  14
ENDBRANCH  12  13
ENDBRANCH  11  12
ENDBRANCH   7  11
ENDBRANCH   1   9
BRANCH   4  24
ATOM     24  C   UNL     1      -0.649  12.389  22.325  0.00  0.00    +0.000 C 
ATOM     25  O   UNL     1      -1.223  13.242  22.988  0.00  0.00    +0.000 OA
BRANCH  24  26
ATOM     26  O   UNL     1      -0.239  11.203  22.871  0.00  0.00    +0.000 OA
ATOM     27  H   UNL     1      -0.792  11.022  23.668  0.00  0.00    +0.000 HD
ENDBRANCH  24  26
ENDBRANCH   4  24
BRANCH   4  28
ATOM     28  O   UNL     1      -1.115  13.603  20.327  0.00  0.00    +0.000 OA
ATOM     29  C   UNL     1      -0.315  14.783  20.184  0.00  0.00    +0.000 C 
ENDBRANCH   4  28
BRANCH   2  30
ATOM     30  O   UNL     1       1.433  12.814  18.034  0.00  0.00    +0.000 OA
ATOM     31  H   UNL     1       0.729  13.463  18.187  0.00  0.00    +0.000 HD
ENDBRANCH   2  30
BRANCH   6  32
ATOM     32  C   UNL     1      -2.092  11.533  18.130  0.00  0.00    +0.000 C 
BRANCH  32  33
ATOM     33  O   UNL     1      -1.383  12.575  17.451  0.00  0.00    +0.000 OA
ATOM     34  H   UNL     1      -1.845  12.749  16.611  0.00  0.00    +0.000 HD
ENDBRANCH  32  33
BRANCH  32  35
ATOM     35  C   UNL     1      -2.823  10.567  17.091  0.00  0.00    +0.000 C 
BRANCH  35  36
ATOM     36  O   UNL     1      -2.119  10.397  15.856  0.00  0.00    +0.000 OA
ATOM     37  H   UNL     1      -2.259  11.201  15.322  0.00  0.00    +0.000 HD
ENDBRANCH  35  36
BRANCH  35  38
ATOM     38  C   UNL     1      -4.258  10.924  16.688  0.00  0.00    +0.000 C 
BRANCH  38  39
ATOM     39  O   UNL     1      -4.532  12.293  16.914  0.00  0.00    +0.000 OA
ATOM     40  H   UNL     1      -4.038  12.791  16.235  0.00  0.00    +0.000 HD
ENDBRANCH  38  39
ENDBRANCH  35  38
ENDBRANCH  32  35
ENDBRANCH   6  32
TORSDOF 23
ENDMDL
MODEL 4
REMARK VINA RESULT:      -6.2      3.678      9.419
REMARK  Name = 
REMARK  25 active torsions:
REMARK  status: ('A' for Active; 'I' for Inactive)
REMARK    1  A    between atoms: C_1  and  C_2
REMARK    2  A    between atoms: C_2  and  C_3
REMARK    3  A    between atoms: C_3  and  C_4
REMARK    4  A    between atoms: C_4  and  C_5
REMARK    5  A    between atoms: C_5  and  C_6
REMARK    6  A    between atoms: C_6  and  C_7
REMARK    7  A    between atoms: C_7  and  C_8
REMARK    8  A    between atoms: C_8  and  C_9
REMARK    9  A    between atoms: C_9  and  C_10
REMARK   10  A    between atoms: C_10  and  C_11
REMARK   11  A    between atoms: C_11  and  C_12
REMARK   12  A    between atoms: C_12  and  C_13
REMARK   13  A    between atoms: C_13  and  C_14
REMARK   14  A    between atoms: N_16  and  C_17
REMARK   15  A    between atoms: C_18  and  O_19
REMARK   16  A    between atoms: C_21  and  O_22
REMARK   17  A    between atoms: C_21  and  C_24
REMARK   18  A    between atoms: O_22  and  C_23
REMARK   19  A    between atoms: C_24  and  O_26
REMARK   20  A    between atoms: C_28  and  C_29
REMARK   21  A    between atoms: C_29  and  O_30
REMARK   22  A    between atoms: C_29  and  C_31
REMARK   23  A    between atoms: C_31  and  O_32
REMARK   24  A    between atoms: C_31  and  C_33
REMARK   25  A    between atoms: C_33  and  O_34
REMARK                            x       y       z     vdW  Elec       q    Type
REMARK                         _______ _______ _______ _____ _____    ______ ____
ROOT
ATOM      1  C   UNL     1       2.797   6.103  19.153  0.00  0.00    +0.000 C 
ATOM      2  C   UNL     1       1.761   4.965  18.950  0.00  0.00    +0.000 C 
ATOM      3  C   UNL     1       2.102   3.640  19.660  0.00  0.00    +0.000 C 
ATOM      4  C   UNL     1       3.596   3.262  19.684  0.00  0.00    +0.000 C 
ATOM      5  O   UNL     1       4.436   4.404  19.956  0.00  0.00    +0.000 OA
ATOM      6  C   UNL     1       4.283   5.588  19.167  0.00  0.00    +0.000 C 
ENDROOT
BRANCH   1   9
ATOM      7  C   UNL     1       1.720   8.021  20.384  0.00  0.00    +0.000 C 
ATOM      8  O   UNL     1       1.317   8.527  19.311  0.00  0.00    +0.000 OA
ATOM      9  N   UNL     1       2.453   6.852  20.414  0.00  0.00    +0.000 N 
ATOM     10  H   UNL     1       2.831   6.539  21.314  0.00  0.00    +0.000 HD
BRANCH   7  11
ATOM     11  C   UNL     1       1.401   8.708  21.708  0.00  0.00    +0.000 C 
BRANCH  11  12
ATOM     12  C   UNL     1      -0.077   9.059  21.704  0.00  0.00    +0.000 C 
BRANCH  12  13
ATOM     13  C   UNL     1      -0.416  10.138  22.719  0.00  0.00    +0.000 C 
BRANCH  13  14
ATOM     14  C   UNL     1      -0.351  11.528  22.097  0.00  0.00    +0.000 C 
BRANCH  14  15
ATOM     15  C   UNL     1      -1.748  11.963  21.679  0.00  0.00    +0.000 C 
BRANCH  15  16
ATOM     16  C   UNL     1      -1.819  12.287  20.200  0.00  0.00    +0.000 C 
BRANCH  16  17
ATOM     17  C   UNL     1      -1.846  10.991  19.403  0.00  0.00    +0.000 C 
BRANCH  17  18
ATOM     18  C   UNL     1      -1.204  11.177  18.038  0.00  0.00    +0.000 C 
BRANCH  18  19
ATOM     19  C   UNL     1      -1.958  10.371  16.989  0.00  0.00    +0.000 C 
BRANCH  19  20
ATOM     20  C   UNL     1      -3.342   9.986  17.497  0.00  0.00    +0.000 C 
BRANCH  20  21
ATOM     21  C   UNL     1      -4.389  10.979  17.005  0.00  0.00    +0.000 C 
BRANCH  21  23
ATOM     22  C   UNL     1      -5.351  12.351  18.871  0.00  0.00    +0.000 C 
ATOM     23  C   UNL     1      -5.529  11.114  18.008  0.00  0.00    +0.000 C 
ENDBRANCH  21  23
ENDBRANCH  20  21
ENDBRANCH  19  20
ENDBRANCH  18  19
ENDBRANCH  17  18
ENDBRANCH  16  17
ENDBRANCH  15  16
ENDBRANCH  14  15
ENDBRANCH  13  14
ENDBRANCH  12  13
ENDBRANCH  11  12
ENDBRANCH   7  11
ENDBRANCH   1   9
BRANCH   4  24
ATOM     24  C   UNL     1       3.982   2.360  20.897  0.00  0.00    +0.000 C 
ATOM     25  O   UNL     1       5.044   1.770  21.041  0.00  0.00    +0.000 OA
BRANCH  24  26
ATOM     26  O   UNL     1       3.031   2.390  21.880  0.00  0.00    +0.000 OA
ATOM     27  H   UNL     1       3.490   2.452  22.752  0.00  0.00    +0.000 HD
ENDBRANCH  24  26
ENDBRANCH   4  24
BRANCH   4  28
ATOM     28  O   UNL     1       4.077   2.564  18.523  0.00  0.00    +0.000 OA
ATOM     29  C   UNL     1       3.136   1.680  17.901  0.00  0.00    +0.000 C 
ENDBRANCH   4  28
BRANCH   2  30
ATOM     30  O   UNL     1       1.449   4.703  17.577  0.00  0.00    +0.000 OA
ATOM     31  H   UNL     1       2.222   4.343  17.114  0.00  0.00    +0.000 HD
ENDBRANCH   2  30
BRANCH   6  32
ATOM     32  C   UNL     1       5.110   5.483  17.832  0.00  0.00    +0.000 C 
BRANCH  32  33
ATOM     33  O   UNL     1       4.353   6.140  16.810  0.00  0.00    +0.000 OA
ATOM     34  H   UNL     1       4.901   6.167  16.006  0.00  0.00    +0.000 HD
ENDBRANCH  32  33
BRANCH  32  35
ATOM     35  C   UNL     1       6.573   6.110  17.952  0.00  0.00    +0.000 C 
BRANCH  35  36
ATOM     36  O   UNL     1       7.004   6.818  16.785  0.00  0.00    +0.000 OA
ATOM     37  H   UNL     1       6.830   7.766  16.931  0.00  0.00    +0.000 HD
ENDBRANCH  35  36
BRANCH  35  38
ATOM     38  C   UNL     1       7.722   5.152  18.286  0.00  0.00    +0.000 C 
BRANCH  38  39
ATOM     39  O   UNL     1       7.914   4.198  17.259  0.00  0.00    +0.000 OA
ATOM     40  H   UNL     1       8.875   4.038  17.205  0.00  0.00    +0.000 HD
ENDBRANCH  38  39
ENDBRANCH  35  38
ENDBRANCH  32  35
ENDBRANCH   6  32
TORSDOF 23
ENDMDL
MODEL 5
REMARK VINA RESULT:      -6.2      4.089      9.732
REMARK  Name = 
REMARK  25 active torsions:
REMARK  status: ('A' for Active; 'I' for Inactive)
REMARK    1  A    between atoms: C_1  and  C_2
REMARK    2  A    between atoms: C_2  and  C_3
REMARK    3  A    between atoms: C_3  and  C_4
REMARK    4  A    between atoms: C_4  and  C_5
REMARK    5  A    between atoms: C_5  and  C_6
REMARK    6  A    between atoms: C_6  and  C_7
REMARK    7  A    between atoms: C_7  and  C_8
REMARK    8  A    between atoms: C_8  and  C_9
REMARK    9  A    between atoms: C_9  and  C_10
REMARK   10  A    between atoms: C_10  and  C_11
REMARK   11  A    between atoms: C_11  and  C_12
REMARK   12  A    between atoms: C_12  and  C_13
REMARK   13  A    between atoms: C_13  and  C_14
REMARK   14  A    between atoms: N_16  and  C_17
REMARK   15  A    between atoms: C_18  and  O_19
REMARK   16  A    between atoms: C_21  and  O_22
REMARK   17  A    between atoms: C_21  and  C_24
REMARK   18  A    between atoms: O_22  and  C_23
REMARK   19  A    between atoms: C_24  and  O_26
REMARK   20  A    between atoms: C_28  and  C_29
REMARK   21  A    between atoms: C_29  and  O_30
REMARK   22  A    between atoms: C_29  and  C_31
REMARK   23  A    between atoms: C_31  and  O_32
REMARK   24  A    between atoms: C_31  and  C_33
REMARK   25  A    between atoms: C_33  and  O_34
REMARK                            x       y       z     vdW  Elec       q    Type
REMARK                         _______ _______ _______ _____ _____    ______ ____
ROOT
ATOM      1  C   UNL     1       3.712   5.687  18.103  0.00  0.00    +0.000 C 
ATOM      2  C   UNL     1       2.712   4.637  17.547  0.00  0.00    +0.000 C 
ATOM      3  C   UNL     1       2.106   3.692  18.603  0.00  0.00    +0.000 C 
ATOM      4  C   UNL     1       3.060   3.254  19.731  0.00  0.00    +0.000 C 
ATOM      5  O   UNL     1       3.877   4.348  20.201  0.00  0.00    +0.000 OA
ATOM      6  C   UNL     1       4.622   5.120  19.254  0.00  0.00    +0.000 C 
ENDROOT
BRANCH   1   9
ATOM      7  C   UNL     1       2.810   8.012  17.737  0.00  0.00    +0.000 C 
ATOM      8  O   UNL     1       3.336   8.073  16.602  0.00  0.00    +0.000 OA
ATOM      9  N   UNL     1       2.941   6.903  18.547  0.00  0.00    +0.000 N 
ATOM     10  H   UNL     1       2.565   6.951  19.500  0.00  0.00    +0.000 HD
BRANCH   7  11
ATOM     11  C   UNL     1       2.000   9.195  18.257  0.00  0.00    +0.000 C 
BRANCH  11  12
ATOM     12  C   UNL     1       1.395   8.791  19.592  0.00  0.00    +0.000 C 
BRANCH  12  13
ATOM     13  C   UNL     1       0.819   9.979  20.345  0.00  0.00    +0.000 C 
BRANCH  13  14
ATOM     14  C   UNL     1      -0.671  10.145  20.070  0.00  0.00    +0.000 C 
BRANCH  14  15
ATOM     15  C   UNL     1      -0.933  11.535  19.512  0.00  0.00    +0.000 C 
BRANCH  15  16
ATOM     16  C   UNL     1      -1.359  11.489  18.058  0.00  0.00    +0.000 C 
BRANCH  16  17
ATOM     17  C   UNL     1      -2.034  10.154  17.775  0.00  0.00    +0.000 C 
BRANCH  17  18
ATOM     18  C   UNL     1      -3.440  10.359  17.233  0.00  0.00    +0.000 C 
BRANCH  18  19
ATOM     19  C   UNL     1      -4.310  11.041  18.280  0.00  0.00    +0.000 C 
BRANCH  19  20
ATOM     20  C   UNL     1      -5.344  11.943  17.618  0.00  0.00    +0.000 C 
BRANCH  20  21
ATOM     21  C   UNL     1      -6.756  11.467  17.940  0.00  0.00    +0.000 C 
BRANCH  21  23
ATOM     22  C   UNL     1      -7.375  11.259  20.361  0.00  0.00    +0.000 C 
ATOM     23  C   UNL     1      -6.760  10.556  19.163  0.00  0.00    +0.000 C 
ENDBRANCH  21  23
ENDBRANCH  20  21
ENDBRANCH  19  20
ENDBRANCH  18  19
ENDBRANCH  17  18
ENDBRANCH  16  17
ENDBRANCH  15  16
ENDBRANCH  14  15
ENDBRANCH  13  14
ENDBRANCH  12  13
ENDBRANCH  11  12
ENDBRANCH   7  11
ENDBRANCH   1   9
BRANCH   4  24
ATOM     24  C   UNL     1       2.321   2.894  21.056  0.00  0.00    +0.000 C 
ATOM     25  O   UNL     1       2.850   2.511  22.091  0.00  0.00    +0.000 OA
BRANCH  24  26
ATOM     26  O   UNL     1       0.983   3.173  20.988  0.00  0.00    +0.000 OA
ATOM     27  H   UNL     1       0.562   2.518  20.380  0.00  0.00    +0.000 HD
ENDBRANCH  24  26
ENDBRANCH   4  24
BRANCH   4  28
ATOM     28  O   UNL     1       3.887   2.116  19.436  0.00  0.00    +0.000 OA
ATOM     29  C   UNL     1       3.403   1.254  18.398  0.00  0.00    +0.000 C 
ENDBRANCH   4  28
BRANCH   2  30
ATOM     30  O   UNL     1       3.228   3.866  16.456  0.00  0.00    +0.000 OA
ATOM     31  H   UNL     1       3.240   2.923  16.681  0.00  0.00    +0.000 HD
ENDBRANCH   2  30
BRANCH   6  32
ATOM     32  C   UNL     1       5.998   4.429  18.925  0.00  0.00    +0.000 C 
BRANCH  32  33
ATOM     33  O   UNL     1       5.855   3.783  17.656  0.00  0.00    +0.000 OA
ATOM     34  H   UNL     1       6.365   2.954  17.687  0.00  0.00    +0.000 HD
ENDBRANCH  32  33
BRANCH  32  35
ATOM     35  C   UNL     1       7.223   5.452  18.912  0.00  0.00    +0.000 C 
BRANCH  35  36
ATOM     36  O   UNL     1       7.566   5.969  20.202  0.00  0.00    +0.000 OA
ATOM     37  H   UNL     1       7.238   5.340  20.871  0.00  0.00    +0.000 HD
ENDBRANCH  35  36
BRANCH  35  38
ATOM     38  C   UNL     1       7.102   6.682  18.007  0.00  0.00    +0.000 C 
BRANCH  38  39
ATOM     39  O   UNL     1       7.436   6.373  16.667  0.00  0.00    +0.000 OA
ATOM     40  H   UNL     1       6.770   6.814  16.106  0.00  0.00    +0.000 HD
ENDBRANCH  38  39
ENDBRANCH  35  38
ENDBRANCH  32  35
ENDBRANCH   6  32
TORSDOF 23
ENDMDL
MODEL 6
REMARK VINA RESULT:      -6.2      1.157      1.426
REMARK  Name = 
REMARK  25 active torsions:
REMARK  status: ('A' for Active; 'I' for Inactive)
REMARK    1  A    between atoms: C_1  and  C_2
REMARK    2  A    between atoms: C_2  and  C_3
REMARK    3  A    between atoms: C_3  and  C_4
REMARK    4  A    between atoms: C_4  and  C_5
REMARK    5  A    between atoms: C_5  and  C_6
REMARK    6  A    between atoms: C_6  and  C_7
REMARK    7  A    between atoms: C_7  and  C_8
REMARK    8  A    between atoms: C_8  and  C_9
REMARK    9  A    between atoms: C_9  and  C_10
REMARK   10  A    between atoms: C_10  and  C_11
REMARK   11  A    between atoms: C_11  and  C_12
REMARK   12  A    between atoms: C_12  and  C_13
REMARK   13  A    between atoms: C_13  and  C_14
REMARK   14  A    between atoms: N_16  and  C_17
REMARK   15  A    between atoms: C_18  and  O_19
REMARK   16  A    between atoms: C_21  and  O_22
REMARK   17  A    between atoms: C_21  and  C_24
REMARK   18  A    between atoms: O_22  and  C_23
REMARK   19  A    between atoms: C_24  and  O_26
REMARK   20  A    between atoms: C_28  and  C_29
REMARK   21  A    between atoms: C_29  and  O_30
REMARK   22  A    between atoms: C_29  and  C_31
REMARK   23  A    between atoms: C_31  and  O_32
REMARK   24  A    between atoms: C_31  and  C_33
REMARK   25  A    between atoms: C_33  and  O_34
REMARK                            x       y       z     vdW  Elec       q    Type
REMARK                         _______ _______ _______ _____ _____    ______ ____
ROOT
ATOM      1  C   UNL     1       0.740  11.250  18.795  0.00  0.00    +0.000 C 
ATOM      2  C   UNL     1       1.215  12.440  19.671  0.00  0.00    +0.000 C 
ATOM      3  C   UNL     1       0.663  12.451  21.110  0.00  0.00    +0.000 C 
ATOM      4  C   UNL     1      -0.795  11.976  21.267  0.00  0.00    +0.000 C 
ATOM      5  O   UNL     1      -1.074  10.817  20.451  0.00  0.00    +0.000 OA
ATOM      6  C   UNL     1      -0.760  10.855  19.055  0.00  0.00    +0.000 C 
ENDROOT
BRANCH   1   9
ATOM      7  C   UNL     1       1.724   9.026  18.130  0.00  0.00    +0.000 C 
ATOM      8  O   UNL     1       0.995   8.971  17.113  0.00  0.00    +0.000 OA
ATOM      9  N   UNL     1       1.670  10.086  19.014  0.00  0.00    +0.000 N 
ATOM     10  H   UNL     1       2.226  10.028  19.873  0.00  0.00    +0.000 HD
BRANCH   7  11
ATOM     11  C   UNL     1       2.705   7.895  18.417  0.00  0.00    +0.000 C 
BRANCH  11  12
ATOM     12  C   UNL     1       2.244   7.191  19.682  0.00  0.00    +0.000 C 
BRANCH  12  13
ATOM     13  C   UNL     1       1.764   5.775  19.411  0.00  0.00    +0.000 C 
BRANCH  13  14
ATOM     14  C   UNL     1       1.619   4.979  20.702  0.00  0.00    +0.000 C 
BRANCH  14  15
ATOM     15  C   UNL     1       1.103   3.583  20.383  0.00  0.00    +0.000 C 
BRANCH  15  16
ATOM     16  C   UNL     1       1.340   3.211  18.934  0.00  0.00    +0.000 C 
BRANCH  16  17
ATOM     17  C   UNL     1       2.500   2.229  18.850  0.00  0.00    +0.000 C 
BRANCH  17  18
ATOM     18  C   UNL     1       3.690   2.851  18.138  0.00  0.00    +0.000 C 
BRANCH  18  19
ATOM     19  C   UNL     1       4.683   3.396  19.155  0.00  0.00    +0.000 C 
BRANCH  19  20
ATOM     20  C   UNL     1       5.172   4.780  18.745  0.00  0.00    +0.000 C 
BRANCH  20  21
ATOM     21  C   UNL     1       6.477   4.678  17.966  0.00  0.00    +0.000 C 
BRANCH  21  23
ATOM     22  C   UNL     1       5.069   5.874  16.270  0.00  0.00    +0.000 C 
ATOM     23  C   UNL     1       6.251   4.944  16.482  0.00  0.00    +0.000 C 
ENDBRANCH  21  23
ENDBRANCH  20  21
ENDBRANCH  19  20
ENDBRANCH  18  19
ENDBRANCH  17  18
ENDBRANCH  16  17
ENDBRANCH  15  16
ENDBRANCH  14  15
ENDBRANCH  13  14
ENDBRANCH  12  13
ENDBRANCH  11  12
ENDBRANCH   7  11
ENDBRANCH   1   9
BRANCH   4  24
ATOM     24  C   UNL     1      -1.097  11.378  22.676  0.00  0.00    +0.000 C 
ATOM     25  O   UNL     1      -2.148  11.493  23.292  0.00  0.00    +0.000 OA
BRANCH  24  26
ATOM     26  O   UNL     1      -0.079  10.581  23.124  0.00  0.00    +0.000 OA
ATOM     27  H   UNL     1      -0.421  10.032  23.869  0.00  0.00    +0.000 HD
ENDBRANCH  24  26
ENDBRANCH   4  24
BRANCH   4  28
ATOM     28  O   UNL     1      -1.801  12.979  21.056  0.00  0.00    +0.000 OA
ATOM     29  C   UNL     1      -1.443  14.307  21.461  0.00  0.00    +0.000 C 
ENDBRANCH   4  28
BRANCH   2  30
ATOM     30  O   UNL     1       1.006  13.723  19.069  0.00  0.00    +0.000 OA
ATOM     31  H   UNL     1       0.089  13.811  18.765  0.00  0.00    +0.000 HD
ENDBRANCH   2  30
BRANCH   6  32
ATOM     32  C   UNL     1      -1.923  11.530  18.236  0.00  0.00    +0.000 C 
BRANCH  32  33
ATOM     33  O   UNL     1      -1.349  12.613  17.497  0.00  0.00    +0.000 OA
ATOM     34  H   UNL     1      -2.064  13.039  16.993  0.00  0.00    +0.000 HD
ENDBRANCH  32  33
BRANCH  32  35
ATOM     35  C   UNL     1      -2.677  10.512  17.266  0.00  0.00    +0.000 C 
BRANCH  35  36
ATOM     36  O   UNL     1      -1.805   9.763  16.413  0.00  0.00    +0.000 OA
ATOM     37  H   UNL     1      -1.388  10.388  15.792  0.00  0.00    +0.000 HD
ENDBRANCH  35  36
BRANCH  35  38
ATOM     38  C   UNL     1      -3.748  11.090  16.335  0.00  0.00    +0.000 C 
BRANCH  38  39
ATOM     39  O   UNL     1      -4.416  12.185  16.933  0.00  0.00    +0.000 OA
ATOM     40  H   UNL     1      -5.267  11.842  17.266  0.00  0.00    +0.000 HD
ENDBRANCH  38  39
ENDBRANCH  35  38
ENDBRANCH  32  35
ENDBRANCH   6  32
TORSDOF 23
ENDMDL
MODEL 7
REMARK VINA RESULT:      -6.2      3.721      9.393
REMARK  Name = 
REMARK  25 active torsions:
REMARK  status: ('A' for Active; 'I' for Inactive)
REMARK    1  A    between atoms: C_1  and  C_2
REMARK    2  A    between atoms: C_2  and  C_3
REMARK    3  A    between atoms: C_3  and  C_4
REMARK    4  A    between atoms: C_4  and  C_5
REMARK    5  A    between atoms: C_5  and  C_6
REMARK    6  A    between atoms: C_6  and  C_7
REMARK    7  A    between atoms: C_7  and  C_8
REMARK    8  A    between atoms: C_8  and  C_9
REMARK    9  A    between atoms: C_9  and  C_10
REMARK   10  A    between atoms: C_10  and  C_11
REMARK   11  A    between atoms: C_11  and  C_12
REMARK   12  A    between atoms: C_12  and  C_13
REMARK   13  A    between atoms: C_13  and  C_14
REMARK   14  A    between atoms: N_16  and  C_17
REMARK   15  A    between atoms: C_18  and  O_19
REMARK   16  A    between atoms: C_21  and  O_22
REMARK   17  A    between atoms: C_21  and  C_24
REMARK   18  A    between atoms: O_22  and  C_23
REMARK   19  A    between atoms: C_24  and  O_26
REMARK   20  A    between atoms: C_28  and  C_29
REMARK   21  A    between atoms: C_29  and  O_30
REMARK   22  A    between atoms: C_29  and  C_31
REMARK   23  A    between atoms: C_31  and  O_32
REMARK   24  A    between atoms: C_31  and  C_33
REMARK   25  A    between atoms: C_33  and  O_34
REMARK                            x       y       z     vdW  Elec       q    Type
REMARK                         _______ _______ _______ _____ _____    ______ ____
ROOT
ATOM      1  C   UNL     1       2.685   6.110  19.063  0.00  0.00    +0.000 C 
ATOM      2  C   UNL     1       1.713   4.925  18.814  0.00  0.00    +0.000 C 
ATOM      3  C   UNL     1       2.130   3.593  19.469  0.00  0.00    +0.000 C 
ATOM      4  C   UNL     1       3.642   3.297  19.474  0.00  0.00    +0.000 C 
ATOM      5  O   UNL     1       4.419   4.472  19.793  0.00  0.00    +0.000 OA
ATOM      6  C   UNL     1       4.197   5.678  19.054  0.00  0.00    +0.000 C 
ENDROOT
BRANCH   1   9
ATOM      7  C   UNL     1       1.745   8.046  20.374  0.00  0.00    +0.000 C 
ATOM      8  O   UNL     1       1.538   8.699  19.325  0.00  0.00    +0.000 OA
ATOM      9  N   UNL     1       2.305   6.785  20.355  0.00  0.00    +0.000 N 
ATOM     10  H   UNL     1       2.533   6.342  21.251  0.00  0.00    +0.000 HD
BRANCH   7  11
ATOM     11  C   UNL     1       1.374   8.652  21.724  0.00  0.00    +0.000 C 
BRANCH  11  12
ATOM     12  C   UNL     1       0.974  10.099  21.489  0.00  0.00    +0.000 C 
BRANCH  12  13
ATOM     13  C   UNL     1      -0.526  10.309  21.618  0.00  0.00    +0.000 C 
BRANCH  13  14
ATOM     14  C   UNL     1      -0.956  10.375  23.079  0.00  0.00    +0.000 C 
BRANCH  14  15
ATOM     15  C   UNL     1      -1.814  11.611  23.301  0.00  0.00    +0.000 C 
BRANCH  15  16
ATOM     16  C   UNL     1      -1.603  12.647  22.216  0.00  0.00    +0.000 C 
BRANCH  16  17
ATOM     17  C   UNL     1      -0.843  13.833  22.793  0.00  0.00    +0.000 C 
BRANCH  17  18
ATOM     18  C   UNL     1      -0.154  14.626  21.695  0.00  0.00    +0.000 C 
BRANCH  18  19
ATOM     19  C   UNL     1       0.021  13.760  20.455  0.00  0.00    +0.000 C 
BRANCH  19  20
ATOM     20  C   UNL     1       1.488  13.400  20.250  0.00  0.00    +0.000 C 
BRANCH  20  21
ATOM     21  C   UNL     1       1.677  12.644  18.941  0.00  0.00    +0.000 C 
BRANCH  21  23
ATOM     22  C   UNL     1       3.161  14.638  18.613  0.00  0.00    +0.000 C 
ATOM     23  C   UNL     1       2.815  13.244  18.121  0.00  0.00    +0.000 C 
ENDBRANCH  21  23
ENDBRANCH  20  21
ENDBRANCH  19  20
ENDBRANCH  18  19
ENDBRANCH  17  18
ENDBRANCH  16  17
ENDBRANCH  15  16
ENDBRANCH  14  15
ENDBRANCH  13  14
ENDBRANCH  12  13
ENDBRANCH  11  12
ENDBRANCH   7  11
ENDBRANCH   1   9
BRANCH   4  24
ATOM     24  C   UNL     1       4.083   2.369  20.648  0.00  0.00    +0.000 C 
ATOM     25  O   UNL     1       3.445   2.154  21.669  0.00  0.00    +0.000 OA
BRANCH  24  26
ATOM     26  O   UNL     1       5.241   1.699  20.364  0.00  0.00    +0.000 OA
ATOM     27  H   UNL     1       5.570   1.283  21.196  0.00  0.00    +0.000 HD
ENDBRANCH  24  26
ENDBRANCH   4  24
BRANCH   4  28
ATOM     28  O   UNL     1       4.157   2.677  18.285  0.00  0.00    +0.000 OA
ATOM     29  C   UNL     1       3.256   1.786  17.614  0.00  0.00    +0.000 C 
ENDBRANCH   4  28
BRANCH   2  30
ATOM     30  O   UNL     1       1.411   4.704  17.432  0.00  0.00    +0.000 OA
ATOM     31  H   UNL     1       0.724   5.319  17.131  0.00  0.00    +0.000 HD
ENDBRANCH   2  30
BRANCH   6  32
ATOM     32  C   UNL     1       5.024   5.675  17.714  0.00  0.00    +0.000 C 
BRANCH  32  33
ATOM     33  O   UNL     1       4.950   6.995  17.166  0.00  0.00    +0.000 OA
ATOM     34  H   UNL     1       4.726   6.912  16.223  0.00  0.00    +0.000 HD
ENDBRANCH  32  33
BRANCH  32  35
ATOM     35  C   UNL     1       6.541   5.223  17.917  0.00  0.00    +0.000 C 
BRANCH  35  36
ATOM     36  O   UNL     1       6.693   3.882  18.393  0.00  0.00    +0.000 OA
ATOM     37  H   UNL     1       7.047   3.345  17.661  0.00  0.00    +0.000 HD
ENDBRANCH  35  36
BRANCH  35  38
ATOM     38  C   UNL     1       7.411   6.078  18.845  0.00  0.00    +0.000 C 
BRANCH  38  39
ATOM     39  O   UNL     1       7.542   5.484  20.123  0.00  0.00    +0.000 OA
ATOM     40  H   UNL     1       7.270   4.552  20.025  0.00  0.00    +0.000 HD
ENDBRANCH  38  39
ENDBRANCH  35  38
ENDBRANCH  32  35
ENDBRANCH   6  32
TORSDOF 23
ENDMDL
MODEL 8
REMARK VINA RESULT:      -6.2      3.654      9.527
REMARK  Name = 
REMARK  25 active torsions:
REMARK  status: ('A' for Active; 'I' for Inactive)
REMARK    1  A    between atoms: C_1  and  C_2
REMARK    2  A    between atoms: C_2  and  C_3
REMARK    3  A    between atoms: C_3  and  C_4
REMARK    4  A    between atoms: C_4  and  C_5
REMARK    5  A    between atoms: C_5  and  C_6
REMARK    6  A    between atoms: C_6  and  C_7
REMARK    7  A    between atoms: C_7  and  C_8
REMARK    8  A    between atoms: C_8  and  C_9
REMARK    9  A    between atoms: C_9  and  C_10
REMARK   10  A    between atoms: C_10  and  C_11
REMARK   11  A    between atoms: C_11  and  C_12
REMARK   12  A    between atoms: C_12  and  C_13
REMARK   13  A    between atoms: C_13  and  C_14
REMARK   14  A    between atoms: N_16  and  C_17
REMARK   15  A    between atoms: C_18  and  O_19
REMARK   16  A    between atoms: C_21  and  O_22
REMARK   17  A    between atoms: C_21  and  C_24
REMARK   18  A    between atoms: O_22  and  C_23
REMARK   19  A    between atoms: C_24  and  O_26
REMARK   20  A    between atoms: C_28  and  C_29
REMARK   21  A    between atoms: C_29  and  O_30
REMARK   22  A    between atoms: C_29  and  C_31
REMARK   23  A    between atoms: C_31  and  O_32
REMARK   24  A    between atoms: C_31  and  C_33
REMARK   25  A    between atoms: C_33  and  O_34
REMARK                            x       y       z     vdW  Elec       q    Type
REMARK                         _______ _______ _______ _____ _____    ______ ____
ROOT
ATOM      1  C   UNL     1       2.718   6.189  19.226  0.00  0.00    +0.000 C 
ATOM      2  C   UNL     1       1.730   5.024  18.946  0.00  0.00    +0.000 C 
ATOM      3  C   UNL     1       2.099   3.684  19.612  0.00  0.00    +0.000 C 
ATOM      4  C   UNL     1       3.604   3.358  19.663  0.00  0.00    +0.000 C 
ATOM      5  O   UNL     1       4.395   4.517  20.006  0.00  0.00    +0.000 OA
ATOM      6  C   UNL     1       4.220   5.726  19.262  0.00  0.00    +0.000 C 
ENDROOT
BRANCH   1   9
ATOM      7  C   UNL     1       1.676   8.097  20.502  0.00  0.00    +0.000 C 
ATOM      8  O   UNL     1       1.418   8.709  19.440  0.00  0.00    +0.000 OA
ATOM      9  N   UNL     1       2.312   6.872  20.506  0.00  0.00    +0.000 N 
ATOM     10  H   UNL     1       2.578   6.466  21.409  0.00  0.00    +0.000 HD
BRANCH   7  11
ATOM     11  C   UNL     1       1.286   8.712  21.842  0.00  0.00    +0.000 C 
BRANCH  11  12
ATOM     12  C   UNL     1       0.269   9.808  21.569  0.00  0.00    +0.000 C 
BRANCH  12  13
ATOM     13  C   UNL     1      -0.474  10.230  22.826  0.00  0.00    +0.000 C 
BRANCH  13  14
ATOM     14  C   UNL     1      -1.018  11.648  22.704  0.00  0.00    +0.000 C 
BRANCH  14  15
ATOM     15  C   UNL     1      -2.406  11.716  23.322  0.00  0.00    +0.000 C 
BRANCH  15  16
ATOM     16  C   UNL     1      -2.999  13.107  23.229  0.00  0.00    +0.000 C 
BRANCH  16  17
ATOM     17  C   UNL     1      -2.613  13.728  21.894  0.00  0.00    +0.000 C 
BRANCH  17  18
ATOM     18  C   UNL     1      -3.751  13.618  20.892  0.00  0.00    +0.000 C 
BRANCH  18  19
ATOM     19  C   UNL     1      -3.428  12.561  19.846  0.00  0.00    +0.000 C 
BRANCH  19  20
ATOM     20  C   UNL     1      -1.934  12.537  19.546  0.00  0.00    +0.000 C 
BRANCH  20  21
ATOM     21  C   UNL     1      -1.671  11.894  18.190  0.00  0.00    +0.000 C 
BRANCH  21  23
ATOM     22  C   UNL     1      -2.688   9.795  17.269  0.00  0.00    +0.000 C 
ATOM     23  C   UNL     1      -2.936  11.248  17.635  0.00  0.00    +0.000 C 
ENDBRANCH  21  23
ENDBRANCH  20  21
ENDBRANCH  19  20
ENDBRANCH  18  19
ENDBRANCH  17  18
ENDBRANCH  16  17
ENDBRANCH  15  16
ENDBRANCH  14  15
ENDBRANCH  13  14
ENDBRANCH  12  13
ENDBRANCH  11  12
ENDBRANCH   7  11
ENDBRANCH   1   9
BRANCH   4  24
ATOM     24  C   UNL     1       3.990   2.421  20.850  0.00  0.00    +0.000 C 
ATOM     25  O   UNL     1       5.048   1.819  20.972  0.00  0.00    +0.000 OA
BRANCH  24  26
ATOM     26  O   UNL     1       3.043   2.430  21.837  0.00  0.00    +0.000 OA
ATOM     27  H   UNL     1       2.372   3.118  21.616  0.00  0.00    +0.000 HD
ENDBRANCH  24  26
ENDBRANCH   4  24
BRANCH   4  28
ATOM     28  O   UNL     1       4.142   2.727  18.490  0.00  0.00    +0.000 OA
ATOM     29  C   UNL     1       3.322   1.705  17.908  0.00  0.00    +0.000 C 
ENDBRANCH   4  28
BRANCH   2  30
ATOM     30  O   UNL     1       1.465   4.810  17.556  0.00  0.00    +0.000 OA
ATOM     31  H   UNL     1       2.294   4.720  17.060  0.00  0.00    +0.000 HD
ENDBRANCH   2  30
BRANCH   6  32
ATOM     32  C   UNL     1       5.087   5.706  17.947  0.00  0.00    +0.000 C 
BRANCH  32  33
ATOM     33  O   UNL     1       4.309   6.322  16.916  0.00  0.00    +0.000 OA
ATOM     34  H   UNL     1       4.474   7.281  16.953  0.00  0.00    +0.000 HD
ENDBRANCH  32  33
BRANCH  32  35
ATOM     35  C   UNL     1       6.495   6.438  18.117  0.00  0.00    +0.000 C 
BRANCH  35  36
ATOM     36  O   UNL     1       7.004   7.014  16.909  0.00  0.00    +0.000 OA
ATOM     37  H   UNL     1       6.417   6.740  16.180  0.00  0.00    +0.000 HD
ENDBRANCH  35  36
BRANCH  35  38
ATOM     38  C   UNL     1       7.654   5.610  18.683  0.00  0.00    +0.000 C 
BRANCH  38  39
ATOM     39  O   UNL     1       7.537   5.448  20.084  0.00  0.00    +0.000 OA
ATOM     40  H   UNL     1       7.782   6.304  20.484  0.00  0.00    +0.000 HD
ENDBRANCH  38  39
ENDBRANCH  35  38
ENDBRANCH  32  35
ENDBRANCH   6  32
TORSDOF 23
ENDMDL
MODEL 9
REMARK VINA RESULT:      -6.2      1.198      1.425
REMARK  Name = 
REMARK  25 active torsions:
REMARK  status: ('A' for Active; 'I' for Inactive)
REMARK    1  A    between atoms: C_1  and  C_2
REMARK    2  A    between atoms: C_2  and  C_3
REMARK    3  A    between atoms: C_3  and  C_4
REMARK    4  A    between atoms: C_4  and  C_5
REMARK    5  A    between atoms: C_5  and  C_6
REMARK    6  A    between atoms: C_6  and  C_7
REMARK    7  A    between atoms: C_7  and  C_8
REMARK    8  A    between atoms: C_8  and  C_9
REMARK    9  A    between atoms: C_9  and  C_10
REMARK   10  A    between atoms: C_10  and  C_11
REMARK   11  A    between atoms: C_11  and  C_12
REMARK   12  A    between atoms: C_12  and  C_13
REMARK   13  A    between atoms: C_13  and  C_14
REMARK   14  A    between atoms: N_16  and  C_17
REMARK   15  A    between atoms: C_18  and  O_19
REMARK   16  A    between atoms: C_21  and  O_22
REMARK   17  A    between atoms: C_21  and  C_24
REMARK   18  A    between atoms: O_22  and  C_23
REMARK   19  A    between atoms: C_24  and  O_26
REMARK   20  A    between atoms: C_28  and  C_29
REMARK   21  A    between atoms: C_29  and  O_30
REMARK   22  A    between atoms: C_29  and  C_31
REMARK   23  A    between atoms: C_31  and  O_32
REMARK   24  A    between atoms: C_31  and  C_33
REMARK   25  A    between atoms: C_33  and  O_34
REMARK                            x       y       z     vdW  Elec       q    Type
REMARK                         _______ _______ _______ _____ _____    ______ ____
ROOT
ATOM      1  C   UNL     1       0.718  10.766  18.652  0.00  0.00    +0.000 C 
ATOM      2  C   UNL     1       1.624  11.983  18.980  0.00  0.00    +0.000 C 
ATOM      3  C   UNL     1       1.324  12.673  20.325  0.00  0.00    +0.000 C 
ATOM      4  C   UNL     1      -0.164  12.755  20.715  0.00  0.00    +0.000 C 
ATOM      5  O   UNL     1      -0.866  11.528  20.421  0.00  0.00    +0.000 OA
ATOM      6  C   UNL     1      -0.774  10.968  19.107  0.00  0.00    +0.000 C 
ENDROOT
BRANCH   1   9
ATOM      7  C   UNL     1       1.998   8.600  18.497  0.00  0.00    +0.000 C 
ATOM      8  O   UNL     1       2.125   8.726  17.257  0.00  0.00    +0.000 OA
ATOM      9  N   UNL     1       1.326   9.530  19.263  0.00  0.00    +0.000 N 
ATOM     10  H   UNL     1       1.177   9.324  20.256  0.00  0.00    +0.000 HD
BRANCH   7  11
ATOM     11  C   UNL     1       2.598   7.385  19.196  0.00  0.00    +0.000 C 
BRANCH  11  12
ATOM     12  C   UNL     1       1.592   6.901  20.228  0.00  0.00    +0.000 C 
BRANCH  12  13
ATOM     13  C   UNL     1       1.930   5.517  20.756  0.00  0.00    +0.000 C 
BRANCH  13  14
ATOM     14  C   UNL     1       1.066   4.445  20.102  0.00  0.00    +0.000 C 
BRANCH  14  15
ATOM     15  C   UNL     1       1.952   3.488  19.318  0.00  0.00    +0.000 C 
BRANCH  15  16
ATOM     16  C   UNL     1       2.170   3.958  17.894  0.00  0.00    +0.000 C 
BRANCH  16  17
ATOM     17  C   UNL     1       3.639   3.792  17.530  0.00  0.00    +0.000 C 
BRANCH  17  18
ATOM     18  C   UNL     1       4.526   3.959  18.754  0.00  0.00    +0.000 C 
BRANCH  18  19
ATOM     19  C   UNL     1       5.564   5.045  18.505  0.00  0.00    +0.000 C 
BRANCH  19  20
ATOM     20  C   UNL     1       6.533   4.624  17.407  0.00  0.00    +0.000 C 
BRANCH  20  21
ATOM     21  C   UNL     1       6.528   5.639  16.270  0.00  0.00    +0.000 C 
BRANCH  21  23
ATOM     22  C   UNL     1       5.578   4.265  14.400  0.00  0.00    +0.000 C 
ATOM     23  C   UNL     1       6.816   4.965  14.933  0.00  0.00    +0.000 C 
ENDBRANCH  21  23
ENDBRANCH  20  21
ENDBRANCH  19  20
ENDBRANCH  18  19
ENDBRANCH  17  18
ENDBRANCH  16  17
ENDBRANCH  15  16
ENDBRANCH  14  15
ENDBRANCH  13  14
ENDBRANCH  12  13
ENDBRANCH  11  12
ENDBRANCH   7  11
ENDBRANCH   1   9
BRANCH   4  24
ATOM     24  C   UNL     1      -0.392  12.821  22.257  0.00  0.00    +0.000 C 
ATOM     25  O   UNL     1      -0.666  13.826  22.898  0.00  0.00    +0.000 OA
BRANCH  24  26
ATOM     26  O   UNL     1      -0.375  11.579  22.831  0.00  0.00    +0.000 OA
ATOM     27  H   UNL     1      -1.097  11.539  23.503  0.00  0.00    +0.000 HD
ENDBRANCH  24  26
ENDBRANCH   4  24
BRANCH   4  28
ATOM     28  O   UNL     1      -0.886  13.874  20.176  0.00  0.00    +0.000 OA
ATOM     29  C   UNL     1      -0.110  15.058  19.950  0.00  0.00    +0.000 C 
ENDBRANCH   4  28
BRANCH   2  30
ATOM     30  O   UNL     1       1.673  12.966  17.939  0.00  0.00    +0.000 OA
ATOM     31  H   UNL     1       2.576  13.050  17.593  0.00  0.00    +0.000 HD
ENDBRANCH   2  30
BRANCH   6  32
ATOM     32  C   UNL     1      -1.827  11.629  18.141  0.00  0.00    +0.000 C 
BRANCH  32  33
ATOM     33  O   UNL     1      -1.139  12.629  17.383  0.00  0.00    +0.000 OA
ATOM     34  H   UNL     1      -0.299  12.244  17.078  0.00  0.00    +0.000 HD
ENDBRANCH  32  33
BRANCH  32  35
ATOM     35  C   UNL     1      -2.542  10.574  17.180  0.00  0.00    +0.000 C 
BRANCH  35  36
ATOM     36  O   UNL     1      -2.259  10.764  15.790  0.00  0.00    +0.000 OA
ATOM     37  H   UNL     1      -2.291   9.891  15.359  0.00  0.00    +0.000 HD
ENDBRANCH  35  36
BRANCH  35  38
ATOM     38  C   UNL     1      -4.068  10.467  17.267  0.00  0.00    +0.000 C 
BRANCH  38  39
ATOM     39  O   UNL     1      -4.700  11.293  16.307  0.00  0.00    +0.000 OA
ATOM     40  H   UNL     1      -4.110  11.317  15.530  0.00  0.00    +0.000 HD
ENDBRANCH  38  39
ENDBRANCH  35  38
ENDBRANCH  32  35
ENDBRANCH   6  32
TORSDOF 23
ENDMDL
