MODEL 1
REMARK VINA RESULT:      -7.3      0.000      0.000
REMARK  Name = 
REMARK  7 active torsions:
REMARK  status: ('A' for Active; 'I' for Inactive)
REMARK    1  A    between atoms: C_1  and  O_2
REMARK    2  A    between atoms: O_2  and  C_3
REMARK    3  A    between atoms: C_7  and  S_8
REMARK    4  A    between atoms: S_8  and  C_11
REMARK    5  A    between atoms: C_11  and  C_12
REMARK    6  A    between atoms: C_12  and  N_13
REMARK    7  A    between atoms: C_16  and  O_17
REMARK                            x       y       z     vdW  Elec       q    Type
REMARK                         _______ _______ _______ _____ _____    ______ ____
ROOT
ATOM      1  S   UNL     1       6.966   5.130  16.287  0.00  0.00    +0.000 S 
ATOM      2  O   UNL     1       7.901   4.185  16.872  0.00  0.00    +0.000 OA
ATOM      3  O   UNL     1       7.140   6.554  16.474  0.00  0.00    +0.000 OA
ENDROOT
BRANCH   1   8
ATOM      4  C   UNL     1       6.145   3.540  12.652  0.00  0.00    +0.000 A 
ATOM      5  C   UNL     1       7.018   4.247  11.820  0.00  0.00    +0.000 A 
ATOM      6  C   UNL     1       7.867   5.224  12.345  0.00  0.00    +0.000 A 
ATOM      7  C   UNL     1       7.840   5.510  13.707  0.00  0.00    +0.000 A 
ATOM      8  C   UNL     1       6.943   4.824  14.532  0.00  0.00    +0.000 A 
ATOM      9  C   UNL     1       6.093   3.841  14.013  0.00  0.00    +0.000 A 
BRANCH   4  11
ATOM     10  C   UNL     1       4.255   3.087  11.310  0.00  0.00    +0.000 C 
ATOM     11  O   UNL     1       5.383   2.592  12.025  0.00  0.00    +0.000 OA
ENDBRANCH   4  11
ENDBRANCH   1   8
BRANCH   1  12
ATOM     12  C   UNL     1       5.327   4.679  16.807  0.00  0.00    +0.000 C 
BRANCH  12  13
ATOM     13  C   UNL     1       5.319   4.324  18.293  0.00  0.00    +0.000 C 
BRANCH  13  14
ATOM     14  N   UNL     1       3.958   4.163  18.857  0.00  0.00    +0.000 NA
ATOM     15  C   UNL     1       3.908   2.949  19.695  0.00  0.00    +0.000 C 
ATOM     16  C   UNL     1       2.541   2.780  20.360  0.00  0.00    +0.000 C 
ATOM     17  C   UNL     1       1.405   2.798  19.343  0.00  0.00    +0.000 C 
ATOM     18  C   UNL     1       1.523   3.996  18.412  0.00  0.00    +0.000 C 
ATOM     19  C   UNL     1       2.923   4.121  17.814  0.00  0.00    +0.000 C 
BRANCH  17  20
ATOM     20  O   UNL     1       1.381   1.584  18.592  0.00  0.00    +0.000 OA
ATOM     21  H   UNL     1       1.213   0.842  19.195  0.00  0.00    +0.000 HD
ENDBRANCH  17  20
ENDBRANCH  13  14
ENDBRANCH  12  13
ENDBRANCH   1  12
TORSDOF 6
ENDMDL
MODEL 2
REMARK VINA RESULT:      -7.0      1.159      1.556
REMARK  Name = 
REMARK  7 active torsions:
REMARK  status: ('A' for Active; 'I' for Inactive)
REMARK    1  A    between atoms: C_1  and  O_2
REMARK    2  A    between atoms: O_2  and  C_3
REMARK    3  A    between atoms: C_7  and  S_8
REMARK    4  A    between atoms: S_8  and  C_11
REMARK    5  A    between atoms: C_11  and  C_12
REMARK    6  A    between atoms: C_12  and  N_13
REMARK    7  A    between atoms: C_16  and  O_17
REMARK                            x       y       z     vdW  Elec       q    Type
REMARK                         _______ _______ _______ _____ _____    ______ ____
ROOT
ATOM      1  S   UNL     1       6.458   4.999  16.118  0.00  0.00    +0.000 S 
ATOM      2  O   UNL     1       7.702   4.613  16.760  0.00  0.00    +0.000 OA
ATOM      3  O   UNL     1       5.936   6.341  16.263  0.00  0.00    +0.000 OA
ENDROOT
BRANCH   1   8
ATOM      4  C   UNL     1       6.087   3.405  12.412  0.00  0.00    +0.000 A 
ATOM      5  C   UNL     1       7.059   4.108  11.694  0.00  0.00    +0.000 A 
ATOM      6  C   UNL     1       7.840   5.083  12.318  0.00  0.00    +0.000 A 
ATOM      7  C   UNL     1       7.645   5.372  13.666  0.00  0.00    +0.000 A 
ATOM      8  C   UNL     1       6.651   4.690  14.375  0.00  0.00    +0.000 A 
ATOM      9  C   UNL     1       5.868   3.709  13.755  0.00  0.00    +0.000 A 
BRANCH   4  11
ATOM     10  C   UNL     1       6.183   1.352  11.248  0.00  0.00    +0.000 C 
ATOM     11  O   UNL     1       5.406   2.458  11.697  0.00  0.00    +0.000 OA
ENDBRANCH   4  11
ENDBRANCH   1   8
BRANCH   1  12
ATOM     12  C   UNL     1       5.202   3.840  16.607  0.00  0.00    +0.000 C 
BRANCH  12  13
ATOM     13  C   UNL     1       4.117   4.543  17.421  0.00  0.00    +0.000 C 
BRANCH  13  14
ATOM     14  N   UNL     1       3.331   3.626  18.279  0.00  0.00    +0.000 NA
ATOM     15  C   UNL     1       1.924   3.613  17.835  0.00  0.00    +0.000 C 
ATOM     16  C   UNL     1       1.086   2.622  18.645  0.00  0.00    +0.000 C 
ATOM     17  C   UNL     1       1.191   2.877  20.145  0.00  0.00    +0.000 C 
ATOM     18  C   UNL     1       2.644   2.996  20.579  0.00  0.00    +0.000 C 
ATOM     19  C   UNL     1       3.426   3.975  19.704  0.00  0.00    +0.000 C 
BRANCH  17  20
ATOM     20  O   UNL     1       0.465   4.052  20.508  0.00  0.00    +0.000 OA
ATOM     21  H   UNL     1      -0.221   3.813  21.152  0.00  0.00    +0.000 HD
ENDBRANCH  17  20
ENDBRANCH  13  14
ENDBRANCH  12  13
ENDBRANCH   1  12
TORSDOF 6
ENDMDL
MODEL 3
REMARK VINA RESULT:      -7.0      1.230      1.291
REMARK  Name = 
REMARK  7 active torsions:
REMARK  status: ('A' for Active; 'I' for Inactive)
REMARK    1  A    between atoms: C_1  and  O_2
REMARK    2  A    between atoms: O_2  and  C_3
REMARK    3  A    between atoms: C_7  and  S_8
REMARK    4  A    between atoms: S_8  and  C_11
REMARK    5  A    between atoms: C_11  and  C_12
REMARK    6  A    between atoms: C_12  and  N_13
REMARK    7  A    between atoms: C_16  and  O_17
REMARK                            x       y       z     vdW  Elec       q    Type
REMARK                         _______ _______ _______ _____ _____    ______ ____
ROOT
ATOM      1  S   UNL     1       6.480   5.090  16.228  0.00  0.00    +0.000 S 
ATOM      2  O   UNL     1       7.677   4.584  16.878  0.00  0.00    +0.000 OA
ATOM      3  O   UNL     1       6.102   6.481  16.355  0.00  0.00    +0.000 OA
ENDROOT
BRANCH   1   8
ATOM      4  C   UNL     1       6.022   3.427  12.562  0.00  0.00    +0.000 A 
ATOM      5  C   UNL     1       6.998   4.094  11.816  0.00  0.00    +0.000 A 
ATOM      6  C   UNL     1       7.808   5.064  12.408  0.00  0.00    +0.000 A 
ATOM      7  C   UNL     1       7.640   5.385  13.752  0.00  0.00    +0.000 A 
ATOM      8  C   UNL     1       6.641   4.740  14.489  0.00  0.00    +0.000 A 
ATOM      9  C   UNL     1       5.828   3.764  13.902  0.00  0.00    +0.000 A 
BRANCH   4  11
ATOM     10  C   UNL     1       6.088   1.477  11.232  0.00  0.00    +0.000 C 
ATOM     11  O   UNL     1       5.310   2.481  11.877  0.00  0.00    +0.000 OA
ENDBRANCH   4  11
ENDBRANCH   1   8
BRANCH   1  12
ATOM     12  C   UNL     1       5.109   4.075  16.729  0.00  0.00    +0.000 C 
BRANCH  12  13
ATOM     13  C   UNL     1       3.964   4.944  17.245  0.00  0.00    +0.000 C 
BRANCH  13  14
ATOM     14  N   UNL     1       3.565   4.635  18.638  0.00  0.00    +0.000 NA
ATOM     15  C   UNL     1       3.207   3.207  18.747  0.00  0.00    +0.000 C 
ATOM     16  C   UNL     1       2.860   2.822  20.186  0.00  0.00    +0.000 C 
ATOM     17  C   UNL     1       1.767   3.712  20.768  0.00  0.00    +0.000 C 
ATOM     18  C   UNL     1       2.091   5.184  20.557  0.00  0.00    +0.000 C 
ATOM     19  C   UNL     1       2.462   5.487  19.106  0.00  0.00    +0.000 C 
BRANCH  17  20
ATOM     20  O   UNL     1       0.499   3.394  20.194  0.00  0.00    +0.000 OA
ATOM     21  H   UNL     1       0.463   2.440  20.017  0.00  0.00    +0.000 HD
ENDBRANCH  17  20
ENDBRANCH  13  14
ENDBRANCH  12  13
ENDBRANCH   1  12
TORSDOF 6
ENDMDL
MODEL 4
REMARK VINA RESULT:      -6.9      1.402      1.542
REMARK  Name = 
REMARK  7 active torsions:
REMARK  status: ('A' for Active; 'I' for Inactive)
REMARK    1  A    between atoms: C_1  and  O_2
REMARK    2  A    between atoms: O_2  and  C_3
REMARK    3  A    between atoms: C_7  and  S_8
REMARK    4  A    between atoms: S_8  and  C_11
REMARK    5  A    between atoms: C_11  and  C_12
REMARK    6  A    between atoms: C_12  and  N_13
REMARK    7  A    between atoms: C_16  and  O_17
REMARK                            x       y       z     vdW  Elec       q    Type
REMARK                         _______ _______ _______ _____ _____    ______ ____
ROOT
ATOM      1  S   UNL     1       6.248   5.375  16.151  0.00  0.00    +0.000 S 
ATOM      2  O   UNL     1       7.495   5.165  16.866  0.00  0.00    +0.000 OA
ATOM      3  O   UNL     1       5.622   6.680  16.122  0.00  0.00    +0.000 OA
ENDROOT
BRANCH   1   8
ATOM      4  C   UNL     1       5.991   3.444  12.599  0.00  0.00    +0.000 A 
ATOM      5  C   UNL     1       7.050   4.009  11.883  0.00  0.00    +0.000 A 
ATOM      6  C   UNL     1       7.857   4.991  12.460  0.00  0.00    +0.000 A 
ATOM      7  C   UNL     1       7.602   5.425  13.758  0.00  0.00    +0.000 A 
ATOM      8  C   UNL     1       6.523   4.882  14.462  0.00  0.00    +0.000 A 
ATOM      9  C   UNL     1       5.713   3.895  13.889  0.00  0.00    +0.000 A 
BRANCH   4  11
ATOM     10  C   UNL     1       6.080   1.487  11.280  0.00  0.00    +0.000 C 
ATOM     11  O   UNL     1       5.290   2.475  11.935  0.00  0.00    +0.000 OA
ENDBRANCH   4  11
ENDBRANCH   1   8
BRANCH   1  12
ATOM     12  C   UNL     1       5.066   4.186  16.743  0.00  0.00    +0.000 C 
BRANCH  12  13
ATOM     13  C   UNL     1       4.987   4.227  18.268  0.00  0.00    +0.000 C 
BRANCH  13  14
ATOM     14  N   UNL     1       3.611   4.074  18.795  0.00  0.00    +0.000 NA
ATOM     15  C   UNL     1       3.385   5.043  19.885  0.00  0.00    +0.000 C 
ATOM     16  C   UNL     1       1.951   4.974  20.412  0.00  0.00    +0.000 C 
ATOM     17  C   UNL     1       1.567   3.560  20.839  0.00  0.00    +0.000 C 
ATOM     18  C   UNL     1       1.901   2.551  19.750  0.00  0.00    +0.000 C 
ATOM     19  C   UNL     1       3.336   2.703  19.249  0.00  0.00    +0.000 C 
BRANCH  17  20
ATOM     20  O   UNL     1       2.216   3.209  22.061  0.00  0.00    +0.000 OA
ATOM     21  H   UNL     1       1.892   3.789  22.769  0.00  0.00    +0.000 HD
ENDBRANCH  17  20
ENDBRANCH  13  14
ENDBRANCH  12  13
ENDBRANCH   1  12
TORSDOF 6
ENDMDL
MODEL 5
REMARK VINA RESULT:      -6.8      3.309      6.796
REMARK  Name = 
REMARK  7 active torsions:
REMARK  status: ('A' for Active; 'I' for Inactive)
REMARK    1  A    between atoms: C_1  and  O_2
REMARK    2  A    between atoms: O_2  and  C_3
REMARK    3  A    between atoms: C_7  and  S_8
REMARK    4  A    between atoms: S_8  and  C_11
REMARK    5  A    between atoms: C_11  and  C_12
REMARK    6  A    between atoms: C_12  and  N_13
REMARK    7  A    between atoms: C_16  and  O_17
REMARK                            x       y       z     vdW  Elec       q    Type
REMARK                         _______ _______ _______ _____ _____    ______ ____
ROOT
ATOM      1  S   UNL     1       2.277   2.983  18.577  0.00  0.00    +0.000 S 
ATOM      2  O   UNL     1       1.495   2.237  19.546  0.00  0.00    +0.000 OA
ATOM      3  O   UNL     1       1.989   2.886  17.162  0.00  0.00    +0.000 OA
ENDROOT
BRANCH   1   8
ATOM      4  C   UNL     1       2.485   7.027  18.464  0.00  0.00    +0.000 A 
ATOM      5  C   UNL     1       2.126   7.374  19.770  0.00  0.00    +0.000 A 
ATOM      6  C   UNL     1       1.807   6.389  20.707  0.00  0.00    +0.000 A 
ATOM      7  C   UNL     1       1.833   5.047  20.340  0.00  0.00    +0.000 A 
ATOM      8  C   UNL     1       2.162   4.703  19.024  0.00  0.00    +0.000 A 
ATOM      9  C   UNL     1       2.485   5.686  18.082  0.00  0.00    +0.000 A 
BRANCH   4  11
ATOM     10  C   UNL     1       2.081   9.284  17.896  0.00  0.00    +0.000 C 
ATOM     11  O   UNL     1       2.799   8.079  17.648  0.00  0.00    +0.000 OA
ENDBRANCH   4  11
ENDBRANCH   1   8
BRANCH   1  12
ATOM     12  C   UNL     1       3.993   2.601  18.840  0.00  0.00    +0.000 C 
BRANCH  12  13
ATOM     13  C   UNL     1       4.705   3.780  19.501  0.00  0.00    +0.000 C 
BRANCH  13  14
ATOM     14  N   UNL     1       5.887   4.258  18.746  0.00  0.00    +0.000 NA
ATOM     15  C   UNL     1       6.363   5.531  19.320  0.00  0.00    +0.000 C 
ATOM     16  C   UNL     1       7.629   6.027  18.619  0.00  0.00    +0.000 C 
ATOM     17  C   UNL     1       7.439   6.137  17.109  0.00  0.00    +0.000 C 
ATOM     18  C   UNL     1       6.848   4.858  16.538  0.00  0.00    +0.000 C 
ATOM     19  C   UNL     1       5.610   4.404  17.309  0.00  0.00    +0.000 C 
BRANCH  17  20
ATOM     20  O   UNL     1       6.614   7.256  16.785  0.00  0.00    +0.000 OA
ATOM     21  H   UNL     1       6.240   7.621  17.603  0.00  0.00    +0.000 HD
ENDBRANCH  17  20
ENDBRANCH  13  14
ENDBRANCH  12  13
ENDBRANCH   1  12
TORSDOF 6
ENDMDL
MODEL 6
REMARK VINA RESULT:      -6.8      3.173      4.742
REMARK  Name = 
REMARK  7 active torsions:
REMARK  status: ('A' for Active; 'I' for Inactive)
REMARK    1  A    between atoms: C_1  and  O_2
REMARK    2  A    between atoms: O_2  and  C_3
REMARK    3  A    between atoms: C_7  and  S_8
REMARK    4  A    between atoms: S_8  and  C_11
REMARK    5  A    between atoms: C_11  and  C_12
REMARK    6  A    between atoms: C_12  and  N_13
REMARK    7  A    between atoms: C_16  and  O_17
REMARK                            x       y       z     vdW  Elec       q    Type
REMARK                         _______ _______ _______ _____ _____    ______ ____
ROOT
ATOM      1  S   UNL     1       5.487   4.553  15.961  0.00  0.00    +0.000 S 
ATOM      2  O   UNL     1       5.434   5.257  14.692  0.00  0.00    +0.000 OA
ATOM      3  O   UNL     1       5.974   3.192  16.032  0.00  0.00    +0.000 OA
ENDROOT
BRANCH   1   8
ATOM      4  C   UNL     1       7.585   7.617  17.579  0.00  0.00    +0.000 A 
ATOM      5  C   UNL     1       8.167   7.014  18.698  0.00  0.00    +0.000 A 
ATOM      6  C   UNL     1       7.927   5.670  18.987  0.00  0.00    +0.000 A 
ATOM      7  C   UNL     1       7.093   4.919  18.163  0.00  0.00    +0.000 A 
ATOM      8  C   UNL     1       6.487   5.533  17.062  0.00  0.00    +0.000 A 
ATOM      9  C   UNL     1       6.726   6.879  16.766  0.00  0.00    +0.000 A 
BRANCH   4  11
ATOM     10  C   UNL     1       8.630   9.545  18.457  0.00  0.00    +0.000 C 
ATOM     11  O   UNL     1       7.916   8.931  17.388  0.00  0.00    +0.000 OA
ENDBRANCH   4  11
ENDBRANCH   1   8
BRANCH   1  12
ATOM     12  C   UNL     1       3.871   4.622  16.699  0.00  0.00    +0.000 C 
BRANCH  12  13
ATOM     13  C   UNL     1       3.613   3.369  17.534  0.00  0.00    +0.000 C 
BRANCH  13  14
ATOM     14  N   UNL     1       2.653   3.582  18.642  0.00  0.00    +0.000 NA
ATOM     15  C   UNL     1       3.303   4.352  19.720  0.00  0.00    +0.000 C 
ATOM     16  C   UNL     1       2.327   4.662  20.857  0.00  0.00    +0.000 C 
ATOM     17  C   UNL     1       1.663   3.401  21.400  0.00  0.00    +0.000 C 
ATOM     18  C   UNL     1       1.089   2.557  20.272  0.00  0.00    +0.000 C 
ATOM     19  C   UNL     1       2.106   2.318  19.159  0.00  0.00    +0.000 C 
BRANCH  17  20
ATOM     20  O   UNL     1       2.589   2.637  22.173  0.00  0.00    +0.000 OA
ATOM     21  H   UNL     1       2.722   3.074  23.029  0.00  0.00    +0.000 HD
ENDBRANCH  17  20
ENDBRANCH  13  14
ENDBRANCH  12  13
ENDBRANCH   1  12
TORSDOF 6
ENDMDL
MODEL 7
REMARK VINA RESULT:      -6.8      1.933      2.690
REMARK  Name = 
REMARK  7 active torsions:
REMARK  status: ('A' for Active; 'I' for Inactive)
REMARK    1  A    between atoms: C_1  and  O_2
REMARK    2  A    between atoms: O_2  and  C_3
REMARK    3  A    between atoms: C_7  and  S_8
REMARK    4  A    between atoms: S_8  and  C_11
REMARK    5  A    between atoms: C_11  and  C_12
REMARK    6  A    between atoms: C_12  and  N_13
REMARK    7  A    between atoms: C_16  and  O_17
REMARK                            x       y       z     vdW  Elec       q    Type
REMARK                         _______ _______ _______ _____ _____    ______ ____
ROOT
ATOM      1  S   UNL     1       5.883   5.135  18.491  0.00  0.00    +0.000 S 
ATOM      2  O   UNL     1       5.709   3.887  19.213  0.00  0.00    +0.000 OA
ATOM      3  O   UNL     1       6.945   6.053  18.845  0.00  0.00    +0.000 OA
ENDROOT
BRANCH   1   8
ATOM      4  C   UNL     1       7.236   5.049  14.674  0.00  0.00    +0.000 A 
ATOM      5  C   UNL     1       6.322   4.188  14.060  0.00  0.00    +0.000 A 
ATOM      6  C   UNL     1       5.284   3.611  14.793  0.00  0.00    +0.000 A 
ATOM      7  C   UNL     1       5.158   3.883  16.152  0.00  0.00    +0.000 A 
ATOM      8  C   UNL     1       6.092   4.720  16.772  0.00  0.00    +0.000 A 
ATOM      9  C   UNL     1       7.133   5.303  16.041  0.00  0.00    +0.000 A 
BRANCH   4  11
ATOM     10  C   UNL     1       7.925   5.454  12.451  0.00  0.00    +0.000 C 
ATOM     11  O   UNL     1       8.193   5.570  13.845  0.00  0.00    +0.000 OA
ENDBRANCH   4  11
ENDBRANCH   1   8
BRANCH   1  12
ATOM     12  C   UNL     1       4.336   6.010  18.521  0.00  0.00    +0.000 C 
BRANCH  12  13
ATOM     13  C   UNL     1       3.580   5.711  19.815  0.00  0.00    +0.000 C 
BRANCH  13  14
ATOM     14  N   UNL     1       2.366   4.885  19.615  0.00  0.00    +0.000 NA
ATOM     15  C   UNL     1       2.352   3.779  20.592  0.00  0.00    +0.000 C 
ATOM     16  C   UNL     1       1.078   2.940  20.474  0.00  0.00    +0.000 C 
ATOM     17  C   UNL     1       0.861   2.428  19.053  0.00  0.00    +0.000 C 
ATOM     18  C   UNL     1       0.985   3.556  18.040  0.00  0.00    +0.000 C 
ATOM     19  C   UNL     1       2.261   4.371  18.242  0.00  0.00    +0.000 C 
BRANCH  17  20
ATOM     20  O   UNL     1       1.784   1.381  18.749  0.00  0.00    +0.000 OA
ATOM     21  H   UNL     1       2.680   1.673  18.980  0.00  0.00    +0.000 HD
ENDBRANCH  17  20
ENDBRANCH  13  14
ENDBRANCH  12  13
ENDBRANCH   1  12
TORSDOF 6
ENDMDL
MODEL 8
REMARK VINA RESULT:      -6.8      1.209      1.239
REMARK  Name = 
REMARK  7 active torsions:
REMARK  status: ('A' for Active; 'I' for Inactive)
REMARK    1  A    between atoms: C_1  and  O_2
REMARK    2  A    between atoms: O_2  and  C_3
REMARK    3  A    between atoms: C_7  and  S_8
REMARK    4  A    between atoms: S_8  and  C_11
REMARK    5  A    between atoms: C_11  and  C_12
REMARK    6  A    between atoms: C_12  and  N_13
REMARK    7  A    between atoms: C_16  and  O_17
REMARK                            x       y       z     vdW  Elec       q    Type
REMARK                         _______ _______ _______ _____ _____    ______ ____
ROOT
ATOM      1  S   UNL     1       6.696   5.347  16.187  0.00  0.00    +0.000 S 
ATOM      2  O   UNL     1       6.936   4.137  16.953  0.00  0.00    +0.000 OA
ATOM      3  O   UNL     1       7.528   6.517  16.371  0.00  0.00    +0.000 OA
ENDROOT
BRANCH   1   8
ATOM      4  C   UNL     1       6.084   3.483  12.643  0.00  0.00    +0.000 A 
ATOM      5  C   UNL     1       7.023   4.108  11.818  0.00  0.00    +0.000 A 
ATOM      6  C   UNL     1       7.854   5.111  12.319  0.00  0.00    +0.000 A 
ATOM      7  C   UNL     1       7.744   5.506  13.649  0.00  0.00    +0.000 A 
ATOM      8  C   UNL     1       6.782   4.901  14.465  0.00  0.00    +0.000 A 
ATOM      9  C   UNL     1       5.948   3.893  13.969  0.00  0.00    +0.000 A 
BRANCH   4  11
ATOM     10  C   UNL     1       6.092   1.547  11.289  0.00  0.00    +0.000 C 
ATOM     11  O   UNL     1       5.346   2.498  12.043  0.00  0.00    +0.000 OA
ENDBRANCH   4  11
ENDBRANCH   1   8
BRANCH   1  12
ATOM     12  C   UNL     1       4.995   5.812  16.410  0.00  0.00    +0.000 C 
BRANCH  12  13
ATOM     13  C   UNL     1       4.697   6.050  17.890  0.00  0.00    +0.000 C 
BRANCH  13  14
ATOM     14  N   UNL     1       3.349   5.594  18.304  0.00  0.00    +0.000 NA
ATOM     15  C   UNL     1       3.327   5.369  19.762  0.00  0.00    +0.000 C 
ATOM     16  C   UNL     1       1.933   4.969  20.249  0.00  0.00    +0.000 C 
ATOM     17  C   UNL     1       1.390   3.760  19.494  0.00  0.00    +0.000 C 
ATOM     18  C   UNL     1       1.515   3.954  17.990  0.00  0.00    +0.000 C 
ATOM     19  C   UNL     1       2.921   4.387  17.582  0.00  0.00    +0.000 C 
BRANCH  17  20
ATOM     20  O   UNL     1       2.063   2.568  19.901  0.00  0.00    +0.000 OA
ATOM     21  H   UNL     1       2.018   1.918  19.181  0.00  0.00    +0.000 HD
ENDBRANCH  17  20
ENDBRANCH  13  14
ENDBRANCH  12  13
ENDBRANCH   1  12
TORSDOF 6
ENDMDL
MODEL 9
REMARK VINA RESULT:      -6.8      1.198      1.619
REMARK  Name = 
REMARK  7 active torsions:
REMARK  status: ('A' for Active; 'I' for Inactive)
REMARK    1  A    between atoms: C_1  and  O_2
REMARK    2  A    between atoms: O_2  and  C_3
REMARK    3  A    between atoms: C_7  and  S_8
REMARK    4  A    between atoms: S_8  and  C_11
REMARK    5  A    between atoms: C_11  and  C_12
REMARK    6  A    between atoms: C_12  and  N_13
REMARK    7  A    between atoms: C_16  and  O_17
REMARK                            x       y       z     vdW  Elec       q    Type
REMARK                         _______ _______ _______ _____ _____    ______ ____
ROOT
ATOM      1  S   UNL     1       6.712   5.307  16.253  0.00  0.00    +0.000 S 
ATOM      2  O   UNL     1       7.567   4.365  16.953  0.00  0.00    +0.000 OA
ATOM      3  O   UNL     1       6.922   6.734  16.382  0.00  0.00    +0.000 OA
ENDROOT
BRANCH   1   8
ATOM      4  C   UNL     1       6.100   3.558  12.651  0.00  0.00    +0.000 A 
ATOM      5  C   UNL     1       7.057   4.191  11.853  0.00  0.00    +0.000 A 
ATOM      6  C   UNL     1       7.900   5.165  12.390  0.00  0.00    +0.000 A 
ATOM      7  C   UNL     1       7.785   5.523  13.730  0.00  0.00    +0.000 A 
ATOM      8  C   UNL     1       6.805   4.911  14.520  0.00  0.00    +0.000 A 
ATOM      9  C   UNL     1       5.959   3.932  13.987  0.00  0.00    +0.000 A 
BRANCH   4  11
ATOM     10  C   UNL     1       4.231   3.091  11.284  0.00  0.00    +0.000 C 
ATOM     11  O   UNL     1       5.351   2.604  12.017  0.00  0.00    +0.000 OA
ENDBRANCH   4  11
ENDBRANCH   1   8
BRANCH   1  12
ATOM     12  C   UNL     1       5.024   4.937  16.672  0.00  0.00    +0.000 C 
BRANCH  12  13
ATOM     13  C   UNL     1       4.942   3.612  17.428  0.00  0.00    +0.000 C 
BRANCH  13  14
ATOM     14  N   UNL     1       3.723   3.479  18.260  0.00  0.00    +0.000 NA
ATOM     15  C   UNL     1       2.932   4.723  18.185  0.00  0.00    +0.000 C 
ATOM     16  C   UNL     1       1.624   4.606  18.970  0.00  0.00    +0.000 C 
ATOM     17  C   UNL     1       1.862   4.188  20.417  0.00  0.00    +0.000 C 
ATOM     18  C   UNL     1       2.767   2.967  20.491  0.00  0.00    +0.000 C 
ATOM     19  C   UNL     1       4.034   3.140  19.657  0.00  0.00    +0.000 C 
BRANCH  17  20
ATOM     20  O   UNL     1       2.418   5.266  21.170  0.00  0.00    +0.000 OA
ATOM     21  H   UNL     1       2.257   6.098  20.696  0.00  0.00    +0.000 HD
ENDBRANCH  17  20
ENDBRANCH  13  14
ENDBRANCH  12  13
ENDBRANCH   1  12
TORSDOF 6
ENDMDL
