MODEL 1
REMARK VINA RESULT:      -7.1      0.000      0.000
REMARK  Name = 
REMARK  5 active torsions:
REMARK  status: ('A' for Active; 'I' for Inactive)
REMARK    1  A    between atoms: N_6  and  C_7
REMARK    2  A    between atoms: C_17  and  N_18
REMARK    3  A    between atoms: N_18  and  C_19
REMARK    4  A    between atoms: C_19  and  C_20
REMARK    5  A    between atoms: C_20  and  N_21
REMARK                            x       y       z     vdW  Elec       q    Type
REMARK                         _______ _______ _______ _____ _____    ______ ____
ROOT
ATOM      1  O   UNL     1       1.240   9.093  18.694  0.00  0.00    +0.000 OA
ATOM      2  C   UNL     1       0.727   9.818  19.542  0.00  0.00    +0.000 C 
ATOM      3  N   UNL     1       0.118  10.983  19.187  0.00  0.00    +0.000 N 
ATOM      4  C   UNL     1      -0.502  11.892  19.999  0.00  0.00    +0.000 C 
ATOM      5  O   UNL     1      -1.032  12.867  19.466  0.00  0.00    +0.000 OA
ATOM      6  N   UNL     1      -0.522  11.608  21.360  0.00  0.00    +0.000 N 
ATOM      7  C   UNL     1       0.056  10.472  21.933  0.00  0.00    +0.000 C 
ATOM      8  O   UNL     1       0.070  10.238  23.143  0.00  0.00    +0.000 OA
ATOM      9  C   UNL     1       0.723   9.542  20.986  0.00  0.00    +0.000 C 
ATOM     10  C   UNL     1       1.316   8.450  21.498  0.00  0.00    +0.000 C 
ATOM     11  H   UNL     1       0.091  11.188  18.199  0.00  0.00    +0.000 HD
ENDROOT
BRANCH   6  12
ATOM     12  C   UNL     1      -1.176  12.534  22.234  0.00  0.00    +0.000 A 
ATOM     13  C   UNL     1      -0.512  13.691  22.672  0.00  0.00    +0.000 A 
ATOM     14  C   UNL     1      -1.151  14.599  23.520  0.00  0.00    +0.000 A 
ATOM     15  C   UNL     1      -2.468  14.369  23.909  0.00  0.00    +0.000 A 
ATOM     16 BR   UNL     1      -3.343  15.612  25.032  0.00  0.00    +0.000 Br
ATOM     17  C   UNL     1      -3.146  13.233  23.473  0.00  0.00    +0.000 A 
ATOM     18  C   UNL     1      -2.496  12.308  22.652  0.00  0.00    +0.000 A 
ENDBRANCH   6  12
BRANCH  10  19
ATOM     19  N   UNL     1       1.969   7.415  20.876  0.00  0.00    +0.000 N 
ATOM     20  H   UNL     1       2.970   7.530  20.676  0.00  0.00    +0.000 HD
BRANCH  19  21
ATOM     21  C   UNL     1       1.410   6.101  20.611  0.00  0.00    +0.000 C 
BRANCH  21  22
ATOM     22  C   UNL     1       2.428   4.985  20.932  0.00  0.00    +0.000 C 
BRANCH  22  23
ATOM     23  N   UNL     1       2.904   4.191  19.776  0.00  0.00    +0.000 NA
ATOM     24  C   UNL     1       2.965   2.754  20.086  0.00  0.00    +0.000 C 
ATOM     25  C   UNL     1       3.453   1.940  18.887  0.00  0.00    +0.000 C 
ATOM     26  C   UNL     1       2.582   2.181  17.662  0.00  0.00    +0.000 C 
ATOM     27  C   UNL     1       2.474   3.673  17.380  0.00  0.00    +0.000 C 
ATOM     28  C   UNL     1       2.022   4.441  18.622  0.00  0.00    +0.000 C 
ENDBRANCH  22  23
ENDBRANCH  21  22
ENDBRANCH  19  21
ENDBRANCH  10  19
TORSDOF 5
ENDMDL
MODEL 2
REMARK VINA RESULT:      -7.1      4.895     10.319
REMARK  Name = 
REMARK  5 active torsions:
REMARK  status: ('A' for Active; 'I' for Inactive)
REMARK    1  A    between atoms: N_6  and  C_7
REMARK    2  A    between atoms: C_17  and  N_18
REMARK    3  A    between atoms: N_18  and  C_19
REMARK    4  A    between atoms: C_19  and  C_20
REMARK    5  A    between atoms: C_20  and  N_21
REMARK                            x       y       z     vdW  Elec       q    Type
REMARK                         _______ _______ _______ _____ _____    ______ ____
ROOT
ATOM      1  O   UNL     1       1.718   4.507  21.074  0.00  0.00    +0.000 OA
ATOM      2  C   UNL     1       2.463   4.642  20.107  0.00  0.00    +0.000 C 
ATOM      3  N   UNL     1       3.063   3.563  19.533  0.00  0.00    +0.000 N 
ATOM      4  C   UNL     1       3.906   3.540  18.457  0.00  0.00    +0.000 C 
ATOM      5  O   UNL     1       4.307   2.443  18.069  0.00  0.00    +0.000 OA
ATOM      6  N   UNL     1       4.199   4.762  17.862  0.00  0.00    +0.000 N 
ATOM      7  C   UNL     1       3.698   5.990  18.303  0.00  0.00    +0.000 C 
ATOM      8  O   UNL     1       3.987   7.077  17.798  0.00  0.00    +0.000 OA
ATOM      9  C   UNL     1       2.802   5.931  19.486  0.00  0.00    +0.000 C 
ATOM     10  C   UNL     1       2.319   7.092  19.960  0.00  0.00    +0.000 C 
ATOM     11  H   UNL     1       2.833   2.663  19.929  0.00  0.00    +0.000 HD
ENDROOT
BRANCH   6  12
ATOM     12  C   UNL     1       5.069   4.769  16.724  0.00  0.00    +0.000 A 
ATOM     13  C   UNL     1       4.578   4.436  15.452  0.00  0.00    +0.000 A 
ATOM     14  C   UNL     1       5.424   4.447  14.340  0.00  0.00    +0.000 A 
ATOM     15  C   UNL     1       6.756   4.821  14.491  0.00  0.00    +0.000 A 
ATOM     16 BR   UNL     1       7.894   4.865  12.982  0.00  0.00    +0.000 Br
ATOM     17  C   UNL     1       7.256   5.167  15.745  0.00  0.00    +0.000 A 
ATOM     18  C   UNL     1       6.419   5.123  16.862  0.00  0.00    +0.000 A 
ENDBRANCH   6  12
BRANCH  10  19
ATOM     19  N   UNL     1       1.458   7.342  21.001  0.00  0.00    +0.000 N 
ATOM     20  H   UNL     1       1.483   6.706  21.807  0.00  0.00    +0.000 HD
BRANCH  19  21
ATOM     21  C   UNL     1       0.618   8.518  21.139  0.00  0.00    +0.000 C 
BRANCH  21  22
ATOM     22  C   UNL     1       0.934   9.282  22.443  0.00  0.00    +0.000 C 
BRANCH  22  23
ATOM     23  N   UNL     1       0.345  10.636  22.558  0.00  0.00    +0.000 NA
ATOM     24  C   UNL     1       0.361  11.351  21.272  0.00  0.00    +0.000 C 
ATOM     25  C   UNL     1      -0.254  12.747  21.397  0.00  0.00    +0.000 C 
ATOM     26  C   UNL     1      -1.670  12.681  21.949  0.00  0.00    +0.000 C 
ATOM     27  C   UNL     1      -1.692  11.890  23.249  0.00  0.00    +0.000 C 
ATOM     28  C   UNL     1      -1.031  10.522  23.076  0.00  0.00    +0.000 C 
ENDBRANCH  22  23
ENDBRANCH  21  22
ENDBRANCH  19  21
ENDBRANCH  10  19
TORSDOF 5
ENDMDL
MODEL 3
REMARK VINA RESULT:      -7.0      4.792      9.335
REMARK  Name = 
REMARK  5 active torsions:
REMARK  status: ('A' for Active; 'I' for Inactive)
REMARK    1  A    between atoms: N_6  and  C_7
REMARK    2  A    between atoms: C_17  and  N_18
REMARK    3  A    between atoms: N_18  and  C_19
REMARK    4  A    between atoms: C_19  and  C_20
REMARK    5  A    between atoms: C_20  and  N_21
REMARK                            x       y       z     vdW  Elec       q    Type
REMARK                         _______ _______ _______ _____ _____    ______ ____
ROOT
ATOM      1  O   UNL     1       0.976   8.091  21.728  0.00  0.00    +0.000 OA
ATOM      2  C   UNL     1       1.599   7.683  20.752  0.00  0.00    +0.000 C 
ATOM      3  N   UNL     1       2.251   6.488  20.791  0.00  0.00    +0.000 N 
ATOM      4  C   UNL     1       2.978   5.892  19.798  0.00  0.00    +0.000 C 
ATOM      5  O   UNL     1       3.454   4.780  20.028  0.00  0.00    +0.000 OA
ATOM      6  N   UNL     1       3.075   6.578  18.592  0.00  0.00    +0.000 N 
ATOM      7  C   UNL     1       2.491   7.823  18.348  0.00  0.00    +0.000 C 
ATOM      8  O   UNL     1       2.607   8.447  17.291  0.00  0.00    +0.000 OA
ATOM      9  C   UNL     1       1.731   8.411  19.481  0.00  0.00    +0.000 C 
ATOM     10  C   UNL     1       1.176   9.621  19.298  0.00  0.00    +0.000 C 
ATOM     11  H   UNL     1       2.162   5.960  21.646  0.00  0.00    +0.000 HD
ENDROOT
BRANCH   6  12
ATOM     12  C   UNL     1       3.818   5.971  17.528  0.00  0.00    +0.000 A 
ATOM     13  C   UNL     1       4.804   6.700  16.843  0.00  0.00    +0.000 A 
ATOM     14  C   UNL     1       5.534   6.108  15.810  0.00  0.00    +0.000 A 
ATOM     15  C   UNL     1       5.303   4.776  15.477  0.00  0.00    +0.000 A 
ATOM     16 BR   UNL     1       6.311   3.966  14.099  0.00  0.00    +0.000 Br
ATOM     17  C   UNL     1       4.338   4.035  16.156  0.00  0.00    +0.000 A 
ATOM     18  C   UNL     1       3.584   4.636  17.167  0.00  0.00    +0.000 A 
ENDBRANCH   6  12
BRANCH  10  19
ATOM     19  N   UNL     1       0.403  10.383  20.139  0.00  0.00    +0.000 N 
ATOM     20  H   UNL     1       0.877  11.081  20.725  0.00  0.00    +0.000 HD
BRANCH  19  21
ATOM     21  C   UNL     1      -1.049  10.405  20.165  0.00  0.00    +0.000 C 
BRANCH  21  22
ATOM     22  C   UNL     1      -1.613  11.379  19.108  0.00  0.00    +0.000 C 
BRANCH  22  23
ATOM     23  N   UNL     1      -2.573  10.799  18.141  0.00  0.00    +0.000 NA
ATOM     24  C   UNL     1      -3.589  11.778  17.725  0.00  0.00    +0.000 C 
ATOM     25  C   UNL     1      -4.575  11.174  16.723  0.00  0.00    +0.000 C 
ATOM     26  C   UNL     1      -3.854  10.610  15.507  0.00  0.00    +0.000 C 
ATOM     27  C   UNL     1      -2.763   9.642  15.945  0.00  0.00    +0.000 C 
ATOM     28  C   UNL     1      -1.833  10.284  16.974  0.00  0.00    +0.000 C 
ENDBRANCH  22  23
ENDBRANCH  21  22
ENDBRANCH  19  21
ENDBRANCH  10  19
TORSDOF 5
ENDMDL
MODEL 4
REMARK VINA RESULT:      -7.0      3.954      5.532
REMARK  Name = 
REMARK  5 active torsions:
REMARK  status: ('A' for Active; 'I' for Inactive)
REMARK    1  A    between atoms: N_6  and  C_7
REMARK    2  A    between atoms: C_17  and  N_18
REMARK    3  A    between atoms: N_18  and  C_19
REMARK    4  A    between atoms: C_19  and  C_20
REMARK    5  A    between atoms: C_20  and  N_21
REMARK                            x       y       z     vdW  Elec       q    Type
REMARK                         _______ _______ _______ _____ _____    ______ ____
ROOT
ATOM      1  O   UNL     1       3.853   5.507  19.211  0.00  0.00    +0.000 OA
ATOM      2  C   UNL     1       3.156   6.518  19.245  0.00  0.00    +0.000 C 
ATOM      3  N   UNL     1       2.348   6.772  20.312  0.00  0.00    +0.000 N 
ATOM      4  C   UNL     1       1.522   7.844  20.508  0.00  0.00    +0.000 C 
ATOM      5  O   UNL     1       0.905   7.903  21.571  0.00  0.00    +0.000 OA
ATOM      6  N   UNL     1       1.491   8.805  19.503  0.00  0.00    +0.000 N 
ATOM      7  C   UNL     1       2.233   8.730  18.322  0.00  0.00    +0.000 C 
ATOM      8  O   UNL     1       2.178   9.563  17.415  0.00  0.00    +0.000 OA
ATOM      9  C   UNL     1       3.093   7.527  18.178  0.00  0.00    +0.000 C 
ATOM     10  C   UNL     1       3.804   7.401  17.044  0.00  0.00    +0.000 C 
ATOM     11  H   UNL     1       2.385   6.104  21.067  0.00  0.00    +0.000 HD
ENDROOT
BRANCH   6  12
ATOM     12  C   UNL     1       0.646   9.947  19.686  0.00  0.00    +0.000 A 
ATOM     13  C   UNL     1      -0.631   9.988  19.106  0.00  0.00    +0.000 A 
ATOM     14  C   UNL     1      -1.459  11.098  19.289  0.00  0.00    +0.000 A 
ATOM     15  C   UNL     1      -1.024  12.159  20.079  0.00  0.00    +0.000 A 
ATOM     16 BR   UNL     1      -2.155  13.649  20.350  0.00  0.00    +0.000 Br
ATOM     17  C   UNL     1       0.236  12.129  20.673  0.00  0.00    +0.000 A 
ATOM     18  C   UNL     1       1.076  11.033  20.462  0.00  0.00    +0.000 A 
ENDBRANCH   6  12
BRANCH  10  19
ATOM     19  N   UNL     1       4.693   6.431  16.652  0.00  0.00    +0.000 N 
ATOM     20  H   UNL     1       4.326   5.623  16.135  0.00  0.00    +0.000 HD
BRANCH  19  21
ATOM     21  C   UNL     1       6.139   6.516  16.764  0.00  0.00    +0.000 C 
BRANCH  21  22
ATOM     22  C   UNL     1       6.825   5.309  16.088  0.00  0.00    +0.000 C 
BRANCH  22  23
ATOM     23  N   UNL     1       6.562   5.144  14.640  0.00  0.00    +0.000 NA
ATOM     24  C   UNL     1       7.787   5.306  13.841  0.00  0.00    +0.000 C 
ATOM     25  C   UNL     1       7.510   5.130  12.346  0.00  0.00    +0.000 C 
ATOM     26  C   UNL     1       6.864   3.782  12.057  0.00  0.00    +0.000 C 
ATOM     27  C   UNL     1       5.631   3.594  12.929  0.00  0.00    +0.000 C 
ATOM     28  C   UNL     1       5.956   3.820  14.406  0.00  0.00    +0.000 C 
ENDBRANCH  22  23
ENDBRANCH  21  22
ENDBRANCH  19  21
ENDBRANCH  10  19
TORSDOF 5
ENDMDL
MODEL 5
REMARK VINA RESULT:      -7.0      0.919      1.191
REMARK  Name = 
REMARK  5 active torsions:
REMARK  status: ('A' for Active; 'I' for Inactive)
REMARK    1  A    between atoms: N_6  and  C_7
REMARK    2  A    between atoms: C_17  and  N_18
REMARK    3  A    between atoms: N_18  and  C_19
REMARK    4  A    between atoms: C_19  and  C_20
REMARK    5  A    between atoms: C_20  and  N_21
REMARK                            x       y       z     vdW  Elec       q    Type
REMARK                         _______ _______ _______ _____ _____    ______ ____
ROOT
ATOM      1  O   UNL     1       1.138   9.057  18.706  0.00  0.00    +0.000 OA
ATOM      2  C   UNL     1       0.638   9.788  19.557  0.00  0.00    +0.000 C 
ATOM      3  N   UNL     1      -0.005  10.935  19.202  0.00  0.00    +0.000 N 
ATOM      4  C   UNL     1      -0.615  11.846  20.017  0.00  0.00    +0.000 C 
ATOM      5  O   UNL     1      -1.180  12.801  19.484  0.00  0.00    +0.000 OA
ATOM      6  N   UNL     1      -0.586  11.586  21.383  0.00  0.00    +0.000 N 
ATOM      7  C   UNL     1       0.031  10.473  21.957  0.00  0.00    +0.000 C 
ATOM      8  O   UNL     1       0.089  10.261  23.170  0.00  0.00    +0.000 OA
ATOM      9  C   UNL     1       0.685   9.538  21.005  0.00  0.00    +0.000 C 
ATOM     10  C   UNL     1       1.315   8.467  21.517  0.00  0.00    +0.000 C 
ATOM     11  H   UNL     1      -0.067  11.121  18.212  0.00  0.00    +0.000 HD
ENDROOT
BRANCH   6  12
ATOM     12  C   UNL     1      -1.230  12.517  22.261  0.00  0.00    +0.000 A 
ATOM     13  C   UNL     1      -0.570  13.687  22.666  0.00  0.00    +0.000 A 
ATOM     14  C   UNL     1      -1.199  14.598  23.518  0.00  0.00    +0.000 A 
ATOM     15  C   UNL     1      -2.502  14.357  23.944  0.00  0.00    +0.000 A 
ATOM     16 BR   UNL     1      -3.364  15.604  25.074  0.00  0.00    +0.000 Br
ATOM     17  C   UNL     1      -3.177  13.206  23.541  0.00  0.00    +0.000 A 
ATOM     18  C   UNL     1      -2.535  12.279  22.716  0.00  0.00    +0.000 A 
ENDBRANCH   6  12
BRANCH  10  19
ATOM     19  N   UNL     1       1.968   7.433  20.892  0.00  0.00    +0.000 N 
ATOM     20  H   UNL     1       2.927   7.600  20.562  0.00  0.00    +0.000 HD
BRANCH  19  21
ATOM     21  C   UNL     1       1.486   6.067  20.791  0.00  0.00    +0.000 C 
BRANCH  21  22
ATOM     22  C   UNL     1       2.631   5.093  20.441  0.00  0.00    +0.000 C 
BRANCH  22  23
ATOM     23  N   UNL     1       2.979   4.992  19.005  0.00  0.00    +0.000 NA
ATOM     24  C   UNL     1       4.371   5.395  18.750  0.00  0.00    +0.000 C 
ATOM     25  C   UNL     1       4.725   5.284  17.265  0.00  0.00    +0.000 C 
ATOM     26  C   UNL     1       4.476   3.878  16.739  0.00  0.00    +0.000 C 
ATOM     27  C   UNL     1       3.052   3.443  17.058  0.00  0.00    +0.000 C 
ATOM     28  C   UNL     1       2.741   3.612  18.545  0.00  0.00    +0.000 C 
ENDBRANCH  22  23
ENDBRANCH  21  22
ENDBRANCH  19  21
ENDBRANCH  10  19
TORSDOF 5
ENDMDL
MODEL 6
REMARK VINA RESULT:      -6.9      4.869     10.251
REMARK  Name = 
REMARK  5 active torsions:
REMARK  status: ('A' for Active; 'I' for Inactive)
REMARK    1  A    between atoms: N_6  and  C_7
REMARK    2  A    between atoms: C_17  and  N_18
REMARK    3  A    between atoms: N_18  and  C_19
REMARK    4  A    between atoms: C_19  and  C_20
REMARK    5  A    between atoms: C_20  and  N_21
REMARK                            x       y       z     vdW  Elec       q    Type
REMARK                         _______ _______ _______ _____ _____    ______ ____
ROOT
ATOM      1  O   UNL     1       1.974   4.642  21.333  0.00  0.00    +0.000 OA
ATOM      2  C   UNL     1       2.667   4.777  20.329  0.00  0.00    +0.000 C 
ATOM      3  N   UNL     1       3.360   3.724  19.813  0.00  0.00    +0.000 N 
ATOM      4  C   UNL     1       4.165   3.705  18.708  0.00  0.00    +0.000 C 
ATOM      5  O   UNL     1       4.668   2.628  18.386  0.00  0.00    +0.000 OA
ATOM      6  N   UNL     1       4.305   4.901  18.012  0.00  0.00    +0.000 N 
ATOM      7  C   UNL     1       3.691   6.100  18.380  0.00  0.00    +0.000 C 
ATOM      8  O   UNL     1       3.844   7.168  17.784  0.00  0.00    +0.000 OA
ATOM      9  C   UNL     1       2.845   6.042  19.600  0.00  0.00    +0.000 C 
ATOM     10  C   UNL     1       2.257   7.180  20.006  0.00  0.00    +0.000 C 
ATOM     11  H   UNL     1       3.242   2.839  20.284  0.00  0.00    +0.000 HD
ENDROOT
BRANCH   6  12
ATOM     12  C   UNL     1       5.131   4.908  16.841  0.00  0.00    +0.000 A 
ATOM     13  C   UNL     1       6.477   5.296  16.923  0.00  0.00    +0.000 A 
ATOM     14  C   UNL     1       7.286   5.298  15.783  0.00  0.00    +0.000 A 
ATOM     15  C   UNL     1       6.758   4.883  14.563  0.00  0.00    +0.000 A 
ATOM     16 BR   UNL     1       7.859   4.858  13.027  0.00  0.00    +0.000 Br
ATOM     17  C   UNL     1       5.427   4.482  14.468  0.00  0.00    +0.000 A 
ATOM     18  C   UNL     1       4.610   4.512  15.601  0.00  0.00    +0.000 A 
ENDBRANCH   6  12
BRANCH  10  19
ATOM     19  N   UNL     1       1.409   7.419  21.059  0.00  0.00    +0.000 N 
ATOM     20  H   UNL     1       0.967   6.610  21.512  0.00  0.00    +0.000 HD
BRANCH  19  21
ATOM     21  C   UNL     1       1.199   8.705  21.700  0.00  0.00    +0.000 C 
BRANCH  21  22
ATOM     22  C   UNL     1       0.668   9.750  20.695  0.00  0.00    +0.000 C 
BRANCH  22  23
ATOM     23  N   UNL     1      -0.325  10.713  21.227  0.00  0.00    +0.000 NA
ATOM     24  C   UNL     1      -0.666  10.427  22.629  0.00  0.00    +0.000 C 
ATOM     25  C   UNL     1      -1.688  11.427  23.174  0.00  0.00    +0.000 C 
ATOM     26  C   UNL     1      -1.193  12.859  23.031  0.00  0.00    +0.000 C 
ATOM     27  C   UNL     1      -0.784  13.132  21.590  0.00  0.00    +0.000 C 
ATOM     28  C   UNL     1       0.205  12.081  21.086  0.00  0.00    +0.000 C 
ENDBRANCH  22  23
ENDBRANCH  21  22
ENDBRANCH  19  21
ENDBRANCH  10  19
TORSDOF 5
ENDMDL
MODEL 7
REMARK VINA RESULT:      -6.9      0.612      1.293
REMARK  Name = 
REMARK  5 active torsions:
REMARK  status: ('A' for Active; 'I' for Inactive)
REMARK    1  A    between atoms: N_6  and  C_7
REMARK    2  A    between atoms: C_17  and  N_18
REMARK    3  A    between atoms: N_18  and  C_19
REMARK    4  A    between atoms: C_19  and  C_20
REMARK    5  A    between atoms: C_20  and  N_21
REMARK                            x       y       z     vdW  Elec       q    Type
REMARK                         _______ _______ _______ _____ _____    ______ ____
ROOT
ATOM      1  O   UNL     1       0.995   9.225  18.368  0.00  0.00    +0.000 OA
ATOM      2  C   UNL     1       0.551   9.936  19.265  0.00  0.00    +0.000 C 
ATOM      3  N   UNL     1      -0.113  11.090  18.977  0.00  0.00    +0.000 N 
ATOM      4  C   UNL     1      -0.669  11.982  19.850  0.00  0.00    +0.000 C 
ATOM      5  O   UNL     1      -1.268  12.948  19.376  0.00  0.00    +0.000 OA
ATOM      6  N   UNL     1      -0.553  11.692  21.205  0.00  0.00    +0.000 N 
ATOM      7  C   UNL     1       0.100  10.567  21.714  0.00  0.00    +0.000 C 
ATOM      8  O   UNL     1       0.235  10.328  22.916  0.00  0.00    +0.000 OA
ATOM      9  C   UNL     1       0.691   9.654  20.702  0.00  0.00    +0.000 C 
ATOM     10  C   UNL     1       1.353   8.573  21.148  0.00  0.00    +0.000 C 
ATOM     11  H   UNL     1      -0.238  11.298  17.998  0.00  0.00    +0.000 HD
ENDROOT
BRANCH   6  12
ATOM     12  C   UNL     1      -1.139  12.602  22.144  0.00  0.00    +0.000 A 
ATOM     13  C   UNL     1      -2.421  12.362  22.662  0.00  0.00    +0.000 A 
ATOM     14  C   UNL     1      -2.992  13.245  23.582  0.00  0.00    +0.000 A 
ATOM     15  C   UNL     1      -2.270  14.356  24.010  0.00  0.00    +0.000 A 
ATOM     16 BR   UNL     1      -3.030  15.535  25.277  0.00  0.00    +0.000 Br
ATOM     17  C   UNL     1      -0.991  14.602  23.515  0.00  0.00    +0.000 A 
ATOM     18  C   UNL     1      -0.434  13.737  22.570  0.00  0.00    +0.000 A 
ENDBRANCH   6  12
BRANCH  10  19
ATOM     19  N   UNL     1       1.964   7.554  20.460  0.00  0.00    +0.000 N 
ATOM     20  H   UNL     1       2.779   7.788  19.881  0.00  0.00    +0.000 HD
BRANCH  19  21
ATOM     21  C   UNL     1       1.660   6.140  20.597  0.00  0.00    +0.000 C 
BRANCH  21  22
ATOM     22  C   UNL     1       2.933   5.278  20.457  0.00  0.00    +0.000 C 
BRANCH  22  23
ATOM     23  N   UNL     1       2.736   3.918  19.905  0.00  0.00    +0.000 NA
ATOM     24  C   UNL     1       1.415   3.771  19.273  0.00  0.00    +0.000 C 
ATOM     25  C   UNL     1       1.220   2.366  18.700  0.00  0.00    +0.000 C 
ATOM     26  C   UNL     1       2.321   2.011  17.712  0.00  0.00    +0.000 C 
ATOM     27  C   UNL     1       3.687   2.222  18.351  0.00  0.00    +0.000 C 
ATOM     28  C   UNL     1       3.813   3.627  18.940  0.00  0.00    +0.000 C 
ENDBRANCH  22  23
ENDBRANCH  21  22
ENDBRANCH  19  21
ENDBRANCH  10  19
TORSDOF 5
ENDMDL
MODEL 8
REMARK VINA RESULT:      -6.9      3.490      4.982
REMARK  Name = 
REMARK  5 active torsions:
REMARK  status: ('A' for Active; 'I' for Inactive)
REMARK    1  A    between atoms: N_6  and  C_7
REMARK    2  A    between atoms: C_17  and  N_18
REMARK    3  A    between atoms: N_18  and  C_19
REMARK    4  A    between atoms: C_19  and  C_20
REMARK    5  A    between atoms: C_20  and  N_21
REMARK                            x       y       z     vdW  Elec       q    Type
REMARK                         _______ _______ _______ _____ _____    ______ ____
ROOT
ATOM      1  O   UNL     1       2.017   5.899  20.750  0.00  0.00    +0.000 OA
ATOM      2  C   UNL     1       1.791   7.047  20.379  0.00  0.00    +0.000 C 
ATOM      3  N   UNL     1       1.276   7.969  21.239  0.00  0.00    +0.000 N 
ATOM      4  C   UNL     1       0.977   9.280  20.990  0.00  0.00    +0.000 C 
ATOM      5  O   UNL     1       0.556   9.958  21.928  0.00  0.00    +0.000 OA
ATOM      6  N   UNL     1       1.221   9.747  19.704  0.00  0.00    +0.000 N 
ATOM      7  C   UNL     1       1.736   8.962  18.669  0.00  0.00    +0.000 C 
ATOM      8  O   UNL     1       1.919   9.367  17.519  0.00  0.00    +0.000 OA
ATOM      9  C   UNL     1       2.021   7.546  19.015  0.00  0.00    +0.000 C 
ATOM     10  C   UNL     1       2.491   6.749  18.041  0.00  0.00    +0.000 C 
ATOM     11  H   UNL     1       1.126   7.658  22.188  0.00  0.00    +0.000 HD
ENDROOT
BRANCH   6  12
ATOM     12  C   UNL     1       0.931  11.120  19.417  0.00  0.00    +0.000 A 
ATOM     13  C   UNL     1      -0.330  11.492  18.925  0.00  0.00    +0.000 A 
ATOM     14  C   UNL     1      -0.617  12.832  18.650  0.00  0.00    +0.000 A 
ATOM     15  C   UNL     1       0.345  13.808  18.895  0.00  0.00    +0.000 A 
ATOM     16 BR   UNL     1      -0.053  15.623  18.551  0.00  0.00    +0.000 Br
ATOM     17  C   UNL     1       1.597  13.456  19.396  0.00  0.00    +0.000 A 
ATOM     18  C   UNL     1       1.896  12.113  19.638  0.00  0.00    +0.000 A 
ENDBRANCH   6  12
BRANCH  10  19
ATOM     19  N   UNL     1       2.869   5.429  18.074  0.00  0.00    +0.000 N 
ATOM     20  H   UNL     1       2.321   4.787  18.660  0.00  0.00    +0.000 HD
BRANCH  19  21
ATOM     21  C   UNL     1       3.880   4.818  17.229  0.00  0.00    +0.000 C 
BRANCH  21  22
ATOM     22  C   UNL     1       4.694   5.887  16.468  0.00  0.00    +0.000 C 
BRANCH  22  23
ATOM     23  N   UNL     1       6.099   6.060  16.902  0.00  0.00    +0.000 NA
ATOM     24  C   UNL     1       6.376   7.443  17.321  0.00  0.00    +0.000 C 
ATOM     25  C   UNL     1       7.828   7.614  17.772  0.00  0.00    +0.000 C 
ATOM     26  C   UNL     1       8.179   6.643  18.890  0.00  0.00    +0.000 C 
ATOM     27  C   UNL     1       7.836   5.219  18.475  0.00  0.00    +0.000 C 
ATOM     28  C   UNL     1       6.388   5.114  17.996  0.00  0.00    +0.000 C 
ENDBRANCH  22  23
ENDBRANCH  21  22
ENDBRANCH  19  21
ENDBRANCH  10  19
TORSDOF 5
ENDMDL
MODEL 9
REMARK VINA RESULT:      -6.9      3.070      3.933
REMARK  Name = 
REMARK  5 active torsions:
REMARK  status: ('A' for Active; 'I' for Inactive)
REMARK    1  A    between atoms: N_6  and  C_7
REMARK    2  A    between atoms: C_17  and  N_18
REMARK    3  A    between atoms: N_18  and  C_19
REMARK    4  A    between atoms: C_19  and  C_20
REMARK    5  A    between atoms: C_20  and  N_21
REMARK                            x       y       z     vdW  Elec       q    Type
REMARK                         _______ _______ _______ _____ _____    ______ ____
ROOT
ATOM      1  O   UNL     1       1.793   6.715  20.595  0.00  0.00    +0.000 OA
ATOM      2  C   UNL     1       1.634   7.884  20.252  0.00  0.00    +0.000 C 
ATOM      3  N   UNL     1       1.163   8.811  21.133  0.00  0.00    +0.000 N 
ATOM      4  C   UNL     1       0.938  10.141  20.915  0.00  0.00    +0.000 C 
ATOM      5  O   UNL     1       0.548  10.817  21.867  0.00  0.00    +0.000 OA
ATOM      6  N   UNL     1       1.218  10.627  19.643  0.00  0.00    +0.000 N 
ATOM      7  C   UNL     1       1.697   9.842  18.591  0.00  0.00    +0.000 C 
ATOM      8  O   UNL     1       1.912  10.264  17.453  0.00  0.00    +0.000 OA
ATOM      9  C   UNL     1       1.901   8.404  18.903  0.00  0.00    +0.000 C 
ATOM     10  C   UNL     1       2.335   7.606  17.912  0.00  0.00    +0.000 C 
ATOM     11  H   UNL     1       0.988   8.484  22.071  0.00  0.00    +0.000 HD
ENDROOT
BRANCH   6  12
ATOM     12  C   UNL     1       1.006  12.020  19.389  0.00  0.00    +0.000 A 
ATOM     13  C   UNL     1      -0.223  12.472  18.884  0.00  0.00    +0.000 A 
ATOM     14  C   UNL     1      -0.434  13.832  18.642  0.00  0.00    +0.000 A 
ATOM     15  C   UNL     1       0.573  14.749  18.933  0.00  0.00    +0.000 A 
ATOM     16 BR   UNL     1       0.277  16.591  18.633  0.00  0.00    +0.000 Br
ATOM     17  C   UNL     1       1.794  14.318  19.448  0.00  0.00    +0.000 A 
ATOM     18  C   UNL     1       2.017  12.955  19.658  0.00  0.00    +0.000 A 
ENDBRANCH   6  12
BRANCH  10  19
ATOM     19  N   UNL     1       2.639   6.267  17.913  0.00  0.00    +0.000 N 
ATOM     20  H   UNL     1       1.871   5.601  17.769  0.00  0.00    +0.000 HD
BRANCH  19  21
ATOM     21  C   UNL     1       3.978   5.705  17.943  0.00  0.00    +0.000 C 
BRANCH  21  22
ATOM     22  C   UNL     1       3.960   4.199  17.604  0.00  0.00    +0.000 C 
BRANCH  22  23
ATOM     23  N   UNL     1       3.190   3.337  18.530  0.00  0.00    +0.000 NA
ATOM     24  C   UNL     1       3.482   3.649  19.938  0.00  0.00    +0.000 C 
ATOM     25  C   UNL     1       2.680   2.758  20.889  0.00  0.00    +0.000 C 
ATOM     26  C   UNL     1       1.185   2.865  20.621  0.00  0.00    +0.000 C 
ATOM     27  C   UNL     1       0.895   2.600  19.151  0.00  0.00    +0.000 C 
ATOM     28  C   UNL     1       1.751   3.488  18.247  0.00  0.00    +0.000 C 
ENDBRANCH  22  23
ENDBRANCH  21  22
ENDBRANCH  19  21
ENDBRANCH  10  19
TORSDOF 5
ENDMDL
