MODEL 1
REMARK VINA RESULT:      -7.8      0.000      0.000
REMARK  Name = 
REMARK  7 active torsions:
REMARK  status: ('A' for Active; 'I' for Inactive)
REMARK    1  A    between atoms: C_1  and  C_2
REMARK    2  A    between atoms: C_4  and  C_5
REMARK    3  A    between atoms: C_5  and  O_7
REMARK    4  A    between atoms: C_10  and  N_11
REMARK    5  A    between atoms: C_12  and  C_14
REMARK    6  A    between atoms: C_19  and  C_20
REMARK    7  A    between atoms: C_20  and  O_22
REMARK                            x       y       z     vdW  Elec       q    Type
REMARK                         _______ _______ _______ _____ _____    ______ ____
ROOT
ATOM      1  N   UNL     1       5.027   3.897  17.926  0.00  0.00    +0.000 N 
ATOM      2  C   UNL     1       4.378   4.944  18.565  0.00  0.00    +0.000 C 
ATOM      3  O   UNL     1       4.551   6.111  18.202  0.00  0.00    +0.000 OA
ATOM      4  H   UNL     1       5.324   3.116  18.495  0.00  0.00    +0.000 HD
ENDROOT
BRANCH   1  11
ATOM      5  C   UNL     1       7.860   4.755  17.930  0.00  0.00    +0.000 C 
ATOM      6  C   UNL     1       7.056   4.557  16.679  0.00  0.00    +0.000 A 
ATOM      7  C   UNL     1       7.652   4.902  15.443  0.00  0.00    +0.000 A 
ATOM      8  C   UNL     1       6.970   4.745  14.226  0.00  0.00    +0.000 A 
ATOM      9  C   UNL     1       5.699   4.186  14.233  0.00  0.00    +0.000 A 
ATOM     10  C   UNL     1       5.075   3.897  15.459  0.00  0.00    +0.000 A 
ATOM     11  C   UNL     1       5.725   4.115  16.691  0.00  0.00    +0.000 A 
BRANCH   8  12
ATOM     12  C   UNL     1       7.700   5.117  12.983  0.00  0.00    +0.000 C 
ATOM     13  O   UNL     1       7.430   4.655  11.889  0.00  0.00    +0.000 OA
BRANCH  12  14
ATOM     14  O   UNL     1       8.726   5.968  13.185  0.00  0.00    +0.000 OA
ATOM     15  H   UNL     1       9.610   5.566  13.121  0.00  0.00    +0.000 HD
ENDBRANCH  12  14
ENDBRANCH   8  12
ENDBRANCH   1  11
BRANCH   2  16
ATOM     16  C   UNL     1       3.537   4.646  19.847  0.00  0.00    +0.000 C 
ATOM     17  C   UNL     1       2.313   5.597  19.765  0.00  0.00    +0.000 C 
ATOM     18  C   UNL     1       1.346   5.118  18.714  0.00  0.00    +0.000 C 
ATOM     19  C   UNL     1       1.359   3.866  18.225  0.00  0.00    +0.000 C 
ATOM     20  C   UNL     1       2.270   2.779  18.738  0.00  0.00    +0.000 C 
ATOM     21  C   UNL     1       3.006   3.202  20.027  0.00  0.00    +0.000 C 
BRANCH  21  22
ATOM     22  C   UNL     1       2.034   2.967  21.204  0.00  0.00    +0.000 C 
ATOM     23  O   UNL     1       2.335   3.142  22.379  0.00  0.00    +0.000 OA
BRANCH  22  24
ATOM     24  O   UNL     1       0.767   2.632  20.886  0.00  0.00    +0.000 OA
ATOM     25  H   UNL     1       0.203   2.262  21.583  0.00  0.00    +0.000 HD
ENDBRANCH  22  24
ENDBRANCH  21  22
ENDBRANCH   2  16
TORSDOF 6
ENDMDL
MODEL 2
REMARK VINA RESULT:      -7.7      4.278      6.831
REMARK  Name = 
REMARK  7 active torsions:
REMARK  status: ('A' for Active; 'I' for Inactive)
REMARK    1  A    between atoms: C_1  and  C_2
REMARK    2  A    between atoms: C_4  and  C_5
REMARK    3  A    between atoms: C_5  and  O_7
REMARK    4  A    between atoms: C_10  and  N_11
REMARK    5  A    between atoms: C_12  and  C_14
REMARK    6  A    between atoms: C_19  and  C_20
REMARK    7  A    between atoms: C_20  and  O_22
REMARK                            x       y       z     vdW  Elec       q    Type
REMARK                         _______ _______ _______ _____ _____    ______ ____
ROOT
ATOM      1  N   UNL     1       2.573   6.383  20.448  0.00  0.00    +0.000 N 
ATOM      2  C   UNL     1       1.878   5.182  20.492  0.00  0.00    +0.000 C 
ATOM      3  O   UNL     1       0.644   5.165  20.498  0.00  0.00    +0.000 OA
ATOM      4  H   UNL     1       3.438   6.440  20.967  0.00  0.00    +0.000 HD
ENDROOT
BRANCH   1  11
ATOM      5  C   UNL     1       2.683   7.594  17.749  0.00  0.00    +0.000 C 
ATOM      6  C   UNL     1       1.962   8.217  18.908  0.00  0.00    +0.000 A 
ATOM      7  C   UNL     1       1.397   9.502  18.729  0.00  0.00    +0.000 A 
ATOM      8  C   UNL     1       0.705  10.155  19.762  0.00  0.00    +0.000 A 
ATOM      9  C   UNL     1       0.524   9.498  20.972  0.00  0.00    +0.000 A 
ATOM     10  C   UNL     1       1.132   8.248  21.180  0.00  0.00    +0.000 A 
ATOM     11  C   UNL     1       1.888   7.613  20.173  0.00  0.00    +0.000 A 
BRANCH   8  12
ATOM     12  C   UNL     1       0.132  11.494  19.456  0.00  0.00    +0.000 C 
ATOM     13  O   UNL     1      -0.601  12.095  20.223  0.00  0.00    +0.000 OA
BRANCH  12  14
ATOM     14  O   UNL     1       0.447  11.959  18.231  0.00  0.00    +0.000 OA
ATOM     15  H   UNL     1      -0.240  12.502  17.809  0.00  0.00    +0.000 HD
ENDBRANCH  12  14
ENDBRANCH   8  12
ENDBRANCH   1  11
BRANCH   2  16
ATOM     16  C   UNL     1       2.674   3.852  20.684  0.00  0.00    +0.000 C 
ATOM     17  C   UNL     1       1.609   2.724  20.620  0.00  0.00    +0.000 C 
ATOM     18  C   UNL     1       1.136   2.531  19.203  0.00  0.00    +0.000 C 
ATOM     19  C   UNL     1       1.817   2.982  18.136  0.00  0.00    +0.000 C 
ATOM     20  C   UNL     1       3.169   3.643  18.229  0.00  0.00    +0.000 C 
ATOM     21  C   UNL     1       3.774   3.527  19.644  0.00  0.00    +0.000 C 
BRANCH  21  22
ATOM     22  C   UNL     1       4.430   2.132  19.746  0.00  0.00    +0.000 C 
ATOM     23  O   UNL     1       5.011   1.726  20.745  0.00  0.00    +0.000 OA
BRANCH  22  24
ATOM     24  O   UNL     1       4.264   1.306  18.693  0.00  0.00    +0.000 OA
ATOM     25  H   UNL     1       5.035   0.817  18.369  0.00  0.00    +0.000 HD
ENDBRANCH  22  24
ENDBRANCH  21  22
ENDBRANCH   2  16
TORSDOF 6
ENDMDL
MODEL 3
REMARK VINA RESULT:      -7.6      0.634      1.167
REMARK  Name = 
REMARK  7 active torsions:
REMARK  status: ('A' for Active; 'I' for Inactive)
REMARK    1  A    between atoms: C_1  and  C_2
REMARK    2  A    between atoms: C_4  and  C_5
REMARK    3  A    between atoms: C_5  and  O_7
REMARK    4  A    between atoms: C_10  and  N_11
REMARK    5  A    between atoms: C_12  and  C_14
REMARK    6  A    between atoms: C_19  and  C_20
REMARK    7  A    between atoms: C_20  and  O_22
REMARK                            x       y       z     vdW  Elec       q    Type
REMARK                         _______ _______ _______ _____ _____    ______ ____
ROOT
ATOM      1  N   UNL     1       5.174   4.115  18.014  0.00  0.00    +0.000 N 
ATOM      2  C   UNL     1       4.041   4.864  18.302  0.00  0.00    +0.000 C 
ATOM      3  O   UNL     1       3.729   5.831  17.602  0.00  0.00    +0.000 OA
ATOM      4  H   UNL     1       5.701   3.748  18.795  0.00  0.00    +0.000 HD
ENDROOT
BRANCH   1  11
ATOM      5  C   UNL     1       7.531   5.899  17.862  0.00  0.00    +0.000 C 
ATOM      6  C   UNL     1       6.969   5.166  16.680  0.00  0.00    +0.000 A 
ATOM      7  C   UNL     1       7.530   5.424  15.406  0.00  0.00    +0.000 A 
ATOM      8  C   UNL     1       7.064   4.779  14.250  0.00  0.00    +0.000 A 
ATOM      9  C   UNL     1       6.065   3.822  14.368  0.00  0.00    +0.000 A 
ATOM     10  C   UNL     1       5.460   3.602  15.618  0.00  0.00    +0.000 A 
ATOM     11  C   UNL     1       5.873   4.295  16.775  0.00  0.00    +0.000 A 
BRANCH   8  12
ATOM     12  C   UNL     1       7.743   5.109  12.966  0.00  0.00    +0.000 C 
ATOM     13  O   UNL     1       8.570   5.997  12.861  0.00  0.00    +0.000 OA
BRANCH  12  14
ATOM     14  O   UNL     1       7.317   4.376  11.918  0.00  0.00    +0.000 OA
ATOM     15  H   UNL     1       7.998   3.817  11.507  0.00  0.00    +0.000 HD
ENDBRANCH  12  14
ENDBRANCH   8  12
ENDBRANCH   1  11
BRANCH   2  16
ATOM     16  C   UNL     1       3.245   4.562  19.611  0.00  0.00    +0.000 C 
ATOM     17  C   UNL     1       1.763   4.872  19.270  0.00  0.00    +0.000 C 
ATOM     18  C   UNL     1       1.195   3.799  18.378  0.00  0.00    +0.000 C 
ATOM     19  C   UNL     1       1.760   2.587  18.241  0.00  0.00    +0.000 C 
ATOM     20  C   UNL     1       2.960   2.133  19.032  0.00  0.00    +0.000 C 
ATOM     21  C   UNL     1       3.313   3.118  20.166  0.00  0.00    +0.000 C 
BRANCH  21  22
ATOM     22  C   UNL     1       2.385   2.792  21.357  0.00  0.00    +0.000 C 
ATOM     23  O   UNL     1       1.630   1.829  21.387  0.00  0.00    +0.000 OA
BRANCH  22  24
ATOM     24  O   UNL     1       2.496   3.583  22.445  0.00  0.00    +0.000 OA
ATOM     25  H   UNL     1       1.801   3.533  23.119  0.00  0.00    +0.000 HD
ENDBRANCH  22  24
ENDBRANCH  21  22
ENDBRANCH   2  16
TORSDOF 6
ENDMDL
MODEL 4
REMARK VINA RESULT:      -7.3      4.186      7.456
REMARK  Name = 
REMARK  7 active torsions:
REMARK  status: ('A' for Active; 'I' for Inactive)
REMARK    1  A    between atoms: C_1  and  C_2
REMARK    2  A    between atoms: C_4  and  C_5
REMARK    3  A    between atoms: C_5  and  O_7
REMARK    4  A    between atoms: C_10  and  N_11
REMARK    5  A    between atoms: C_12  and  C_14
REMARK    6  A    between atoms: C_19  and  C_20
REMARK    7  A    between atoms: C_20  and  O_22
REMARK                            x       y       z     vdW  Elec       q    Type
REMARK                         _______ _______ _______ _____ _____    ______ ____
ROOT
ATOM      1  N   UNL     1       2.441   6.939  20.424  0.00  0.00    +0.000 N 
ATOM      2  C   UNL     1       1.811   5.703  20.466  0.00  0.00    +0.000 C 
ATOM      3  O   UNL     1       0.601   5.618  20.689  0.00  0.00    +0.000 OA
ATOM      4  H   UNL     1       3.385   6.994  20.784  0.00  0.00    +0.000 HD
ENDROOT
BRANCH   1  11
ATOM      5  C   UNL     1       2.006   8.402  17.887  0.00  0.00    +0.000 C 
ATOM      6  C   UNL     1       1.490   8.873  19.215  0.00  0.00    +0.000 A 
ATOM      7  C   UNL     1       0.855  10.137  19.272  0.00  0.00    +0.000 A 
ATOM      8  C   UNL     1       0.343  10.651  20.474  0.00  0.00    +0.000 A 
ATOM      9  C   UNL     1       0.412   9.875  21.623  0.00  0.00    +0.000 A 
ATOM     10  C   UNL     1       1.094   8.646  21.590  0.00  0.00    +0.000 A 
ATOM     11  C   UNL     1       1.673   8.150  20.404  0.00  0.00    +0.000 A 
BRANCH   8  12
ATOM     12  C   UNL     1      -0.326  11.980  20.415  0.00  0.00    +0.000 C 
ATOM     13  O   UNL     1       0.075  12.954  21.026  0.00  0.00    +0.000 OA
BRANCH  12  14
ATOM     14  O   UNL     1      -1.450  11.994  19.671  0.00  0.00    +0.000 OA
ATOM     15  H   UNL     1      -1.305  12.053  18.711  0.00  0.00    +0.000 HD
ENDBRANCH  12  14
ENDBRANCH   8  12
ENDBRANCH   1  11
BRANCH   2  16
ATOM     16  C   UNL     1       2.677   4.407  20.375  0.00  0.00    +0.000 C 
ATOM     17  C   UNL     1       1.669   3.258  20.102  0.00  0.00    +0.000 C 
ATOM     18  C   UNL     1       1.170   3.326  18.682  0.00  0.00    +0.000 C 
ATOM     19  C   UNL     1       1.800   4.018  17.718  0.00  0.00    +0.000 C 
ATOM     20  C   UNL     1       3.119   4.719  17.921  0.00  0.00    +0.000 C 
ATOM     21  C   UNL     1       3.765   4.356  19.274  0.00  0.00    +0.000 C 
BRANCH  21  22
ATOM     22  C   UNL     1       4.492   3.007  19.084  0.00  0.00    +0.000 C 
ATOM     23  O   UNL     1       4.891   2.313  20.011  0.00  0.00    +0.000 OA
BRANCH  22  24
ATOM     24  O   UNL     1       4.604   2.551  17.819  0.00  0.00    +0.000 OA
ATOM     25  H   UNL     1       5.030   3.123  17.163  0.00  0.00    +0.000 HD
ENDBRANCH  22  24
ENDBRANCH  21  22
ENDBRANCH   2  16
TORSDOF 6
ENDMDL
MODEL 5
REMARK VINA RESULT:      -7.2      4.327      6.785
REMARK  Name = 
REMARK  7 active torsions:
REMARK  status: ('A' for Active; 'I' for Inactive)
REMARK    1  A    between atoms: C_1  and  C_2
REMARK    2  A    between atoms: C_4  and  C_5
REMARK    3  A    between atoms: C_5  and  O_7
REMARK    4  A    between atoms: C_10  and  N_11
REMARK    5  A    between atoms: C_12  and  C_14
REMARK    6  A    between atoms: C_19  and  C_20
REMARK    7  A    between atoms: C_20  and  O_22
REMARK                            x       y       z     vdW  Elec       q    Type
REMARK                         _______ _______ _______ _____ _____    ______ ____
ROOT
ATOM      1  N   UNL     1       2.642   6.732  20.072  0.00  0.00    +0.000 N 
ATOM      2  C   UNL     1       1.935   5.571  20.349  0.00  0.00    +0.000 C 
ATOM      3  O   UNL     1       0.705   5.588  20.445  0.00  0.00    +0.000 OA
ATOM      4  H   UNL     1       3.545   6.845  20.514  0.00  0.00    +0.000 HD
ENDROOT
BRANCH   1  11
ATOM      5  C   UNL     1       1.387   8.514  22.076  0.00  0.00    +0.000 C 
ATOM      6  C   UNL     1       1.326   8.758  20.597  0.00  0.00    +0.000 A 
ATOM      7  C   UNL     1       0.538   9.837  20.131  0.00  0.00    +0.000 A 
ATOM      8  C   UNL     1       0.429  10.135  18.764  0.00  0.00    +0.000 A 
ATOM      9  C   UNL     1       1.159   9.386  17.851  0.00  0.00    +0.000 A 
ATOM     10  C   UNL     1       1.896   8.275  18.297  0.00  0.00    +0.000 A 
ATOM     11  C   UNL     1       1.957   7.924  19.661  0.00  0.00    +0.000 A 
BRANCH   8  12
ATOM     12  C   UNL     1      -0.409  11.307  18.387  0.00  0.00    +0.000 C 
ATOM     13  O   UNL     1      -0.348  12.380  18.962  0.00  0.00    +0.000 OA
BRANCH  12  14
ATOM     14  O   UNL     1      -1.282  11.058  17.392  0.00  0.00    +0.000 OA
ATOM     15  H   UNL     1      -2.111  10.632  17.671  0.00  0.00    +0.000 HD
ENDBRANCH  12  14
ENDBRANCH   8  12
ENDBRANCH   1  11
BRANCH   2  16
ATOM     16  C   UNL     1       2.723   4.265  20.686  0.00  0.00    +0.000 C 
ATOM     17  C   UNL     1       1.638   3.175  20.897  0.00  0.00    +0.000 C 
ATOM     18  C   UNL     1       1.037   2.771  19.576  0.00  0.00    +0.000 C 
ATOM     19  C   UNL     1       1.628   3.025  18.396  0.00  0.00    +0.000 C 
ATOM     20  C   UNL     1       2.993   3.650  18.264  0.00  0.00    +0.000 C 
ATOM     21  C   UNL     1       3.720   3.744  19.622  0.00  0.00    +0.000 C 
BRANCH  21  22
ATOM     22  C   UNL     1       4.359   2.364  19.893  0.00  0.00    +0.000 C 
ATOM     23  O   UNL     1       4.820   2.030  20.978  0.00  0.00    +0.000 OA
BRANCH  22  24
ATOM     24  O   UNL     1       4.317   1.469  18.885  0.00  0.00    +0.000 OA
ATOM     25  H   UNL     1       4.119   1.793  17.993  0.00  0.00    +0.000 HD
ENDBRANCH  22  24
ENDBRANCH  21  22
ENDBRANCH   2  16
TORSDOF 6
ENDMDL
MODEL 6
REMARK VINA RESULT:      -7.2      1.009      1.017
REMARK  Name = 
REMARK  7 active torsions:
REMARK  status: ('A' for Active; 'I' for Inactive)
REMARK    1  A    between atoms: C_1  and  C_2
REMARK    2  A    between atoms: C_4  and  C_5
REMARK    3  A    between atoms: C_5  and  O_7
REMARK    4  A    between atoms: C_10  and  N_11
REMARK    5  A    between atoms: C_12  and  C_14
REMARK    6  A    between atoms: C_19  and  C_20
REMARK    7  A    between atoms: C_20  and  O_22
REMARK                            x       y       z     vdW  Elec       q    Type
REMARK                         _______ _______ _______ _____ _____    ______ ____
ROOT
ATOM      1  N   UNL     1       4.760   4.805  17.710  0.00  0.00    +0.000 N 
ATOM      2  C   UNL     1       4.483   3.622  18.379  0.00  0.00    +0.000 C 
ATOM      3  O   UNL     1       4.733   2.530  17.862  0.00  0.00    +0.000 OA
ATOM      4  H   UNL     1       4.115   5.574  17.836  0.00  0.00    +0.000 HD
ENDROOT
BRANCH   1  11
ATOM      5  C   UNL     1       7.466   6.005  17.694  0.00  0.00    +0.000 C 
ATOM      6  C   UNL     1       6.822   5.398  16.483  0.00  0.00    +0.000 A 
ATOM      7  C   UNL     1       7.500   5.501  15.245  0.00  0.00    +0.000 A 
ATOM      8  C   UNL     1       6.968   4.959  14.064  0.00  0.00    +0.000 A 
ATOM      9  C   UNL     1       5.772   4.256  14.125  0.00  0.00    +0.000 A 
ATOM     10  C   UNL     1       5.061   4.200  15.337  0.00  0.00    +0.000 A 
ATOM     11  C   UNL     1       5.553   4.800  16.514  0.00  0.00    +0.000 A 
BRANCH   8  12
ATOM     12  C   UNL     1       7.777   5.104  12.824  0.00  0.00    +0.000 C 
ATOM     13  O   UNL     1       7.526   4.506  11.792  0.00  0.00    +0.000 OA
BRANCH  12  14
ATOM     14  O   UNL     1       8.848   5.911  12.959  0.00  0.00    +0.000 OA
ATOM     15  H   UNL     1       8.862   6.438  13.777  0.00  0.00    +0.000 HD
ENDBRANCH  12  14
ENDBRANCH   8  12
ENDBRANCH   1  11
BRANCH   2  16
ATOM     16  C   UNL     1       3.711   3.680  19.736  0.00  0.00    +0.000 C 
ATOM     17  C   UNL     1       2.956   5.037  19.720  0.00  0.00    +0.000 C 
ATOM     18  C   UNL     1       1.788   4.975  18.770  0.00  0.00    +0.000 C 
ATOM     19  C   UNL     1       1.265   3.818  18.328  0.00  0.00    +0.000 C 
ATOM     20  C   UNL     1       1.720   2.462  18.805  0.00  0.00    +0.000 C 
ATOM     21  C   UNL     1       2.675   2.563  20.011  0.00  0.00    +0.000 C 
BRANCH  21  22
ATOM     22  C   UNL     1       1.800   2.730  21.273  0.00  0.00    +0.000 C 
ATOM     23  O   UNL     1       2.253   2.917  22.395  0.00  0.00    +0.000 OA
BRANCH  22  24
ATOM     24  O   UNL     1       0.464   2.753  21.084  0.00  0.00    +0.000 OA
ATOM     25  H   UNL     1      -0.093   2.250  21.697  0.00  0.00    +0.000 HD
ENDBRANCH  22  24
ENDBRANCH  21  22
ENDBRANCH   2  16
TORSDOF 6
ENDMDL
MODEL 7
REMARK VINA RESULT:      -7.2      4.574      7.543
REMARK  Name = 
REMARK  7 active torsions:
REMARK  status: ('A' for Active; 'I' for Inactive)
REMARK    1  A    between atoms: C_1  and  C_2
REMARK    2  A    between atoms: C_4  and  C_5
REMARK    3  A    between atoms: C_5  and  O_7
REMARK    4  A    between atoms: C_10  and  N_11
REMARK    5  A    between atoms: C_12  and  C_14
REMARK    6  A    between atoms: C_19  and  C_20
REMARK    7  A    between atoms: C_20  and  O_22
REMARK                            x       y       z     vdW  Elec       q    Type
REMARK                         _______ _______ _______ _____ _____    ______ ____
ROOT
ATOM      1  N   UNL     1       1.942   7.621  20.180  0.00  0.00    +0.000 N 
ATOM      2  C   UNL     1       2.467   6.837  19.162  0.00  0.00    +0.000 C 
ATOM      3  O   UNL     1       2.171   7.050  17.984  0.00  0.00    +0.000 OA
ATOM      4  H   UNL     1       1.726   7.164  21.056  0.00  0.00    +0.000 HD
ENDROOT
BRANCH   1  11
ATOM      5  C   UNL     1      -0.193   8.607  21.979  0.00  0.00    +0.000 C 
ATOM      6  C   UNL     1       0.197   9.292  20.703  0.00  0.00    +0.000 A 
ATOM      7  C   UNL     1      -0.567  10.407  20.284  0.00  0.00    +0.000 A 
ATOM      8  C   UNL     1      -0.267  11.107  19.104  0.00  0.00    +0.000 A 
ATOM      9  C   UNL     1       0.841  10.727  18.359  0.00  0.00    +0.000 A 
ATOM     10  C   UNL     1       1.570   9.585  18.733  0.00  0.00    +0.000 A 
ATOM     11  C   UNL     1       1.236   8.833  19.878  0.00  0.00    +0.000 A 
BRANCH   8  12
ATOM     12  C   UNL     1      -1.122  12.279  18.772  0.00  0.00    +0.000 C 
ATOM     13  O   UNL     1      -1.888  12.791  19.570  0.00  0.00    +0.000 OA
BRANCH  12  14
ATOM     14  O   UNL     1      -1.017  12.689  17.493  0.00  0.00    +0.000 OA
ATOM     15  H   UNL     1      -1.260  12.021  16.828  0.00  0.00    +0.000 HD
ENDBRANCH  12  14
ENDBRANCH   8  12
ENDBRANCH   1  11
BRANCH   2  16
ATOM     16  C   UNL     1       3.323   5.585  19.535  0.00  0.00    +0.000 C 
ATOM     17  C   UNL     1       2.588   4.928  20.734  0.00  0.00    +0.000 C 
ATOM     18  C   UNL     1       1.331   4.242  20.267  0.00  0.00    +0.000 C 
ATOM     19  C   UNL     1       1.109   3.919  18.981  0.00  0.00    +0.000 C 
ATOM     20  C   UNL     1       2.125   4.115  17.885  0.00  0.00    +0.000 C 
ATOM     21  C   UNL     1       3.510   4.503  18.442  0.00  0.00    +0.000 C 
BRANCH  21  22
ATOM     22  C   UNL     1       4.208   3.196  18.878  0.00  0.00    +0.000 C 
ATOM     23  O   UNL     1       3.764   2.079  18.647  0.00  0.00    +0.000 OA
BRANCH  22  24
ATOM     24  O   UNL     1       5.415   3.322  19.468  0.00  0.00    +0.000 OA
ATOM     25  H   UNL     1       5.888   4.162  19.368  0.00  0.00    +0.000 HD
ENDBRANCH  22  24
ENDBRANCH  21  22
ENDBRANCH   2  16
TORSDOF 6
ENDMDL
MODEL 8
REMARK VINA RESULT:      -7.1      4.364      7.950
REMARK  Name = 
REMARK  7 active torsions:
REMARK  status: ('A' for Active; 'I' for Inactive)
REMARK    1  A    between atoms: C_1  and  C_2
REMARK    2  A    between atoms: C_4  and  C_5
REMARK    3  A    between atoms: C_5  and  O_7
REMARK    4  A    between atoms: C_10  and  N_11
REMARK    5  A    between atoms: C_12  and  C_14
REMARK    6  A    between atoms: C_19  and  C_20
REMARK    7  A    between atoms: C_20  and  O_22
REMARK                            x       y       z     vdW  Elec       q    Type
REMARK                         _______ _______ _______ _____ _____    ______ ____
ROOT
ATOM      1  N   UNL     1       2.436   7.287  20.324  0.00  0.00    +0.000 N 
ATOM      2  C   UNL     1       2.037   5.961  20.413  0.00  0.00    +0.000 C 
ATOM      3  O   UNL     1       0.935   5.663  20.882  0.00  0.00    +0.000 OA
ATOM      4  H   UNL     1       3.415   7.491  20.478  0.00  0.00    +0.000 HD
ENDROOT
BRANCH   1  11
ATOM      5  C   UNL     1       1.522   8.993  18.083  0.00  0.00    +0.000 C 
ATOM      6  C   UNL     1       1.086   9.189  19.505  0.00  0.00    +0.000 A 
ATOM      7  C   UNL     1       0.280  10.312  19.806  0.00  0.00    +0.000 A 
ATOM      8  C   UNL     1      -0.173  10.568  21.111  0.00  0.00    +0.000 A 
ATOM      9  C   UNL     1       0.132   9.663  22.119  0.00  0.00    +0.000 A 
ATOM     10  C   UNL     1       0.982   8.578  21.843  0.00  0.00    +0.000 A 
ATOM     11  C   UNL     1       1.499   8.349  20.551  0.00  0.00    +0.000 A 
BRANCH   8  12
ATOM     12  C   UNL     1      -1.034  11.765  21.310  0.00  0.00    +0.000 C 
ATOM     13  O   UNL     1      -1.270  12.240  22.407  0.00  0.00    +0.000 OA
BRANCH  12  14
ATOM     14  O   UNL     1      -1.578  12.244  20.173  0.00  0.00    +0.000 OA
ATOM     15  H   UNL     1      -1.017  12.870  19.683  0.00  0.00    +0.000 HD
ENDBRANCH  12  14
ENDBRANCH   8  12
ENDBRANCH   1  11
BRANCH   2  16
ATOM     16  C   UNL     1       3.057   4.836  20.050  0.00  0.00    +0.000 C 
ATOM     17  C   UNL     1       2.220   3.531  19.979  0.00  0.00    +0.000 C 
ATOM     18  C   UNL     1       1.377   3.516  18.731  0.00  0.00    +0.000 C 
ATOM     19  C   UNL     1       1.620   4.311  17.675  0.00  0.00    +0.000 C 
ATOM     20  C   UNL     1       2.811   5.230  17.580  0.00  0.00    +0.000 C 
ATOM     21  C   UNL     1       3.827   4.980  18.714  0.00  0.00    +0.000 C 
BRANCH  21  22
ATOM     22  C   UNL     1       4.699   3.779  18.287  0.00  0.00    +0.000 C 
ATOM     23  O   UNL     1       4.658   3.270  17.174  0.00  0.00    +0.000 OA
BRANCH  22  24
ATOM     24  O   UNL     1       5.608   3.342  19.183  0.00  0.00    +0.000 OA
ATOM     25  H   UNL     1       5.595   3.727  20.073  0.00  0.00    +0.000 HD
ENDBRANCH  22  24
ENDBRANCH  21  22
ENDBRANCH   2  16
TORSDOF 6
ENDMDL
MODEL 9
REMARK VINA RESULT:      -7.1      0.995      1.906
REMARK  Name = 
REMARK  7 active torsions:
REMARK  status: ('A' for Active; 'I' for Inactive)
REMARK    1  A    between atoms: C_1  and  C_2
REMARK    2  A    between atoms: C_4  and  C_5
REMARK    3  A    between atoms: C_5  and  O_7
REMARK    4  A    between atoms: C_10  and  N_11
REMARK    5  A    between atoms: C_12  and  C_14
REMARK    6  A    between atoms: C_19  and  C_20
REMARK    7  A    between atoms: C_20  and  O_22
REMARK                            x       y       z     vdW  Elec       q    Type
REMARK                         _______ _______ _______ _____ _____    ______ ____
ROOT
ATOM      1  N   UNL     1       4.455   3.361  16.939  0.00  0.00    +0.000 N 
ATOM      2  C   UNL     1       3.515   4.238  17.462  0.00  0.00    +0.000 C 
ATOM      3  O   UNL     1       3.605   5.452  17.262  0.00  0.00    +0.000 OA
ATOM      4  H   UNL     1       4.704   2.556  17.499  0.00  0.00    +0.000 HD
ENDROOT
BRANCH   1  11
ATOM      5  C   UNL     1       6.999   4.607  17.799  0.00  0.00    +0.000 C 
ATOM      6  C   UNL     1       6.605   4.434  16.361  0.00  0.00    +0.000 A 
ATOM      7  C   UNL     1       7.445   4.992  15.368  0.00  0.00    +0.000 A 
ATOM      8  C   UNL     1       7.150   4.874  14.001  0.00  0.00    +0.000 A 
ATOM      9  C   UNL     1       6.035   4.143  13.613  0.00  0.00    +0.000 A 
ATOM     10  C   UNL     1       5.163   3.637  14.591  0.00  0.00    +0.000 A 
ATOM     11  C   UNL     1       5.412   3.808  15.969  0.00  0.00    +0.000 A 
BRANCH   8  12
ATOM     12  C   UNL     1       8.114   5.479  13.042  0.00  0.00    +0.000 C 
ATOM     13  O   UNL     1       9.120   6.071  13.394  0.00  0.00    +0.000 OA
BRANCH  12  14
ATOM     14  O   UNL     1       7.747   5.365  11.750  0.00  0.00    +0.000 OA
ATOM     15  H   UNL     1       7.563   4.456  11.455  0.00  0.00    +0.000 HD
ENDBRANCH  12  14
ENDBRANCH   8  12
ENDBRANCH   1  11
BRANCH   2  16
ATOM     16  C   UNL     1       2.421   3.688  18.431  0.00  0.00    +0.000 C 
ATOM     17  C   UNL     1       2.462   2.145  18.263  0.00  0.00    +0.000 C 
ATOM     18  C   UNL     1       3.691   1.578  18.924  0.00  0.00    +0.000 C 
ATOM     19  C   UNL     1       4.405   2.253  19.841  0.00  0.00    +0.000 C 
ATOM     20  C   UNL     1       4.007   3.603  20.380  0.00  0.00    +0.000 C 
ATOM     21  C   UNL     1       2.584   4.006  19.938  0.00  0.00    +0.000 C 
BRANCH  21  22
ATOM     22  C   UNL     1       1.595   3.312  20.900  0.00  0.00    +0.000 C 
ATOM     23  O   UNL     1       1.885   2.963  22.038  0.00  0.00    +0.000 OA
BRANCH  22  24
ATOM     24  O   UNL     1       0.325   3.173  20.467  0.00  0.00    +0.000 OA
ATOM     25  H   UNL     1       0.057   2.314  20.104  0.00  0.00    +0.000 HD
ENDBRANCH  22  24
ENDBRANCH  21  22
ENDBRANCH   2  16
TORSDOF 6
ENDMDL
