MODEL 1
REMARK VINA RESULT:      -7.0      0.000      0.000
REMARK  Name = 
REMARK  6 active torsions:
REMARK  status: ('A' for Active; 'I' for Inactive)
REMARK    1  A    between atoms: C_2  and  O_3
REMARK    2  A    between atoms: C_2  and  C_10
REMARK    3  A    between atoms: O_3  and  C_4
REMARK    4  A    between atoms: C_16  and  P_17
REMARK    5  A    between atoms: P_17  and  O_19
REMARK    6  A    between atoms: P_17  and  O_20
REMARK                            x       y       z     vdW  Elec       q    Type
REMARK                         _______ _______ _______ _____ _____    ______ ____
ROOT
ATOM      1  C   UNL     1       4.565   5.145  17.729  0.00  0.00    +0.000 A 
ATOM      2  C   UNL     1       4.242   6.451  17.313  0.00  0.00    +0.000 A 
ATOM      3 CL   UNL     1       4.970   7.224  15.946  0.00  0.00    +0.000 Cl
ATOM      4  C   UNL     1       3.206   7.160  17.935  0.00  0.00    +0.000 A 
ATOM      5  C   UNL     1       2.475   6.579  18.962  0.00  0.00    +0.000 A 
ATOM      6  C   UNL     1       2.739   5.263  19.325  0.00  0.00    +0.000 A 
ATOM      7  C   UNL     1       3.754   4.509  18.696  0.00  0.00    +0.000 A 
ENDROOT
BRANCH   1   9
ATOM      8  O   UNL     1       6.767   4.312  17.602  0.00  0.00    +0.000 OA
ATOM      9  C   UNL     1       5.666   4.397  17.078  0.00  0.00    +0.000 C 
BRANCH   9  10
ATOM     10  O   UNL     1       5.276   3.891  15.842  0.00  0.00    +0.000 OA
BRANCH  10  11
ATOM     11  C   UNL     1       5.960   4.109  14.614  0.00  0.00    +0.000 A 
ATOM     12  C   UNL     1       7.092   4.914  14.486  0.00  0.00    +0.000 A 
ATOM     13  C   UNL     1       7.706   5.053  13.237  0.00  0.00    +0.000 A 
ATOM     14  C   UNL     1       7.208   4.374  12.127  0.00  0.00    +0.000 A 
ATOM     15  C   UNL     1       6.094   3.549  12.262  0.00  0.00    +0.000 A 
ATOM     16  C   UNL     1       5.468   3.414  13.506  0.00  0.00    +0.000 A 
ENDBRANCH  10  11
ENDBRANCH   9  10
ENDBRANCH   1   9
BRANCH   7  17
ATOM     17  P   UNL     1       3.821   2.807  19.150  0.00  0.00    +0.000 P 
ATOM     18  O   UNL     1       2.755   2.270  20.053  0.00  0.00    +0.000 OA
BRANCH  17  19
ATOM     19  O   UNL     1       3.944   1.909  17.822  0.00  0.00    +0.000 OA
ATOM     20  H   UNL     1       4.156   0.967  18.032  0.00  0.00    +0.000 HD
ENDBRANCH  17  19
BRANCH  17  21
ATOM     21  O   UNL     1       5.251   2.488  19.801  0.00  0.00    +0.000 OA
ATOM     22  H   UNL     1       5.878   3.192  19.537  0.00  0.00    +0.000 HD
ENDBRANCH  17  21
ENDBRANCH   7  17
TORSDOF 6
ENDMDL
MODEL 2
REMARK VINA RESULT:      -7.0      2.819      5.492
REMARK  Name = 
REMARK  6 active torsions:
REMARK  status: ('A' for Active; 'I' for Inactive)
REMARK    1  A    between atoms: C_2  and  O_3
REMARK    2  A    between atoms: C_2  and  C_10
REMARK    3  A    between atoms: O_3  and  C_4
REMARK    4  A    between atoms: C_16  and  P_17
REMARK    5  A    between atoms: P_17  and  O_19
REMARK    6  A    between atoms: P_17  and  O_20
REMARK                            x       y       z     vdW  Elec       q    Type
REMARK                         _______ _______ _______ _____ _____    ______ ____
ROOT
ATOM      1  C   UNL     1       4.808   5.302  17.935  0.00  0.00    +0.000 A 
ATOM      2  C   UNL     1       3.864   6.255  18.364  0.00  0.00    +0.000 A 
ATOM      3 CL   UNL     1       3.176   6.266  19.953  0.00  0.00    +0.000 Cl
ATOM      4  C   UNL     1       3.516   7.333  17.541  0.00  0.00    +0.000 A 
ATOM      5  C   UNL     1       4.108   7.484  16.294  0.00  0.00    +0.000 A 
ATOM      6  C   UNL     1       5.095   6.590  15.897  0.00  0.00    +0.000 A 
ATOM      7  C   UNL     1       5.494   5.511  16.717  0.00  0.00    +0.000 A 
ENDROOT
BRANCH   1   9
ATOM      8  O   UNL     1       6.126   4.218  19.562  0.00  0.00    +0.000 OA
ATOM      9  C   UNL     1       5.172   4.156  18.802  0.00  0.00    +0.000 C 
BRANCH   9  10
ATOM     10  O   UNL     1       4.335   3.066  18.580  0.00  0.00    +0.000 OA
BRANCH  10  11
ATOM     11  C   UNL     1       3.044   2.894  19.154  0.00  0.00    +0.000 A 
ATOM     12  C   UNL     1       2.801   2.859  20.527  0.00  0.00    +0.000 A 
ATOM     13  C   UNL     1       1.492   2.702  20.995  0.00  0.00    +0.000 A 
ATOM     14  C   UNL     1       0.430   2.606  20.100  0.00  0.00    +0.000 A 
ATOM     15  C   UNL     1       0.671   2.669  18.730  0.00  0.00    +0.000 A 
ATOM     16  C   UNL     1       1.979   2.815  18.253  0.00  0.00    +0.000 A 
ENDBRANCH  10  11
ENDBRANCH   9  10
ENDBRANCH   1   9
BRANCH   7  17
ATOM     17  P   UNL     1       6.885   4.597  16.139  0.00  0.00    +0.000 P 
ATOM     18  O   UNL     1       8.033   4.382  17.074  0.00  0.00    +0.000 OA
BRANCH  17  19
ATOM     19  O   UNL     1       6.383   3.198  15.527  0.00  0.00    +0.000 OA
ATOM     20  H   UNL     1       5.594   3.312  14.944  0.00  0.00    +0.000 HD
ENDBRANCH  17  19
BRANCH  17  21
ATOM     21  O   UNL     1       7.441   5.271  14.795  0.00  0.00    +0.000 OA
ATOM     22  H   UNL     1       7.293   4.652  14.051  0.00  0.00    +0.000 HD
ENDBRANCH  17  21
ENDBRANCH   7  17
TORSDOF 6
ENDMDL
MODEL 3
REMARK VINA RESULT:      -7.0      2.824      5.556
REMARK  Name = 
REMARK  6 active torsions:
REMARK  status: ('A' for Active; 'I' for Inactive)
REMARK    1  A    between atoms: C_2  and  O_3
REMARK    2  A    between atoms: C_2  and  C_10
REMARK    3  A    between atoms: O_3  and  C_4
REMARK    4  A    between atoms: C_16  and  P_17
REMARK    5  A    between atoms: P_17  and  O_19
REMARK    6  A    between atoms: P_17  and  O_20
REMARK                            x       y       z     vdW  Elec       q    Type
REMARK                         _______ _______ _______ _____ _____    ______ ____
ROOT
ATOM      1  C   UNL     1       4.826   5.279  17.844  0.00  0.00    +0.000 A 
ATOM      2  C   UNL     1       3.901   6.215  18.346  0.00  0.00    +0.000 A 
ATOM      3 CL   UNL     1       3.262   6.156  19.954  0.00  0.00    +0.000 Cl
ATOM      4  C   UNL     1       3.535   7.332  17.584  0.00  0.00    +0.000 A 
ATOM      5  C   UNL     1       4.089   7.538  16.328  0.00  0.00    +0.000 A 
ATOM      6  C   UNL     1       5.059   6.658  15.860  0.00  0.00    +0.000 A 
ATOM      7  C   UNL     1       5.476   5.541  16.618  0.00  0.00    +0.000 A 
ENDROOT
BRANCH   1   9
ATOM      8  O   UNL     1       6.190   4.112  19.373  0.00  0.00    +0.000 OA
ATOM      9  C   UNL     1       5.208   4.092  18.646  0.00  0.00    +0.000 C 
BRANCH   9  10
ATOM     10  O   UNL     1       4.353   3.020  18.406  0.00  0.00    +0.000 OA
BRANCH  10  11
ATOM     11  C   UNL     1       3.035   2.891  18.928  0.00  0.00    +0.000 A 
ATOM     12  C   UNL     1       1.887   2.841  18.138  0.00  0.00    +0.000 A 
ATOM     13  C   UNL     1       0.635   2.695  18.743  0.00  0.00    +0.000 A 
ATOM     14  C   UNL     1       0.530   2.576  20.127  0.00  0.00    +0.000 A 
ATOM     15  C   UNL     1       1.680   2.600  20.912  0.00  0.00    +0.000 A 
ATOM     16  C   UNL     1       2.935   2.756  20.315  0.00  0.00    +0.000 A 
ENDBRANCH  10  11
ENDBRANCH   9  10
ENDBRANCH   1   9
BRANCH   7  17
ATOM     17  P   UNL     1       6.843   4.647  15.955  0.00  0.00    +0.000 P 
ATOM     18  O   UNL     1       7.578   5.235  14.791  0.00  0.00    +0.000 OA
BRANCH  17  19
ATOM     19  O   UNL     1       7.863   4.281  17.142  0.00  0.00    +0.000 OA
ATOM     20  H   UNL     1       8.104   3.324  17.140  0.00  0.00    +0.000 HD
ENDBRANCH  17  19
BRANCH  17  21
ATOM     21  O   UNL     1       6.371   3.166  15.566  0.00  0.00    +0.000 OA
ATOM     22  H   UNL     1       6.378   3.082  14.591  0.00  0.00    +0.000 HD
ENDBRANCH  17  21
ENDBRANCH   7  17
TORSDOF 6
ENDMDL
MODEL 4
REMARK VINA RESULT:      -6.9      0.104      1.082
REMARK  Name = 
REMARK  6 active torsions:
REMARK  status: ('A' for Active; 'I' for Inactive)
REMARK    1  A    between atoms: C_2  and  O_3
REMARK    2  A    between atoms: C_2  and  C_10
REMARK    3  A    between atoms: O_3  and  C_4
REMARK    4  A    between atoms: C_16  and  P_17
REMARK    5  A    between atoms: P_17  and  O_19
REMARK    6  A    between atoms: P_17  and  O_20
REMARK                            x       y       z     vdW  Elec       q    Type
REMARK                         _______ _______ _______ _____ _____    ______ ____
ROOT
ATOM      1  C   UNL     1       4.583   5.152  17.678  0.00  0.00    +0.000 A 
ATOM      2  C   UNL     1       4.264   6.454  17.247  0.00  0.00    +0.000 A 
ATOM      3 CL   UNL     1       5.002   7.212  15.877  0.00  0.00    +0.000 Cl
ATOM      4  C   UNL     1       3.225   7.170  17.855  0.00  0.00    +0.000 A 
ATOM      5  C   UNL     1       2.486   6.600  18.883  0.00  0.00    +0.000 A 
ATOM      6  C   UNL     1       2.747   5.287  19.261  0.00  0.00    +0.000 A 
ATOM      7  C   UNL     1       3.765   4.526  18.645  0.00  0.00    +0.000 A 
ENDROOT
BRANCH   1   9
ATOM      8  O   UNL     1       6.798   4.354  17.552  0.00  0.00    +0.000 OA
ATOM      9  C   UNL     1       5.688   4.396  17.042  0.00  0.00    +0.000 C 
BRANCH   9  10
ATOM     10  O   UNL     1       5.288   3.830  15.835  0.00  0.00    +0.000 OA
BRANCH  10  11
ATOM     11  C   UNL     1       5.949   4.008  14.588  0.00  0.00    +0.000 A 
ATOM     12  C   UNL     1       5.536   3.412  13.396  0.00  0.00    +0.000 A 
ATOM     13  C   UNL     1       6.242   3.662  12.215  0.00  0.00    +0.000 A 
ATOM     14  C   UNL     1       7.340   4.520  12.218  0.00  0.00    +0.000 A 
ATOM     15  C   UNL     1       7.734   5.135  13.404  0.00  0.00    +0.000 A 
ATOM     16  C   UNL     1       7.039   4.882  14.591  0.00  0.00    +0.000 A 
ENDBRANCH  10  11
ENDBRANCH   9  10
ENDBRANCH   1   9
BRANCH   7  17
ATOM     17  P   UNL     1       3.827   2.828  19.117  0.00  0.00    +0.000 P 
ATOM     18  O   UNL     1       2.777   2.311  20.049  0.00  0.00    +0.000 OA
BRANCH  17  19
ATOM     19  O   UNL     1       3.913   1.915  17.797  0.00  0.00    +0.000 OA
ATOM     20  H   UNL     1       4.777   1.440  17.731  0.00  0.00    +0.000 HD
ENDBRANCH  17  19
BRANCH  17  21
ATOM     21  O   UNL     1       5.268   2.503  19.739  0.00  0.00    +0.000 OA
ATOM     22  H   UNL     1       5.230   2.649  20.706  0.00  0.00    +0.000 HD
ENDBRANCH  17  21
ENDBRANCH   7  17
TORSDOF 6
ENDMDL
MODEL 5
REMARK VINA RESULT:      -6.7      2.618      3.690
REMARK  Name = 
REMARK  6 active torsions:
REMARK  status: ('A' for Active; 'I' for Inactive)
REMARK    1  A    between atoms: C_2  and  O_3
REMARK    2  A    between atoms: C_2  and  C_10
REMARK    3  A    between atoms: O_3  and  C_4
REMARK    4  A    between atoms: C_16  and  P_17
REMARK    5  A    between atoms: P_17  and  O_19
REMARK    6  A    between atoms: P_17  and  O_20
REMARK                            x       y       z     vdW  Elec       q    Type
REMARK                         _______ _______ _______ _____ _____    ______ ____
ROOT
ATOM      1  C   UNL     1       2.641   5.196  18.731  0.00  0.00    +0.000 A 
ATOM      2  C   UNL     1       2.753   6.595  18.620  0.00  0.00    +0.000 A 
ATOM      3 CL   UNL     1       3.396   7.392  17.224  0.00  0.00    +0.000 Cl
ATOM      4  C   UNL     1       2.231   7.432  19.614  0.00  0.00    +0.000 A 
ATOM      5  C   UNL     1       1.583   6.892  20.717  0.00  0.00    +0.000 A 
ATOM      6  C   UNL     1       1.402   5.516  20.794  0.00  0.00    +0.000 A 
ATOM      7  C   UNL     1       1.887   4.646  19.791  0.00  0.00    +0.000 A 
ENDROOT
BRANCH   1   9
ATOM      8  O   UNL     1       2.533   3.974  16.717  0.00  0.00    +0.000 OA
ATOM      9  C   UNL     1       3.201   4.308  17.684  0.00  0.00    +0.000 C 
BRANCH   9  10
ATOM     10  O   UNL     1       4.500   3.914  17.993  0.00  0.00    +0.000 OA
BRANCH  10  11
ATOM     11  C   UNL     1       5.633   4.774  18.019  0.00  0.00    +0.000 A 
ATOM     12  C   UNL     1       6.133   5.437  16.898  0.00  0.00    +0.000 A 
ATOM     13  C   UNL     1       7.244   6.276  17.027  0.00  0.00    +0.000 A 
ATOM     14  C   UNL     1       7.839   6.472  18.271  0.00  0.00    +0.000 A 
ATOM     15  C   UNL     1       7.322   5.831  19.394  0.00  0.00    +0.000 A 
ATOM     16  C   UNL     1       6.217   4.981  19.271  0.00  0.00    +0.000 A 
ENDBRANCH  10  11
ENDBRANCH   9  10
ENDBRANCH   1   9
BRANCH   7  17
ATOM     17  P   UNL     1       1.403   2.959  19.957  0.00  0.00    +0.000 P 
ATOM     18  O   UNL     1       0.365   2.423  19.022  0.00  0.00    +0.000 OA
BRANCH  17  19
ATOM     19  O   UNL     1       2.713   2.028  19.943  0.00  0.00    +0.000 OA
ATOM     20  H   UNL     1       3.506   2.500  20.296  0.00  0.00    +0.000 HD
ENDBRANCH  17  19
BRANCH  17  21
ATOM     21  O   UNL     1       0.923   2.691  21.463  0.00  0.00    +0.000 OA
ATOM     22  H   UNL     1      -0.056   2.711  21.486  0.00  0.00    +0.000 HD
ENDBRANCH  17  21
ENDBRANCH   7  17
TORSDOF 6
ENDMDL
MODEL 6
REMARK VINA RESULT:      -6.7      2.710      3.764
REMARK  Name = 
REMARK  6 active torsions:
REMARK  status: ('A' for Active; 'I' for Inactive)
REMARK    1  A    between atoms: C_2  and  O_3
REMARK    2  A    between atoms: C_2  and  C_10
REMARK    3  A    between atoms: O_3  and  C_4
REMARK    4  A    between atoms: C_16  and  P_17
REMARK    5  A    between atoms: P_17  and  O_19
REMARK    6  A    between atoms: P_17  and  O_20
REMARK                            x       y       z     vdW  Elec       q    Type
REMARK                         _______ _______ _______ _____ _____    ______ ____
ROOT
ATOM      1  C   UNL     1       2.827   5.273  18.757  0.00  0.00    +0.000 A 
ATOM      2  C   UNL     1       2.805   6.673  18.604  0.00  0.00    +0.000 A 
ATOM      3 CL   UNL     1       3.354   7.486  17.178  0.00  0.00    +0.000 Cl
ATOM      4  C   UNL     1       2.216   7.486  19.581  0.00  0.00    +0.000 A 
ATOM      5  C   UNL     1       1.634   6.921  20.708  0.00  0.00    +0.000 A 
ATOM      6  C   UNL     1       1.585   5.537  20.826  0.00  0.00    +0.000 A 
ATOM      7  C   UNL     1       2.139   4.687  19.843  0.00  0.00    +0.000 A 
ENDROOT
BRANCH   1   9
ATOM      8  O   UNL     1       2.828   4.032  16.752  0.00  0.00    +0.000 OA
ATOM      9  C   UNL     1       3.457   4.412  17.728  0.00  0.00    +0.000 C 
BRANCH   9  10
ATOM     10  O   UNL     1       4.770   4.096  18.065  0.00  0.00    +0.000 OA
BRANCH  10  11
ATOM     11  C   UNL     1       5.854   5.017  18.090  0.00  0.00    +0.000 A 
ATOM     12  C   UNL     1       6.202   5.839  17.018  0.00  0.00    +0.000 A 
ATOM     13  C   UNL     1       7.275   6.726  17.144  0.00  0.00    +0.000 A 
ATOM     14  C   UNL     1       7.984   6.810  18.341  0.00  0.00    +0.000 A 
ATOM     15  C   UNL     1       7.618   6.008  19.419  0.00  0.00    +0.000 A 
ATOM     16  C   UNL     1       6.552   5.111  19.296  0.00  0.00    +0.000 A 
ENDBRANCH  10  11
ENDBRANCH   9  10
ENDBRANCH   1   9
BRANCH   7  17
ATOM     17  P   UNL     1       1.819   2.968  20.063  0.00  0.00    +0.000 P 
ATOM     18  O   UNL     1       2.984   2.040  20.201  0.00  0.00    +0.000 OA
BRANCH  17  19
ATOM     19  O   UNL     1       0.792   2.773  21.285  0.00  0.00    +0.000 OA
ATOM     20  H   UNL     1      -0.053   2.353  20.994  0.00  0.00    +0.000 HD
ENDBRANCH  17  19
BRANCH  17  21
ATOM     21  O   UNL     1       0.887   2.445  18.868  0.00  0.00    +0.000 OA
ATOM     22  H   UNL     1       1.026   3.022  18.090  0.00  0.00    +0.000 HD
ENDBRANCH  17  21
ENDBRANCH   7  17
TORSDOF 6
ENDMDL
MODEL 7
REMARK VINA RESULT:      -6.7      2.642      3.632
REMARK  Name = 
REMARK  6 active torsions:
REMARK  status: ('A' for Active; 'I' for Inactive)
REMARK    1  A    between atoms: C_2  and  O_3
REMARK    2  A    between atoms: C_2  and  C_10
REMARK    3  A    between atoms: O_3  and  C_4
REMARK    4  A    between atoms: C_16  and  P_17
REMARK    5  A    between atoms: P_17  and  O_19
REMARK    6  A    between atoms: P_17  and  O_20
REMARK                            x       y       z     vdW  Elec       q    Type
REMARK                         _______ _______ _______ _____ _____    ______ ____
ROOT
ATOM      1  C   UNL     1       2.656   5.227  18.756  0.00  0.00    +0.000 A 
ATOM      2  C   UNL     1       2.756   6.627  18.647  0.00  0.00    +0.000 A 
ATOM      3 CL   UNL     1       3.414   7.431  17.262  0.00  0.00    +0.000 Cl
ATOM      4  C   UNL     1       2.207   7.459  19.632  0.00  0.00    +0.000 A 
ATOM      5  C   UNL     1       1.546   6.913  20.723  0.00  0.00    +0.000 A 
ATOM      6  C   UNL     1       1.378   5.535  20.797  0.00  0.00    +0.000 A 
ATOM      7  C   UNL     1       1.889   4.670  19.804  0.00  0.00    +0.000 A 
ENDROOT
BRANCH   1   9
ATOM      8  O   UNL     1       2.598   4.011  16.737  0.00  0.00    +0.000 OA
ATOM      9  C   UNL     1       3.244   4.346  17.719  0.00  0.00    +0.000 C 
BRANCH   9  10
ATOM     10  O   UNL     1       4.536   3.956  18.057  0.00  0.00    +0.000 OA
BRANCH  10  11
ATOM     11  C   UNL     1       5.656   4.829  18.155  0.00  0.00    +0.000 A 
ATOM     12  C   UNL     1       6.365   5.056  19.334  0.00  0.00    +0.000 A 
ATOM     13  C   UNL     1       7.465   5.920  19.327  0.00  0.00    +0.000 A 
ATOM     14  C   UNL     1       7.869   6.536  18.144  0.00  0.00    +0.000 A 
ATOM     15  C   UNL     1       7.176   6.287  16.962  0.00  0.00    +0.000 A 
ATOM     16  C   UNL     1       6.069   5.432  16.964  0.00  0.00    +0.000 A 
ENDBRANCH  10  11
ENDBRANCH   9  10
ENDBRANCH   1   9
BRANCH   7  17
ATOM     17  P   UNL     1       1.420   2.978  19.962  0.00  0.00    +0.000 P 
ATOM     18  O   UNL     1       0.385   2.438  19.025  0.00  0.00    +0.000 OA
BRANCH  17  19
ATOM     19  O   UNL     1       2.738   2.059  19.942  0.00  0.00    +0.000 OA
ATOM     20  H   UNL     1       2.551   1.152  19.598  0.00  0.00    +0.000 HD
ENDBRANCH  17  19
BRANCH  17  21
ATOM     21  O   UNL     1       0.942   2.699  21.466  0.00  0.00    +0.000 OA
ATOM     22  H   UNL     1       1.052   3.520  21.986  0.00  0.00    +0.000 HD
ENDBRANCH  17  21
ENDBRANCH   7  17
TORSDOF 6
ENDMDL
MODEL 8
REMARK VINA RESULT:      -6.7      2.698      3.510
REMARK  Name = 
REMARK  6 active torsions:
REMARK  status: ('A' for Active; 'I' for Inactive)
REMARK    1  A    between atoms: C_2  and  O_3
REMARK    2  A    between atoms: C_2  and  C_10
REMARK    3  A    between atoms: O_3  and  C_4
REMARK    4  A    between atoms: C_16  and  P_17
REMARK    5  A    between atoms: P_17  and  O_19
REMARK    6  A    between atoms: P_17  and  O_20
REMARK                            x       y       z     vdW  Elec       q    Type
REMARK                         _______ _______ _______ _____ _____    ______ ____
ROOT
ATOM      1  C   UNL     1       3.090   5.125  18.686  0.00  0.00    +0.000 A 
ATOM      2  C   UNL     1       2.905   6.516  18.569  0.00  0.00    +0.000 A 
ATOM      3 CL   UNL     1       3.345   7.421  17.160  0.00  0.00    +0.000 Cl
ATOM      4  C   UNL     1       2.235   7.231  19.570  0.00  0.00    +0.000 A 
ATOM      5  C   UNL     1       1.731   6.575  20.684  0.00  0.00    +0.000 A 
ATOM      6  C   UNL     1       1.844   5.192  20.768  0.00  0.00    +0.000 A 
ATOM      7  C   UNL     1       2.484   4.436  19.760  0.00  0.00    +0.000 A 
ENDROOT
BRANCH   1   9
ATOM      8  O   UNL     1       3.228   3.983  16.627  0.00  0.00    +0.000 OA
ATOM      9  C   UNL     1       3.807   4.368  17.632  0.00  0.00    +0.000 C 
BRANCH   9  10
ATOM     10  O   UNL     1       5.136   4.146  17.981  0.00  0.00    +0.000 OA
BRANCH  10  11
ATOM     11  C   UNL     1       6.142   5.149  18.055  0.00  0.00    +0.000 A 
ATOM     12  C   UNL     1       6.366   6.103  17.062  0.00  0.00    +0.000 A 
ATOM     13  C   UNL     1       7.370   7.061  17.235  0.00  0.00    +0.000 A 
ATOM     14  C   UNL     1       8.130   7.083  18.402  0.00  0.00    +0.000 A 
ATOM     15  C   UNL     1       7.887   6.147  19.404  0.00  0.00    +0.000 A 
ATOM     16  C   UNL     1       6.892   5.179  19.234  0.00  0.00    +0.000 A 
ENDBRANCH  10  11
ENDBRANCH   9  10
ENDBRANCH   1   9
BRANCH   7  17
ATOM     17  P   UNL     1       2.366   2.687  19.939  0.00  0.00    +0.000 P 
ATOM     18  O   UNL     1       1.673   2.141  21.148  0.00  0.00    +0.000 OA
BRANCH  17  19
ATOM     19  O   UNL     1       1.743   2.058  18.597  0.00  0.00    +0.000 OA
ATOM     20  H   UNL     1       1.704   2.718  17.863  0.00  0.00    +0.000 HD
ENDBRANCH  17  19
BRANCH  17  21
ATOM     21  O   UNL     1       3.833   2.045  19.857  0.00  0.00    +0.000 OA
ATOM     22  H   UNL     1       3.749   1.112  19.575  0.00  0.00    +0.000 HD
ENDBRANCH  17  21
ENDBRANCH   7  17
TORSDOF 6
ENDMDL
MODEL 9
REMARK VINA RESULT:      -6.7      1.832      2.971
REMARK  Name = 
REMARK  6 active torsions:
REMARK  status: ('A' for Active; 'I' for Inactive)
REMARK    1  A    between atoms: C_2  and  O_3
REMARK    2  A    between atoms: C_2  and  C_10
REMARK    3  A    between atoms: O_3  and  C_4
REMARK    4  A    between atoms: C_16  and  P_17
REMARK    5  A    between atoms: P_17  and  O_19
REMARK    6  A    between atoms: P_17  and  O_20
REMARK                            x       y       z     vdW  Elec       q    Type
REMARK                         _______ _______ _______ _____ _____    ______ ____
ROOT
ATOM      1  C   UNL     1       2.506   5.077  18.793  0.00  0.00    +0.000 A 
ATOM      2  C   UNL     1       2.688   6.455  18.563  0.00  0.00    +0.000 A 
ATOM      3 CL   UNL     1       3.207   7.107  17.046  0.00  0.00    +0.000 Cl
ATOM      4  C   UNL     1       2.337   7.392  19.543  0.00  0.00    +0.000 A 
ATOM      5  C   UNL     1       1.793   6.976  20.750  0.00  0.00    +0.000 A 
ATOM      6  C   UNL     1       1.541   5.624  20.953  0.00  0.00    +0.000 A 
ATOM      7  C   UNL     1       1.852   4.655  19.972  0.00  0.00    +0.000 A 
ENDROOT
BRANCH   1   9
ATOM      8  O   UNL     1       2.053   3.627  16.990  0.00  0.00    +0.000 OA
ATOM      9  C   UNL     1       2.885   4.083  17.761  0.00  0.00    +0.000 C 
BRANCH   9  10
ATOM     10  O   UNL     1       4.233   3.749  17.847  0.00  0.00    +0.000 OA
BRANCH  10  11
ATOM     11  C   UNL     1       5.236   4.142  16.918  0.00  0.00    +0.000 A 
ATOM     12  C   UNL     1       5.082   4.080  15.533  0.00  0.00    +0.000 A 
ATOM     13  C   UNL     1       6.121   4.507  14.700  0.00  0.00    +0.000 A 
ATOM     14  C   UNL     1       7.298   5.015  15.244  0.00  0.00    +0.000 A 
ATOM     15  C   UNL     1       7.440   5.102  16.627  0.00  0.00    +0.000 A 
ATOM     16  C   UNL     1       6.409   4.667  17.467  0.00  0.00    +0.000 A 
ENDBRANCH  10  11
ENDBRANCH   9  10
ENDBRANCH   1   9
BRANCH   7  17
ATOM     17  P   UNL     1       1.291   3.021  20.321  0.00  0.00    +0.000 P 
ATOM     18  O   UNL     1       1.054   2.641  21.749  0.00  0.00    +0.000 OA
BRANCH  17  19
ATOM     19  O   UNL     1      -0.008   2.705  19.428  0.00  0.00    +0.000 OA
ATOM     20  H   UNL     1      -0.844   2.944  19.895  0.00  0.00    +0.000 HD
ENDBRANCH  17  19
BRANCH  17  21
ATOM     21  O   UNL     1       2.304   1.963  19.671  0.00  0.00    +0.000 OA
ATOM     22  H   UNL     1       2.093   1.872  18.720  0.00  0.00    +0.000 HD
ENDBRANCH  17  21
ENDBRANCH   7  17
TORSDOF 6
ENDMDL
