MODEL 1
REMARK VINA RESULT:      -6.9      0.000      0.000
REMARK  Name = 
REMARK  17 active torsions:
REMARK  status: ('A' for Active; 'I' for Inactive)
REMARK    1  A    between atoms: C_1  and  S_2
REMARK    2  A    between atoms: S_2  and  C_3
REMARK    3  A    between atoms: C_3  and  C_4
REMARK    4  A    between atoms: C_8  and  C_9
REMARK    5  A    between atoms: C_9  and  C_10
REMARK    6  A    between atoms: C_10  and  O_11
REMARK    7  A    between atoms: C_10  and  C_12
REMARK    8  A    between atoms: C_13  and  C_14
REMARK    9  A    between atoms: C_15  and  O_16
REMARK   10  A    between atoms: C_20  and  S_21
REMARK   11  A    between atoms: S_21  and  C_22
REMARK   12  A    between atoms: C_22  and  C_23
REMARK   13  A    between atoms: C_23  and  C_24
REMARK   14  A    between atoms: C_24  and  S_25
REMARK   15  A    between atoms: S_25  and  C_26
REMARK   16  A    between atoms: C_26  and  C_27
REMARK   17  A    between atoms: C_27  and  O_29
REMARK                            x       y       z     vdW  Elec       q    Type
REMARK                         _______ _______ _______ _____ _____    ______ ____
ROOT
ATOM      1  C   UNL     1       4.813   5.914  17.369  0.00  0.00    +0.000 C 
ATOM      2  C   UNL     1       5.827   6.554  16.400  0.00  0.00    +0.000 C 
ATOM      3  C   UNL     1       6.936   5.519  16.291  0.00  0.00    +0.000 C 
ATOM      4  C   UNL     1       6.977   4.979  17.687  0.00  0.00    +0.000 C 
ATOM      5  O   UNL     1       7.958   4.401  18.132  0.00  0.00    +0.000 OA
ATOM      6  C   UNL     1       5.702   5.258  18.456  0.00  0.00    +0.000 C 
ENDROOT
BRANCH   2   7
ATOM      7  O   UNL     1       5.270   6.828  15.122  0.00  0.00    +0.000 OA
ATOM      8  H   UNL     1       5.841   6.451  14.431  0.00  0.00    +0.000 HD
ENDBRANCH   2   7
BRANCH   1  10
ATOM      9  C   UNL     1       2.738   6.510  18.637  0.00  0.00    +0.000 C 
ATOM     10  C   UNL     1       3.837   6.899  17.967  0.00  0.00    +0.000 C 
BRANCH   9  11
ATOM     11  C   UNL     1       1.806   7.441  19.366  0.00  0.00    +0.000 C 
BRANCH  11  12
ATOM     12  O   UNL     1       2.181   7.429  20.741  0.00  0.00    +0.000 OA
ATOM     13  H   UNL     1       2.068   8.330  21.087  0.00  0.00    +0.000 HD
ENDBRANCH  11  12
BRANCH  11  14
ATOM     14  C   UNL     1       1.860   8.863  18.761  0.00  0.00    +0.000 C 
BRANCH  14  19
ATOM     15  C   UNL     1      -0.432  11.203  20.718  0.00  0.00    +0.000 A 
ATOM     16  C   UNL     1      -1.458  11.430  19.793  0.00  0.00    +0.000 A 
ATOM     17  C   UNL     1      -1.383  10.897  18.509  0.00  0.00    +0.000 A 
ATOM     18  C   UNL     1      -0.296  10.106  18.140  0.00  0.00    +0.000 A 
ATOM     19  C   UNL     1       0.716   9.810  19.059  0.00  0.00    +0.000 A 
ATOM     20  C   UNL     1       0.645  10.385  20.342  0.00  0.00    +0.000 A 
BRANCH  15  21
ATOM     21  C   UNL     1      -0.526  11.806  22.098  0.00  0.00    +0.000 C 
BRANCH  21  23
ATOM     22  C   UNL     1       0.800  14.195  21.633  0.00  0.00    +0.000 C 
ATOM     23  S   UNL     1      -0.841  13.599  22.113  0.00  0.00    +0.000 S 
ENDBRANCH  21  23
ENDBRANCH  15  21
ENDBRANCH  14  19
ENDBRANCH  11  14
ENDBRANCH   9  11
ENDBRANCH   1  10
BRANCH   6  24
ATOM     24  S   UNL     1       4.914   3.733  19.084  0.00  0.00    +0.000 S 
BRANCH  24  25
ATOM     25  C   UNL     1       4.432   2.895  17.526  0.00  0.00    +0.000 C 
BRANCH  25  26
ATOM     26  C   UNL     1       3.137   2.130  17.802  0.00  0.00    +0.000 C 
BRANCH  26  27
ATOM     27  C   UNL     1       1.885   3.010  17.782  0.00  0.00    +0.000 C 
BRANCH  27  28
ATOM     28  S   UNL     1       0.782   2.365  19.106  0.00  0.00    +0.000 S 
BRANCH  28  29
ATOM     29  C   UNL     1       0.724   3.791  20.241  0.00  0.00    +0.000 C 
BRANCH  29  30
ATOM     30  C   UNL     1       1.747   3.697  21.352  0.00  0.00    +0.000 C 
ATOM     31  O   UNL     1       2.565   4.573  21.594  0.00  0.00    +0.000 OA
BRANCH  30  32
ATOM     32  O   UNL     1       1.733   2.521  22.026  0.00  0.00    +0.000 OA
ATOM     33  H   UNL     1       1.658   1.765  21.403  0.00  0.00    +0.000 HD
ENDBRANCH  30  32
ENDBRANCH  29  30
ENDBRANCH  28  29
ENDBRANCH  27  28
ENDBRANCH  26  27
ENDBRANCH  25  26
ENDBRANCH  24  25
ENDBRANCH   6  24
TORSDOF 16
ENDMDL
MODEL 2
REMARK VINA RESULT:      -6.9      5.692      7.145
REMARK  Name = 
REMARK  17 active torsions:
REMARK  status: ('A' for Active; 'I' for Inactive)
REMARK    1  A    between atoms: C_1  and  S_2
REMARK    2  A    between atoms: S_2  and  C_3
REMARK    3  A    between atoms: C_3  and  C_4
REMARK    4  A    between atoms: C_8  and  C_9
REMARK    5  A    between atoms: C_9  and  C_10
REMARK    6  A    between atoms: C_10  and  O_11
REMARK    7  A    between atoms: C_10  and  C_12
REMARK    8  A    between atoms: C_13  and  C_14
REMARK    9  A    between atoms: C_15  and  O_16
REMARK   10  A    between atoms: C_20  and  S_21
REMARK   11  A    between atoms: S_21  and  C_22
REMARK   12  A    between atoms: C_22  and  C_23
REMARK   13  A    between atoms: C_23  and  C_24
REMARK   14  A    between atoms: C_24  and  S_25
REMARK   15  A    between atoms: S_25  and  C_26
REMARK   16  A    between atoms: C_26  and  C_27
REMARK   17  A    between atoms: C_27  and  O_29
REMARK                            x       y       z     vdW  Elec       q    Type
REMARK                         _______ _______ _______ _____ _____    ______ ____
ROOT
ATOM      1  C   UNL     1       6.427   6.268  16.535  0.00  0.00    +0.000 C 
ATOM      2  C   UNL     1       7.105   5.125  15.756  0.00  0.00    +0.000 C 
ATOM      3  C   UNL     1       5.945   4.275  15.263  0.00  0.00    +0.000 C 
ATOM      4  C   UNL     1       4.993   4.373  16.416  0.00  0.00    +0.000 C 
ATOM      5  O   UNL     1       4.107   3.552  16.599  0.00  0.00    +0.000 OA
ATOM      6  C   UNL     1       5.283   5.563  17.308  0.00  0.00    +0.000 C 
ENDROOT
BRANCH   2   7
ATOM      7  O   UNL     1       7.886   5.590  14.664  0.00  0.00    +0.000 OA
ATOM      8  H   UNL     1       8.200   4.831  14.143  0.00  0.00    +0.000 HD
ENDBRANCH   2   7
BRANCH   1  10
ATOM      9  C   UNL     1       7.473   8.344  17.464  0.00  0.00    +0.000 C 
ATOM     10  C   UNL     1       7.358   7.005  17.469  0.00  0.00    +0.000 C 
BRANCH   9  11
ATOM     11  C   UNL     1       8.281   9.137  18.456  0.00  0.00    +0.000 C 
BRANCH  11  12
ATOM     12  O   UNL     1       9.046   8.208  19.221  0.00  0.00    +0.000 OA
ATOM     13  H   UNL     1       9.865   8.654  19.495  0.00  0.00    +0.000 HD
ENDBRANCH  11  12
BRANCH  11  14
ATOM     14  C   UNL     1       9.175  10.175  17.739  0.00  0.00    +0.000 C 
BRANCH  14  19
ATOM     15  C   UNL     1      10.172  13.769  18.546  0.00  0.00    +0.000 A 
ATOM     16  C   UNL     1      10.700  13.632  19.835  0.00  0.00    +0.000 A 
ATOM     17  C   UNL     1      10.669  12.401  20.484  0.00  0.00    +0.000 A 
ATOM     18  C   UNL     1      10.136  11.283  19.844  0.00  0.00    +0.000 A 
ATOM     19  C   UNL     1       9.657  11.372  18.533  0.00  0.00    +0.000 A 
ATOM     20  C   UNL     1       9.661  12.630  17.902  0.00  0.00    +0.000 A 
BRANCH  15  21
ATOM     21  C   UNL     1      10.199  15.117  17.868  0.00  0.00    +0.000 C 
BRANCH  21  23
ATOM     22  C   UNL     1      11.980  17.078  18.684  0.00  0.00    +0.000 C 
ATOM     23  S   UNL     1      11.870  15.728  17.482  0.00  0.00    +0.000 S 
ENDBRANCH  21  23
ENDBRANCH  15  21
ENDBRANCH  14  19
ENDBRANCH  11  14
ENDBRANCH   9  11
ENDBRANCH   1  10
BRANCH   6  24
ATOM     24  S   UNL     1       3.847   6.680  17.474  0.00  0.00    +0.000 S 
BRANCH  24  25
ATOM     25  C   UNL     1       2.994   5.974  18.935  0.00  0.00    +0.000 C 
BRANCH  25  26
ATOM     26  C   UNL     1       1.869   5.077  18.417  0.00  0.00    +0.000 C 
BRANCH  26  27
ATOM     27  C   UNL     1       1.324   4.104  19.465  0.00  0.00    +0.000 C 
BRANCH  27  28
ATOM     28  S   UNL     1       2.471   4.199  20.900  0.00  0.00    +0.000 S 
BRANCH  28  29
ATOM     29  C   UNL     1       3.166   2.513  20.906  0.00  0.00    +0.000 C 
BRANCH  29  30
ATOM     30  C   UNL     1       4.003   2.222  19.680  0.00  0.00    +0.000 C 
ATOM     31  O   UNL     1       3.741   1.337  18.878  0.00  0.00    +0.000 OA
BRANCH  30  32
ATOM     32  O   UNL     1       5.120   2.982  19.571  0.00  0.00    +0.000 OA
ATOM     33  H   UNL     1       5.877   2.552  20.027  0.00  0.00    +0.000 HD
ENDBRANCH  30  32
ENDBRANCH  29  30
ENDBRANCH  28  29
ENDBRANCH  27  28
ENDBRANCH  26  27
ENDBRANCH  25  26
ENDBRANCH  24  25
ENDBRANCH   6  24
TORSDOF 16
ENDMDL
MODEL 3
REMARK VINA RESULT:      -6.9      1.824      2.590
REMARK  Name = 
REMARK  17 active torsions:
REMARK  status: ('A' for Active; 'I' for Inactive)
REMARK    1  A    between atoms: C_1  and  S_2
REMARK    2  A    between atoms: S_2  and  C_3
REMARK    3  A    between atoms: C_3  and  C_4
REMARK    4  A    between atoms: C_8  and  C_9
REMARK    5  A    between atoms: C_9  and  C_10
REMARK    6  A    between atoms: C_10  and  O_11
REMARK    7  A    between atoms: C_10  and  C_12
REMARK    8  A    between atoms: C_13  and  C_14
REMARK    9  A    between atoms: C_15  and  O_16
REMARK   10  A    between atoms: C_20  and  S_21
REMARK   11  A    between atoms: S_21  and  C_22
REMARK   12  A    between atoms: C_22  and  C_23
REMARK   13  A    between atoms: C_23  and  C_24
REMARK   14  A    between atoms: C_24  and  S_25
REMARK   15  A    between atoms: S_25  and  C_26
REMARK   16  A    between atoms: C_26  and  C_27
REMARK   17  A    between atoms: C_27  and  O_29
REMARK                            x       y       z     vdW  Elec       q    Type
REMARK                         _______ _______ _______ _____ _____    ______ ____
ROOT
ATOM      1  C   UNL     1       4.640   5.756  17.575  0.00  0.00    +0.000 C 
ATOM      2  C   UNL     1       5.549   6.762  16.843  0.00  0.00    +0.000 C 
ATOM      3  C   UNL     1       6.939   6.156  16.962  0.00  0.00    +0.000 C 
ATOM      4  C   UNL     1       6.886   5.556  18.333  0.00  0.00    +0.000 C 
ATOM      5  O   UNL     1       7.897   5.298  18.970  0.00  0.00    +0.000 OA
ATOM      6  C   UNL     1       5.466   5.345  18.820  0.00  0.00    +0.000 C 
ENDROOT
BRANCH   2   7
ATOM      7  O   UNL     1       5.192   6.935  15.479  0.00  0.00    +0.000 OA
ATOM      8  H   UNL     1       4.292   6.599  15.333  0.00  0.00    +0.000 HD
ENDBRANCH   2   7
BRANCH   1  10
ATOM      9  C   UNL     1       3.130   7.603  18.336  0.00  0.00    +0.000 C 
ATOM     10  C   UNL     1       3.294   6.321  17.963  0.00  0.00    +0.000 C 
BRANCH   9  11
ATOM     11  C   UNL     1       1.798   8.252  18.603  0.00  0.00    +0.000 C 
BRANCH  11  12
ATOM     12  O   UNL     1       1.577   8.206  20.010  0.00  0.00    +0.000 OA
ATOM     13  H   UNL     1       1.004   7.443  20.195  0.00  0.00    +0.000 HD
ENDBRANCH  11  12
BRANCH  11  14
ATOM     14  C   UNL     1       1.768   9.698  18.056  0.00  0.00    +0.000 C 
BRANCH  14  19
ATOM     15  C   UNL     1      -1.897  10.761  18.062  0.00  0.00    +0.000 A 
ATOM     16  C   UNL     1      -1.812  12.062  18.571  0.00  0.00    +0.000 A 
ATOM     17  C   UNL     1      -0.588  12.579  18.988  0.00  0.00    +0.000 A 
ATOM     18  C   UNL     1       0.572  11.814  18.876  0.00  0.00    +0.000 A 
ATOM     19  C   UNL     1       0.531  10.533  18.316  0.00  0.00    +0.000 A 
ATOM     20  C   UNL     1      -0.718  10.009  17.932  0.00  0.00    +0.000 A 
BRANCH  15  21
ATOM     21  C   UNL     1      -3.237  10.214  17.633  0.00  0.00    +0.000 C 
BRANCH  21  23
ATOM     22  C   UNL     1      -3.057  10.217  14.868  0.00  0.00    +0.000 C 
ATOM     23  S   UNL     1      -3.963  11.056  16.192  0.00  0.00    +0.000 S 
ENDBRANCH  21  23
ENDBRANCH  15  21
ENDBRANCH  14  19
ENDBRANCH  11  14
ENDBRANCH   9  11
ENDBRANCH   1  10
BRANCH   6  24
ATOM     24  S   UNL     1       5.128   3.605  19.261  0.00  0.00    +0.000 S 
BRANCH  24  25
ATOM     25  C   UNL     1       4.334   2.981  17.731  0.00  0.00    +0.000 C 
BRANCH  25  26
ATOM     26  C   UNL     1       3.481   1.772  18.120  0.00  0.00    +0.000 C 
BRANCH  26  27
ATOM     27  C   UNL     1       1.977   1.994  17.939  0.00  0.00    +0.000 C 
BRANCH  27  28
ATOM     28  S   UNL     1       1.267   2.110  19.632  0.00  0.00    +0.000 S 
BRANCH  28  29
ATOM     29  C   UNL     1       1.130   3.918  19.832  0.00  0.00    +0.000 C 
BRANCH  29  30
ATOM     30  C   UNL     1       1.864   4.428  21.053  0.00  0.00    +0.000 C 
ATOM     31  O   UNL     1       2.204   5.593  21.198  0.00  0.00    +0.000 OA
BRANCH  30  32
ATOM     32  O   UNL     1       2.180   3.469  21.956  0.00  0.00    +0.000 OA
ATOM     33  H   UNL     1       1.754   3.654  22.822  0.00  0.00    +0.000 HD
ENDBRANCH  30  32
ENDBRANCH  29  30
ENDBRANCH  28  29
ENDBRANCH  27  28
ENDBRANCH  26  27
ENDBRANCH  25  26
ENDBRANCH  24  25
ENDBRANCH   6  24
TORSDOF 16
ENDMDL
MODEL 4
REMARK VINA RESULT:      -6.8      1.551      2.266
REMARK  Name = 
REMARK  17 active torsions:
REMARK  status: ('A' for Active; 'I' for Inactive)
REMARK    1  A    between atoms: C_1  and  S_2
REMARK    2  A    between atoms: S_2  and  C_3
REMARK    3  A    between atoms: C_3  and  C_4
REMARK    4  A    between atoms: C_8  and  C_9
REMARK    5  A    between atoms: C_9  and  C_10
REMARK    6  A    between atoms: C_10  and  O_11
REMARK    7  A    between atoms: C_10  and  C_12
REMARK    8  A    between atoms: C_13  and  C_14
REMARK    9  A    between atoms: C_15  and  O_16
REMARK   10  A    between atoms: C_20  and  S_21
REMARK   11  A    between atoms: S_21  and  C_22
REMARK   12  A    between atoms: C_22  and  C_23
REMARK   13  A    between atoms: C_23  and  C_24
REMARK   14  A    between atoms: C_24  and  S_25
REMARK   15  A    between atoms: S_25  and  C_26
REMARK   16  A    between atoms: C_26  and  C_27
REMARK   17  A    between atoms: C_27  and  O_29
REMARK                            x       y       z     vdW  Elec       q    Type
REMARK                         _______ _______ _______ _____ _____    ______ ____
ROOT
ATOM      1  C   UNL     1       4.892   5.896  17.369  0.00  0.00    +0.000 C 
ATOM      2  C   UNL     1       5.873   6.390  16.287  0.00  0.00    +0.000 C 
ATOM      3  C   UNL     1       6.939   5.307  16.235  0.00  0.00    +0.000 C 
ATOM      4  C   UNL     1       7.038   4.917  17.678  0.00  0.00    +0.000 C 
ATOM      5  O   UNL     1       8.022   4.352  18.133  0.00  0.00    +0.000 OA
ATOM      6  C   UNL     1       5.816   5.325  18.474  0.00  0.00    +0.000 C 
ENDROOT
BRANCH   2   7
ATOM      7  O   UNL     1       5.257   6.549  15.017  0.00  0.00    +0.000 OA
ATOM      8  H   UNL     1       5.307   7.481  14.746  0.00  0.00    +0.000 HD
ENDBRANCH   2   7
BRANCH   1  10
ATOM      9  C   UNL     1       2.655   6.808  18.026  0.00  0.00    +0.000 C 
ATOM     10  C   UNL     1       3.984   6.976  17.906  0.00  0.00    +0.000 C 
BRANCH   9  11
ATOM     11  C   UNL     1       1.723   7.796  18.675  0.00  0.00    +0.000 C 
BRANCH  11  12
ATOM     12  O   UNL     1       2.062   7.855  20.058  0.00  0.00    +0.000 OA
ATOM     13  H   UNL     1       1.771   8.718  20.398  0.00  0.00    +0.000 HD
ENDBRANCH  11  12
BRANCH  11  14
ATOM     14  C   UNL     1       1.821   9.180  17.993  0.00  0.00    +0.000 C 
BRANCH  14  19
ATOM     15  C   UNL     1      -1.069  11.552  18.757  0.00  0.00    +0.000 A 
ATOM     16  C   UNL     1      -0.431  12.533  19.526  0.00  0.00    +0.000 A 
ATOM     17  C   UNL     1       0.911  12.400  19.869  0.00  0.00    +0.000 A 
ATOM     18  C   UNL     1       1.643  11.300  19.426  0.00  0.00    +0.000 A 
ATOM     19  C   UNL     1       1.053  10.334  18.605  0.00  0.00    +0.000 A 
ATOM     20  C   UNL     1      -0.313  10.461  18.296  0.00  0.00    +0.000 A 
BRANCH  15  21
ATOM     21  C   UNL     1      -2.530  11.707  18.412  0.00  0.00    +0.000 C 
BRANCH  21  23
ATOM     22  C   UNL     1      -5.015  10.747  17.648  0.00  0.00    +0.000 C 
ATOM     23  S   UNL     1      -3.278  10.235  17.645  0.00  0.00    +0.000 S 
ENDBRANCH  21  23
ENDBRANCH  15  21
ENDBRANCH  14  19
ENDBRANCH  11  14
ENDBRANCH   9  11
ENDBRANCH   1  10
BRANCH   6  24
ATOM     24  S   UNL     1       5.013   3.907  19.302  0.00  0.00    +0.000 S 
BRANCH  24  25
ATOM     25  C   UNL     1       4.017   3.196  17.938  0.00  0.00    +0.000 C 
BRANCH  25  26
ATOM     26  C   UNL     1       3.517   1.827  18.404  0.00  0.00    +0.000 C 
BRANCH  26  27
ATOM     27  C   UNL     1       1.991   1.698  18.414  0.00  0.00    +0.000 C 
BRANCH  27  28
ATOM     28  S   UNL     1       1.331   3.413  18.501  0.00  0.00    +0.000 S 
BRANCH  28  29
ATOM     29  C   UNL     1       0.744   3.475  20.227  0.00  0.00    +0.000 C 
BRANCH  29  30
ATOM     30  C   UNL     1       1.803   3.971  21.187  0.00  0.00    +0.000 C 
ATOM     31  O   UNL     1       2.271   5.100  21.153  0.00  0.00    +0.000 OA
BRANCH  30  32
ATOM     32  O   UNL     1       2.251   3.034  22.058  0.00  0.00    +0.000 OA
ATOM     33  H   UNL     1       1.634   2.270  22.092  0.00  0.00    +0.000 HD
ENDBRANCH  30  32
ENDBRANCH  29  30
ENDBRANCH  28  29
ENDBRANCH  27  28
ENDBRANCH  26  27
ENDBRANCH  25  26
ENDBRANCH  24  25
ENDBRANCH   6  24
TORSDOF 16
ENDMDL
MODEL 5
REMARK VINA RESULT:      -6.7      1.314      1.481
REMARK  Name = 
REMARK  17 active torsions:
REMARK  status: ('A' for Active; 'I' for Inactive)
REMARK    1  A    between atoms: C_1  and  S_2
REMARK    2  A    between atoms: S_2  and  C_3
REMARK    3  A    between atoms: C_3  and  C_4
REMARK    4  A    between atoms: C_8  and  C_9
REMARK    5  A    between atoms: C_9  and  C_10
REMARK    6  A    between atoms: C_10  and  O_11
REMARK    7  A    between atoms: C_10  and  C_12
REMARK    8  A    between atoms: C_13  and  C_14
REMARK    9  A    between atoms: C_15  and  O_16
REMARK   10  A    between atoms: C_20  and  S_21
REMARK   11  A    between atoms: S_21  and  C_22
REMARK   12  A    between atoms: C_22  and  C_23
REMARK   13  A    between atoms: C_23  and  C_24
REMARK   14  A    between atoms: C_24  and  S_25
REMARK   15  A    between atoms: S_25  and  C_26
REMARK   16  A    between atoms: C_26  and  C_27
REMARK   17  A    between atoms: C_27  and  O_29
REMARK                            x       y       z     vdW  Elec       q    Type
REMARK                         _______ _______ _______ _____ _____    ______ ____
ROOT
ATOM      1  C   UNL     1       4.678   5.776  17.217  0.00  0.00    +0.000 C 
ATOM      2  C   UNL     1       5.814   6.486  16.457  0.00  0.00    +0.000 C 
ATOM      3  C   UNL     1       7.019   5.582  16.666  0.00  0.00    +0.000 C 
ATOM      4  C   UNL     1       6.796   5.109  18.070  0.00  0.00    +0.000 C 
ATOM      5  O   UNL     1       7.703   4.668  18.760  0.00  0.00    +0.000 OA
ATOM      6  C   UNL     1       5.357   5.273  18.516  0.00  0.00    +0.000 C 
ENDROOT
BRANCH   2   7
ATOM      7  O   UNL     1       5.538   6.641  15.072  0.00  0.00    +0.000 OA
ATOM      8  H   UNL     1       4.682   7.087  14.959  0.00  0.00    +0.000 HD
ENDBRANCH   2   7
BRANCH   1  10
ATOM      9  C   UNL     1       3.037   6.863  18.765  0.00  0.00    +0.000 C 
ATOM     10  C   UNL     1       3.496   6.667  17.516  0.00  0.00    +0.000 C 
BRANCH   9  11
ATOM     11  C   UNL     1       1.953   7.840  19.135  0.00  0.00    +0.000 C 
BRANCH  11  12
ATOM     12  O   UNL     1       2.004   8.017  20.549  0.00  0.00    +0.000 OA
ATOM     13  H   UNL     1       2.209   7.154  20.947  0.00  0.00    +0.000 HD
ENDBRANCH  11  12
BRANCH  11  14
ATOM     14  C   UNL     1       2.127   9.175  18.375  0.00  0.00    +0.000 C 
BRANCH  14  19
ATOM     15  C   UNL     1       0.429  12.554  18.883  0.00  0.00    +0.000 A 
ATOM     16  C   UNL     1      -0.923  12.190  18.898  0.00  0.00    +0.000 A 
ATOM     17  C   UNL     1      -1.301  10.870  18.668  0.00  0.00    +0.000 A 
ATOM     18  C   UNL     1      -0.335   9.890  18.448  0.00  0.00    +0.000 A 
ATOM     19  C   UNL     1       1.026  10.209  18.487  0.00  0.00    +0.000 A 
ATOM     20  C   UNL     1       1.394  11.553  18.685  0.00  0.00    +0.000 A 
BRANCH  15  21
ATOM     21  C   UNL     1       0.817  13.994  19.116  0.00  0.00    +0.000 C 
BRANCH  21  23
ATOM     22  C   UNL     1      -0.386  16.429  18.565  0.00  0.00    +0.000 C 
ATOM     23  S   UNL     1      -0.539  15.045  19.723  0.00  0.00    +0.000 S 
ENDBRANCH  21  23
ENDBRANCH  15  21
ENDBRANCH  14  19
ENDBRANCH  11  14
ENDBRANCH   9  11
ENDBRANCH   1  10
BRANCH   6  24
ATOM     24  S   UNL     1       4.607   3.696  19.054  0.00  0.00    +0.000 S 
BRANCH  24  25
ATOM     25  C   UNL     1       4.121   2.949  17.452  0.00  0.00    +0.000 C 
BRANCH  25  26
ATOM     26  C   UNL     1       2.598   2.809  17.457  0.00  0.00    +0.000 C 
BRANCH  26  27
ATOM     27  C   UNL     1       2.049   2.087  18.690  0.00  0.00    +0.000 C 
BRANCH  27  28
ATOM     28  S   UNL     1       0.644   3.106  19.299  0.00  0.00    +0.000 S 
BRANCH  28  29
ATOM     29  C   UNL     1       1.384   3.878  20.776  0.00  0.00    +0.000 C 
BRANCH  29  30
ATOM     30  C   UNL     1       1.816   2.863  21.812  0.00  0.00    +0.000 C 
ATOM     31  O   UNL     1       2.973   2.493  21.954  0.00  0.00    +0.000 OA
BRANCH  30  32
ATOM     32  O   UNL     1       0.799   2.335  22.535  0.00  0.00    +0.000 OA
ATOM     33  H   UNL     1       0.872   1.356  22.572  0.00  0.00    +0.000 HD
ENDBRANCH  30  32
ENDBRANCH  29  30
ENDBRANCH  28  29
ENDBRANCH  27  28
ENDBRANCH  26  27
ENDBRANCH  25  26
ENDBRANCH  24  25
ENDBRANCH   6  24
TORSDOF 16
ENDMDL
MODEL 6
REMARK VINA RESULT:      -6.6      1.382      1.504
REMARK  Name = 
REMARK  17 active torsions:
REMARK  status: ('A' for Active; 'I' for Inactive)
REMARK    1  A    between atoms: C_1  and  S_2
REMARK    2  A    between atoms: S_2  and  C_3
REMARK    3  A    between atoms: C_3  and  C_4
REMARK    4  A    between atoms: C_8  and  C_9
REMARK    5  A    between atoms: C_9  and  C_10
REMARK    6  A    between atoms: C_10  and  O_11
REMARK    7  A    between atoms: C_10  and  C_12
REMARK    8  A    between atoms: C_13  and  C_14
REMARK    9  A    between atoms: C_15  and  O_16
REMARK   10  A    between atoms: C_20  and  S_21
REMARK   11  A    between atoms: S_21  and  C_22
REMARK   12  A    between atoms: C_22  and  C_23
REMARK   13  A    between atoms: C_23  and  C_24
REMARK   14  A    between atoms: C_24  and  S_25
REMARK   15  A    between atoms: S_25  and  C_26
REMARK   16  A    between atoms: C_26  and  C_27
REMARK   17  A    between atoms: C_27  and  O_29
REMARK                            x       y       z     vdW  Elec       q    Type
REMARK                         _______ _______ _______ _____ _____    ______ ____
ROOT
ATOM      1  C   UNL     1       4.616   5.700  17.419  0.00  0.00    +0.000 C 
ATOM      2  C   UNL     1       5.546   6.668  16.663  0.00  0.00    +0.000 C 
ATOM      3  C   UNL     1       6.913   6.006  16.747  0.00  0.00    +0.000 C 
ATOM      4  C   UNL     1       6.870   5.408  18.120  0.00  0.00    +0.000 C 
ATOM      5  O   UNL     1       7.886   5.108  18.730  0.00  0.00    +0.000 OA
ATOM      6  C   UNL     1       5.456   5.256  18.643  0.00  0.00    +0.000 C 
ENDROOT
BRANCH   2   7
ATOM      7  O   UNL     1       5.162   6.856  15.309  0.00  0.00    +0.000 OA
ATOM      8  H   UNL     1       4.470   6.214  15.075  0.00  0.00    +0.000 HD
ENDBRANCH   2   7
BRANCH   1  10
ATOM      9  C   UNL     1       3.188   7.626  18.143  0.00  0.00    +0.000 C 
ATOM     10  C   UNL     1       3.304   6.321  17.841  0.00  0.00    +0.000 C 
BRANCH   9  11
ATOM     11  C   UNL     1       1.886   8.323  18.438  0.00  0.00    +0.000 C 
BRANCH  11  12
ATOM     12  O   UNL     1       1.643   8.193  19.836  0.00  0.00    +0.000 OA
ATOM     13  H   UNL     1       1.767   9.069  20.240  0.00  0.00    +0.000 HD
ENDBRANCH  11  12
BRANCH  11  14
ATOM     14  C   UNL     1       1.936   9.802  17.991  0.00  0.00    +0.000 C 
BRANCH  14  19
ATOM     15  C   UNL     1       0.041  12.854  19.277  0.00  0.00    +0.000 A 
ATOM     16  C   UNL     1      -1.280  12.390  19.264  0.00  0.00    +0.000 A 
ATOM     17  C   UNL     1      -1.580  11.124  18.770  0.00  0.00    +0.000 A 
ATOM     18  C   UNL     1      -0.562  10.292  18.308  0.00  0.00    +0.000 A 
ATOM     19  C   UNL     1       0.775  10.700  18.364  0.00  0.00    +0.000 A 
ATOM     20  C   UNL     1       1.060  11.996  18.832  0.00  0.00    +0.000 A 
BRANCH  15  21
ATOM     21  C   UNL     1       0.342  14.237  19.800  0.00  0.00    +0.000 C 
BRANCH  21  23
ATOM     22  C   UNL     1       3.011  14.876  20.187  0.00  0.00    +0.000 C 
ATOM     23  S   UNL     1       1.709  15.081  18.945  0.00  0.00    +0.000 S 
ENDBRANCH  21  23
ENDBRANCH  15  21
ENDBRANCH  14  19
ENDBRANCH  11  14
ENDBRANCH   9  11
ENDBRANCH   1  10
BRANCH   6  24
ATOM     24  S   UNL     1       5.058   3.531  19.094  0.00  0.00    +0.000 S 
BRANCH  24  25
ATOM     25  C   UNL     1       4.172   2.950  17.598  0.00  0.00    +0.000 C 
BRANCH  25  26
ATOM     26  C   UNL     1       3.427   1.669  17.977  0.00  0.00    +0.000 C 
BRANCH  26  27
ATOM     27  C   UNL     1       2.460   1.842  19.151  0.00  0.00    +0.000 C 
BRANCH  27  28
ATOM     28  S   UNL     1       1.247   3.125  18.633  0.00  0.00    +0.000 S 
BRANCH  28  29
ATOM     29  C   UNL     1       0.687   3.752  20.251  0.00  0.00    +0.000 C 
BRANCH  29  30
ATOM     30  C   UNL     1       1.824   4.272  21.103  0.00  0.00    +0.000 C 
ATOM     31  O   UNL     1       2.404   5.327  20.885  0.00  0.00    +0.000 OA
BRANCH  30  32
ATOM     32  O   UNL     1       2.205   3.437  22.099  0.00  0.00    +0.000 OA
ATOM     33  H   UNL     1       3.184   3.386  22.155  0.00  0.00    +0.000 HD
ENDBRANCH  30  32
ENDBRANCH  29  30
ENDBRANCH  28  29
ENDBRANCH  27  28
ENDBRANCH  26  27
ENDBRANCH  25  26
ENDBRANCH  24  25
ENDBRANCH   6  24
TORSDOF 16
ENDMDL
MODEL 7
REMARK VINA RESULT:      -6.6      2.176      4.637
REMARK  Name = 
REMARK  17 active torsions:
REMARK  status: ('A' for Active; 'I' for Inactive)
REMARK    1  A    between atoms: C_1  and  S_2
REMARK    2  A    between atoms: S_2  and  C_3
REMARK    3  A    between atoms: C_3  and  C_4
REMARK    4  A    between atoms: C_8  and  C_9
REMARK    5  A    between atoms: C_9  and  C_10
REMARK    6  A    between atoms: C_10  and  O_11
REMARK    7  A    between atoms: C_10  and  C_12
REMARK    8  A    between atoms: C_13  and  C_14
REMARK    9  A    between atoms: C_15  and  O_16
REMARK   10  A    between atoms: C_20  and  S_21
REMARK   11  A    between atoms: S_21  and  C_22
REMARK   12  A    between atoms: C_22  and  C_23
REMARK   13  A    between atoms: C_23  and  C_24
REMARK   14  A    between atoms: C_24  and  S_25
REMARK   15  A    between atoms: S_25  and  C_26
REMARK   16  A    between atoms: C_26  and  C_27
REMARK   17  A    between atoms: C_27  and  O_29
REMARK                            x       y       z     vdW  Elec       q    Type
REMARK                         _______ _______ _______ _____ _____    ______ ____
ROOT
ATOM      1  C   UNL     1       2.328   5.088  20.242  0.00  0.00    +0.000 C 
ATOM      2  C   UNL     1       1.479   3.886  20.698  0.00  0.00    +0.000 C 
ATOM      3  C   UNL     1       1.662   2.863  19.588  0.00  0.00    +0.000 C 
ATOM      4  C   UNL     1       1.716   3.744  18.378  0.00  0.00    +0.000 C 
ATOM      5  O   UNL     1       1.483   3.321  17.255  0.00  0.00    +0.000 OA
ATOM      6  C   UNL     1       2.054   5.181  18.720  0.00  0.00    +0.000 C 
ENDROOT
BRANCH   2   7
ATOM      7  O   UNL     1       1.902   3.353  21.945  0.00  0.00    +0.000 OA
ATOM      8  H   UNL     1       1.758   2.392  21.954  0.00  0.00    +0.000 HD
ENDBRANCH   2   7
BRANCH   1  10
ATOM      9  C   UNL     1       1.414   7.418  20.317  0.00  0.00    +0.000 C 
ATOM     10  C   UNL     1       1.986   6.378  20.949  0.00  0.00    +0.000 C 
BRANCH   9  11
ATOM     11  C   UNL     1       0.932   8.672  20.996  0.00  0.00    +0.000 C 
BRANCH  11  12
ATOM     12  O   UNL     1       1.689   8.825  22.194  0.00  0.00    +0.000 OA
ATOM     13  H   UNL     1       1.061   8.918  22.930  0.00  0.00    +0.000 HD
ENDBRANCH  11  12
BRANCH  11  14
ATOM     14  C   UNL     1       1.069   9.896  20.061  0.00  0.00    +0.000 C 
BRANCH  14  19
ATOM     15  C   UNL     1      -2.131  11.941  19.696  0.00  0.00    +0.000 A 
ATOM     16  C   UNL     1      -2.638  11.458  18.483  0.00  0.00    +0.000 A 
ATOM     17  C   UNL     1      -1.917  10.529  17.738  0.00  0.00    +0.000 A 
ATOM     18  C   UNL     1      -0.695  10.049  18.205  0.00  0.00    +0.000 A 
ATOM     19  C   UNL     1      -0.190  10.466  19.441  0.00  0.00    +0.000 A 
ATOM     20  C   UNL     1      -0.910  11.432  20.168  0.00  0.00    +0.000 A 
BRANCH  15  21
ATOM     21  C   UNL     1      -2.920  12.962  20.480  0.00  0.00    +0.000 C 
BRANCH  21  23
ATOM     22  C   UNL     1      -5.276  14.417  20.364  0.00  0.00    +0.000 C 
ATOM     23  S   UNL     1      -4.720  12.696  20.457  0.00  0.00    +0.000 S 
ENDBRANCH  21  23
ENDBRANCH  15  21
ENDBRANCH  14  19
ENDBRANCH  11  14
ENDBRANCH   9  11
ENDBRANCH   1  10
BRANCH   6  24
ATOM     24  S   UNL     1       3.541   5.778  17.843  0.00  0.00    +0.000 S 
BRANCH  24  25
ATOM     25  C   UNL     1       4.348   4.204  17.363  0.00  0.00    +0.000 C 
BRANCH  25  26
ATOM     26  C   UNL     1       4.803   4.349  15.910  0.00  0.00    +0.000 C 
BRANCH  26  27
ATOM     27  C   UNL     1       5.953   5.342  15.719  0.00  0.00    +0.000 C 
BRANCH  27  28
ATOM     28  S   UNL     1       7.343   4.722  16.752  0.00  0.00    +0.000 S 
BRANCH  28  29
ATOM     29  C   UNL     1       7.459   6.037  18.009  0.00  0.00    +0.000 C 
BRANCH  29  30
ATOM     30  C   UNL     1       7.381   5.504  19.423  0.00  0.00    +0.000 C 
ATOM     31  O   UNL     1       6.333   5.195  19.972  0.00  0.00    +0.000 OA
BRANCH  30  32
ATOM     32  O   UNL     1       8.571   5.457  20.070  0.00  0.00    +0.000 OA
ATOM     33  H   UNL     1       8.439   5.280  21.027  0.00  0.00    +0.000 HD
ENDBRANCH  30  32
ENDBRANCH  29  30
ENDBRANCH  28  29
ENDBRANCH  27  28
ENDBRANCH  26  27
ENDBRANCH  25  26
ENDBRANCH  24  25
ENDBRANCH   6  24
TORSDOF 16
ENDMDL
MODEL 8
REMARK VINA RESULT:      -6.6      5.590      7.114
REMARK  Name = 
REMARK  17 active torsions:
REMARK  status: ('A' for Active; 'I' for Inactive)
REMARK    1  A    between atoms: C_1  and  S_2
REMARK    2  A    between atoms: S_2  and  C_3
REMARK    3  A    between atoms: C_3  and  C_4
REMARK    4  A    between atoms: C_8  and  C_9
REMARK    5  A    between atoms: C_9  and  C_10
REMARK    6  A    between atoms: C_10  and  O_11
REMARK    7  A    between atoms: C_10  and  C_12
REMARK    8  A    between atoms: C_13  and  C_14
REMARK    9  A    between atoms: C_15  and  O_16
REMARK   10  A    between atoms: C_20  and  S_21
REMARK   11  A    between atoms: S_21  and  C_22
REMARK   12  A    between atoms: C_22  and  C_23
REMARK   13  A    between atoms: C_23  and  C_24
REMARK   14  A    between atoms: C_24  and  S_25
REMARK   15  A    between atoms: S_25  and  C_26
REMARK   16  A    between atoms: C_26  and  C_27
REMARK   17  A    between atoms: C_27  and  O_29
REMARK                            x       y       z     vdW  Elec       q    Type
REMARK                         _______ _______ _______ _____ _____    ______ ____
ROOT
ATOM      1  C   UNL     1       6.108   6.488  16.792  0.00  0.00    +0.000 C 
ATOM      2  C   UNL     1       6.870   5.330  16.120  0.00  0.00    +0.000 C 
ATOM      3  C   UNL     1       5.771   4.444  15.554  0.00  0.00    +0.000 C 
ATOM      4  C   UNL     1       4.717   4.567  16.611  0.00  0.00    +0.000 C 
ATOM      5  O   UNL     1       3.828   3.738  16.742  0.00  0.00    +0.000 OA
ATOM      6  C   UNL     1       4.908   5.792  17.482  0.00  0.00    +0.000 C 
ENDROOT
BRANCH   2   7
ATOM      7  O   UNL     1       7.741   5.769  15.087  0.00  0.00    +0.000 OA
ATOM      8  H   UNL     1       8.664   5.680  15.380  0.00  0.00    +0.000 HD
ENDBRANCH   2   7
BRANCH   1  10
ATOM      9  C   UNL     1       7.555   8.422  17.451  0.00  0.00    +0.000 C 
ATOM     10  C   UNL     1       6.940   7.272  17.779  0.00  0.00    +0.000 C 
BRANCH   9  11
ATOM     11  C   UNL     1       8.284   9.311  18.424  0.00  0.00    +0.000 C 
BRANCH  11  12
ATOM     12  O   UNL     1       9.097   8.471  19.239  0.00  0.00    +0.000 OA
ATOM     13  H   UNL     1      10.004   8.511  18.892  0.00  0.00    +0.000 HD
ENDBRANCH  11  12
BRANCH  11  14
ATOM     14  C   UNL     1       9.114  10.382  17.681  0.00  0.00    +0.000 C 
BRANCH  14  19
ATOM     15  C   UNL     1      10.133  13.818  18.990  0.00  0.00    +0.000 A 
ATOM     16  C   UNL     1      11.195  13.491  19.841  0.00  0.00    +0.000 A 
ATOM     17  C   UNL     1      11.541  12.161  20.061  0.00  0.00    +0.000 A 
ATOM     18  C   UNL     1      10.850  11.140  19.411  0.00  0.00    +0.000 A 
ATOM     19  C   UNL     1       9.824  11.435  18.507  0.00  0.00    +0.000 A 
ATOM     20  C   UNL     1       9.461  12.781  18.322  0.00  0.00    +0.000 A 
BRANCH  15  21
ATOM     21  C   UNL     1       9.763  15.267  18.780  0.00  0.00    +0.000 C 
BRANCH  21  23
ATOM     22  C   UNL     1      10.065  17.716  17.518  0.00  0.00    +0.000 C 
ATOM     23  S   UNL     1      11.044  16.253  17.945  0.00  0.00    +0.000 S 
ENDBRANCH  21  23
ENDBRANCH  15  21
ENDBRANCH  14  19
ENDBRANCH  11  14
ENDBRANCH   9  11
ENDBRANCH   1  10
BRANCH   6  24
ATOM     24  S   UNL     1       3.448   6.891  17.476  0.00  0.00    +0.000 S 
BRANCH  24  25
ATOM     25  C   UNL     1       3.014   6.943  19.256  0.00  0.00    +0.000 C 
BRANCH  25  26
ATOM     26  C   UNL     1       3.087   5.509  19.786  0.00  0.00    +0.000 C 
BRANCH  26  27
ATOM     27  C   UNL     1       1.754   4.759  19.718  0.00  0.00    +0.000 C 
BRANCH  27  28
ATOM     28  S   UNL     1       1.989   3.207  20.677  0.00  0.00    +0.000 S 
BRANCH  28  29
ATOM     29  C   UNL     1       2.491   2.052  19.357  0.00  0.00    +0.000 C 
BRANCH  29  30
ATOM     30  C   UNL     1       3.978   1.769  19.362  0.00  0.00    +0.000 C 
ATOM     31  O   UNL     1       4.789   2.430  19.995  0.00  0.00    +0.000 OA
BRANCH  30  32
ATOM     32  O   UNL     1       4.357   0.755  18.547  0.00  0.00    +0.000 OA
ATOM     33  H   UNL     1       5.325   0.601  18.613  0.00  0.00    +0.000 HD
ENDBRANCH  30  32
ENDBRANCH  29  30
ENDBRANCH  28  29
ENDBRANCH  27  28
ENDBRANCH  26  27
ENDBRANCH  25  26
ENDBRANCH  24  25
ENDBRANCH   6  24
TORSDOF 16
ENDMDL
MODEL 9
REMARK VINA RESULT:      -6.5      1.830      4.860
REMARK  Name = 
REMARK  17 active torsions:
REMARK  status: ('A' for Active; 'I' for Inactive)
REMARK    1  A    between atoms: C_1  and  S_2
REMARK    2  A    between atoms: S_2  and  C_3
REMARK    3  A    between atoms: C_3  and  C_4
REMARK    4  A    between atoms: C_8  and  C_9
REMARK    5  A    between atoms: C_9  and  C_10
REMARK    6  A    between atoms: C_10  and  O_11
REMARK    7  A    between atoms: C_10  and  C_12
REMARK    8  A    between atoms: C_13  and  C_14
REMARK    9  A    between atoms: C_15  and  O_16
REMARK   10  A    between atoms: C_20  and  S_21
REMARK   11  A    between atoms: S_21  and  C_22
REMARK   12  A    between atoms: C_22  and  C_23
REMARK   13  A    between atoms: C_23  and  C_24
REMARK   14  A    between atoms: C_24  and  S_25
REMARK   15  A    between atoms: S_25  and  C_26
REMARK   16  A    between atoms: C_26  and  C_27
REMARK   17  A    between atoms: C_27  and  O_29
REMARK                            x       y       z     vdW  Elec       q    Type
REMARK                         _______ _______ _______ _____ _____    ______ ____
ROOT
ATOM      1  C   UNL     1       1.959   4.555  20.244  0.00  0.00    +0.000 C 
ATOM      2  C   UNL     1       1.348   3.233  20.746  0.00  0.00    +0.000 C 
ATOM      3  C   UNL     1       1.920   2.182  19.807  0.00  0.00    +0.000 C 
ATOM      4  C   UNL     1       1.949   2.928  18.508  0.00  0.00    +0.000 C 
ATOM      5  O   UNL     1       1.986   2.354  17.430  0.00  0.00    +0.000 OA
ATOM      6  C   UNL     1       1.897   4.430  18.700  0.00  0.00    +0.000 C 
ENDROOT
BRANCH   2   7
ATOM      7  O   UNL     1       1.694   2.943  22.093  0.00  0.00    +0.000 OA
ATOM      8  H   UNL     1       1.733   3.770  22.604  0.00  0.00    +0.000 HD
ENDBRANCH   2   7
BRANCH   1  10
ATOM      9  C   UNL     1       1.792   7.009  20.716  0.00  0.00    +0.000 C 
ATOM     10  C   UNL     1       1.232   5.786  20.732  0.00  0.00    +0.000 C 
BRANCH   9  11
ATOM     11  C   UNL     1       1.071   8.284  21.064  0.00  0.00    +0.000 C 
BRANCH  11  12
ATOM     12  O   UNL     1       1.673   8.803  22.247  0.00  0.00    +0.000 OA
ATOM     13  H   UNL     1       2.357   9.439  21.976  0.00  0.00    +0.000 HD
ENDBRANCH  11  12
BRANCH  11  14
ATOM     14  C   UNL     1       1.130   9.290  19.892  0.00  0.00    +0.000 C 
BRANCH  14  19
ATOM     15  C   UNL     1      -0.562  12.556  20.907  0.00  0.00    +0.000 A 
ATOM     16  C   UNL     1      -1.713  12.537  20.109  0.00  0.00    +0.000 A 
ATOM     17  C   UNL     1      -1.914  11.515  19.185  0.00  0.00    +0.000 A 
ATOM     18  C   UNL     1      -0.984  10.484  19.064  0.00  0.00    +0.000 A 
ATOM     19  C   UNL     1       0.144  10.441  19.889  0.00  0.00    +0.000 A 
ATOM     20  C   UNL     1       0.355  11.498  20.793  0.00  0.00    +0.000 A 
BRANCH  15  21
ATOM     21  C   UNL     1      -0.355  13.683  21.890  0.00  0.00    +0.000 C 
BRANCH  21  23
ATOM     22  C   UNL     1       0.991  14.990  19.849  0.00  0.00    +0.000 C 
ATOM     23  S   UNL     1       1.168  14.642  21.618  0.00  0.00    +0.000 S 
ENDBRANCH  21  23
ENDBRANCH  15  21
ENDBRANCH  14  19
ENDBRANCH  11  14
ENDBRANCH   9  11
ENDBRANCH   1  10
BRANCH   6  24
ATOM     24  S   UNL     1       3.322   5.283  17.937  0.00  0.00    +0.000 S 
BRANCH  24  25
ATOM     25  C   UNL     1       4.538   5.276  19.308  0.00  0.00    +0.000 C 
BRANCH  25  26
ATOM     26  C   UNL     1       5.817   4.622  18.780  0.00  0.00    +0.000 C 
BRANCH  26  27
ATOM     27  C   UNL     1       7.057   5.512  18.895  0.00  0.00    +0.000 C 
BRANCH  27  28
ATOM     28  S   UNL     1       7.155   6.463  17.323  0.00  0.00    +0.000 S 
BRANCH  28  29
ATOM     29  C   UNL     1       6.965   5.129  16.094  0.00  0.00    +0.000 C 
BRANCH  29  30
ATOM     30  C   UNL     1       5.799   5.359  15.157  0.00  0.00    +0.000 C 
ATOM     31  O   UNL     1       5.355   4.500  14.409  0.00  0.00    +0.000 OA
BRANCH  30  32
ATOM     32  O   UNL     1       5.322   6.627  15.159  0.00  0.00    +0.000 OA
ATOM     33  H   UNL     1       5.986   7.247  15.534  0.00  0.00    +0.000 HD
ENDBRANCH  30  32
ENDBRANCH  29  30
ENDBRANCH  28  29
ENDBRANCH  27  28
ENDBRANCH  26  27
ENDBRANCH  25  26
ENDBRANCH  24  25
ENDBRANCH   6  24
TORSDOF 16
ENDMDL
