MODEL 1
REMARK VINA RESULT:      -7.7      0.000      0.000
REMARK  Name = 
REMARK  6 active torsions:
REMARK  status: ('A' for Active; 'I' for Inactive)
REMARK    1  A    between atoms: C_2  and  C_14
REMARK    2  A    between atoms: N_3  and  C_4
REMARK    3  A    between atoms: C_4  and  C_5
REMARK    4  A    between atoms: C_5  and  C_6
REMARK    5  A    between atoms: C_6  and  N_7
REMARK    6  A    between atoms: C_23  and  N_24
REMARK                            x       y       z     vdW  Elec       q    Type
REMARK                         _______ _______ _______ _____ _____    ______ ____
ROOT
ATOM      1  C   UNL     1       2.215   7.709  18.884  0.00  0.00    +0.000 A 
ATOM      2  C   UNL     1       1.773   8.281  17.687  0.00  0.00    +0.000 A 
ATOM      3  C   UNL     1       0.933   9.395  17.722  0.00  0.00    +0.000 A 
ATOM      4  C   UNL     1       0.577   9.958  18.951  0.00  0.00    +0.000 A 
ATOM      5  C   UNL     1       0.940   9.321  20.145  0.00  0.00    +0.000 A 
ATOM      6  C   UNL     1       1.740   8.181  20.111  0.00  0.00    +0.000 A 
ATOM      7  N   UNL     1       0.569   9.826  21.397  0.00  0.00    +0.000 N 
ATOM      8  C   UNL     1       0.177  11.117  21.638  0.00  0.00    +0.000 C 
ATOM      9  O   UNL     1      -0.219  11.422  22.769  0.00  0.00    +0.000 OA
ATOM     10  C   UNL     1       0.384  12.184  20.550  0.00  0.00    +0.000 C 
ATOM     11  S   UNL     1      -0.247  11.532  18.946  0.00  0.00    +0.000 S 
ATOM     12  H   UNL     1       0.653   9.244  22.224  0.00  0.00    +0.000 HD
ENDROOT
BRANCH  10  13
ATOM     13  N   UNL     1       1.769  12.728  20.477  0.00  0.00    +0.000 NA
ATOM     14  C   UNL     1       2.155  13.848  21.372  0.00  0.00    +0.000 C 
ATOM     15  C   UNL     1       1.866  15.292  20.892  0.00  0.00    +0.000 C 
ATOM     16  O   UNL     1       2.330  15.505  19.554  0.00  0.00    +0.000 OA
ATOM     17  C   UNL     1       1.734  14.546  18.674  0.00  0.00    +0.000 C 
ATOM     18  C   UNL     1       2.137  13.115  19.090  0.00  0.00    +0.000 C 
ENDBRANCH  10  13
BRANCH   1  20
ATOM     19  O   UNL     1       3.469   6.040  19.948  0.00  0.00    +0.000 OA
ATOM     20  C   UNL     1       3.234   6.630  18.918  0.00  0.00    +0.000 C 
ATOM     21  N   UNL     1       3.919   6.430  17.734  0.00  0.00    +0.000 N 
ATOM     22  H   UNL     1       3.778   7.036  16.940  0.00  0.00    +0.000 HD
BRANCH  21  23
ATOM     23  C   UNL     1       4.972   5.443  17.654  0.00  0.00    +0.000 C 
BRANCH  23  24
ATOM     24  C   UNL     1       4.602   4.323  16.695  0.00  0.00    +0.000 C 
BRANCH  24  25
ATOM     25  C   UNL     1       4.233   3.006  17.411  0.00  0.00    +0.000 C 
BRANCH  25  26
ATOM     26  N   UNL     1       3.406   3.172  18.630  0.00  0.00    +0.000 NA
ATOM     27  C   UNL     1       2.014   2.746  18.469  0.00  0.00    +0.000 C 
ATOM     28  C   UNL     1       1.028   3.543  19.326  0.00  0.00    +0.000 C 
ATOM     29  C   UNL     1       0.968   3.150  20.791  0.00  0.00    +0.000 C 
ATOM     30  C   UNL     1       2.300   3.272  21.516  0.00  0.00    +0.000 C 
ATOM     31  C   UNL     1       3.306   2.233  21.041  0.00  0.00    +0.000 C 
ATOM     32  C   UNL     1       4.114   2.633  19.802  0.00  0.00    +0.000 C 
ENDBRANCH  25  26
ENDBRANCH  24  25
ENDBRANCH  23  24
ENDBRANCH  21  23
ENDBRANCH   1  20
TORSDOF 6
ENDMDL
MODEL 2
REMARK VINA RESULT:      -7.7      2.793      3.839
REMARK  Name = 
REMARK  6 active torsions:
REMARK  status: ('A' for Active; 'I' for Inactive)
REMARK    1  A    between atoms: C_2  and  C_14
REMARK    2  A    between atoms: N_3  and  C_4
REMARK    3  A    between atoms: C_4  and  C_5
REMARK    4  A    between atoms: C_5  and  C_6
REMARK    5  A    between atoms: C_6  and  N_7
REMARK    6  A    between atoms: C_23  and  N_24
REMARK                            x       y       z     vdW  Elec       q    Type
REMARK                         _______ _______ _______ _____ _____    ______ ____
ROOT
ATOM      1  C   UNL     1       2.492   8.233  18.475  0.00  0.00    +0.000 A 
ATOM      2  C   UNL     1       2.027   7.777  19.713  0.00  0.00    +0.000 A 
ATOM      3  C   UNL     1       1.080   8.525  20.413  0.00  0.00    +0.000 A 
ATOM      4  C   UNL     1       0.571   9.700  19.853  0.00  0.00    +0.000 A 
ATOM      5  C   UNL     1       1.113  10.202  18.664  0.00  0.00    +0.000 A 
ATOM      6  C   UNL     1       2.092   9.479  17.985  0.00  0.00    +0.000 A 
ATOM      7  N   UNL     1       0.662  11.397  18.089  0.00  0.00    +0.000 N 
ATOM      8  C   UNL     1      -0.542  11.992  18.360  0.00  0.00    +0.000 C 
ATOM      9  O   UNL     1      -0.789  13.097  17.862  0.00  0.00    +0.000 OA
ATOM     10  C   UNL     1      -1.610  11.212  19.143  0.00  0.00    +0.000 C 
ATOM     11  S   UNL     1      -0.830  10.462  20.635  0.00  0.00    +0.000 S 
ATOM     12  H   UNL     1       1.207  11.846  17.360  0.00  0.00    +0.000 HD
ENDROOT
BRANCH  10  13
ATOM     13  N   UNL     1      -2.391  10.246  18.321  0.00  0.00    +0.000 NA
ATOM     14  C   UNL     1      -2.017  10.035  16.900  0.00  0.00    +0.000 C 
ATOM     15  C   UNL     1      -2.623  10.990  15.841  0.00  0.00    +0.000 C 
ATOM     16  O   UNL     1      -4.041  11.117  15.998  0.00  0.00    +0.000 OA
ATOM     17  C   UNL     1      -4.345  11.565  17.323  0.00  0.00    +0.000 C 
ATOM     18  C   UNL     1      -3.848  10.538  18.362  0.00  0.00    +0.000 C 
ENDBRANCH  10  13
BRANCH   1  20
ATOM     19  O   UNL     1       3.683   7.799  16.504  0.00  0.00    +0.000 OA
ATOM     20  C   UNL     1       3.371   7.410  17.607  0.00  0.00    +0.000 C 
ATOM     21  N   UNL     1       3.715   6.174  18.120  0.00  0.00    +0.000 N 
ATOM     22  H   UNL     1       3.323   5.841  18.987  0.00  0.00    +0.000 HD
BRANCH  21  23
ATOM     23  C   UNL     1       4.525   5.259  17.347  0.00  0.00    +0.000 C 
BRANCH  23  24
ATOM     24  C   UNL     1       5.648   4.675  18.190  0.00  0.00    +0.000 C 
BRANCH  24  25
ATOM     25  C   UNL     1       5.151   3.688  19.266  0.00  0.00    +0.000 C 
BRANCH  25  26
ATOM     26  N   UNL     1       3.684   3.476  19.285  0.00  0.00    +0.000 NA
ATOM     27  C   UNL     1       3.255   2.215  18.678  0.00  0.00    +0.000 C 
ATOM     28  C   UNL     1       1.877   2.293  18.016  0.00  0.00    +0.000 C 
ATOM     29  C   UNL     1       0.691   2.227  18.962  0.00  0.00    +0.000 C 
ATOM     30  C   UNL     1       0.681   3.328  20.013  0.00  0.00    +0.000 C 
ATOM     31  C   UNL     1       1.799   3.155  21.032  0.00  0.00    +0.000 C 
ATOM     32  C   UNL     1       3.146   3.762  20.625  0.00  0.00    +0.000 C 
ENDBRANCH  25  26
ENDBRANCH  24  25
ENDBRANCH  23  24
ENDBRANCH  21  23
ENDBRANCH   1  20
TORSDOF 6
ENDMDL
MODEL 3
REMARK VINA RESULT:      -7.7      2.740      3.921
REMARK  Name = 
REMARK  6 active torsions:
REMARK  status: ('A' for Active; 'I' for Inactive)
REMARK    1  A    between atoms: C_2  and  C_14
REMARK    2  A    between atoms: N_3  and  C_4
REMARK    3  A    between atoms: C_4  and  C_5
REMARK    4  A    between atoms: C_5  and  C_6
REMARK    5  A    between atoms: C_6  and  N_7
REMARK    6  A    between atoms: C_23  and  N_24
REMARK                            x       y       z     vdW  Elec       q    Type
REMARK                         _______ _______ _______ _____ _____    ______ ____
ROOT
ATOM      1  C   UNL     1       2.741   8.091  18.220  0.00  0.00    +0.000 A 
ATOM      2  C   UNL     1       2.287   7.522  19.414  0.00  0.00    +0.000 A 
ATOM      3  C   UNL     1       1.311   8.179  20.165  0.00  0.00    +0.000 A 
ATOM      4  C   UNL     1       0.763   9.376  19.697  0.00  0.00    +0.000 A 
ATOM      5  C   UNL     1       1.293   9.989  18.554  0.00  0.00    +0.000 A 
ATOM      6  C   UNL     1       2.300   9.358  17.828  0.00  0.00    +0.000 A 
ATOM      7  N   UNL     1       0.802  11.210  18.073  0.00  0.00    +0.000 N 
ATOM      8  C   UNL     1      -0.423  11.740  18.382  0.00  0.00    +0.000 C 
ATOM      9  O   UNL     1      -0.708  12.871  17.972  0.00  0.00    +0.000 OA
ATOM     10  C   UNL     1      -1.467  10.863  19.093  0.00  0.00    +0.000 C 
ATOM     11  S   UNL     1      -0.668  10.024  20.526  0.00  0.00    +0.000 S 
ATOM     12  H   UNL     1       1.334  11.735  17.386  0.00  0.00    +0.000 HD
ENDROOT
BRANCH  10  13
ATOM     13  N   UNL     1      -2.210   9.938  18.191  0.00  0.00    +0.000 NA
ATOM     14  C   UNL     1      -1.903   9.942  16.738  0.00  0.00    +0.000 C 
ATOM     15  C   UNL     1      -2.649  10.961  15.842  0.00  0.00    +0.000 C 
ATOM     16  O   UNL     1      -4.061  10.936  16.080  0.00  0.00    +0.000 OA
ATOM     17  C   UNL     1      -4.324  11.187  17.465  0.00  0.00    +0.000 C 
ATOM     18  C   UNL     1      -3.681  10.088  18.338  0.00  0.00    +0.000 C 
ENDBRANCH  10  13
BRANCH   1  20
ATOM     19  O   UNL     1       3.823   7.772  16.166  0.00  0.00    +0.000 OA
ATOM     20  C   UNL     1       3.652   7.371  17.295  0.00  0.00    +0.000 C 
ATOM     21  N   UNL     1       4.197   6.204  17.796  0.00  0.00    +0.000 N 
ATOM     22  H   UNL     1       3.921   5.843  18.696  0.00  0.00    +0.000 HD
BRANCH  21  23
ATOM     23  C   UNL     1       5.060   5.386  16.973  0.00  0.00    +0.000 C 
BRANCH  23  24
ATOM     24  C   UNL     1       4.711   3.913  17.109  0.00  0.00    +0.000 C 
BRANCH  24  25
ATOM     25  C   UNL     1       3.192   3.654  17.201  0.00  0.00    +0.000 C 
BRANCH  25  26
ATOM     26  N   UNL     1       2.706   3.282  18.551  0.00  0.00    +0.000 NA
ATOM     27  C   UNL     1       3.728   3.363  19.597  0.00  0.00    +0.000 C 
ATOM     28  C   UNL     1       3.533   2.344  20.722  0.00  0.00    +0.000 C 
ATOM     29  C   UNL     1       2.470   2.695  21.748  0.00  0.00    +0.000 C 
ATOM     30  C   UNL     1       1.083   2.890  21.155  0.00  0.00    +0.000 C 
ATOM     31  C   UNL     1       0.999   4.146  20.297  0.00  0.00    +0.000 C 
ATOM     32  C   UNL     1       1.434   3.964  18.839  0.00  0.00    +0.000 C 
ENDBRANCH  25  26
ENDBRANCH  24  25
ENDBRANCH  23  24
ENDBRANCH  21  23
ENDBRANCH   1  20
TORSDOF 6
ENDMDL
MODEL 4
REMARK VINA RESULT:      -7.6      5.945      7.093
REMARK  Name = 
REMARK  6 active torsions:
REMARK  status: ('A' for Active; 'I' for Inactive)
REMARK    1  A    between atoms: C_2  and  C_14
REMARK    2  A    between atoms: N_3  and  C_4
REMARK    3  A    between atoms: C_4  and  C_5
REMARK    4  A    between atoms: C_5  and  C_6
REMARK    5  A    between atoms: C_6  and  N_7
REMARK    6  A    between atoms: C_23  and  N_24
REMARK                            x       y       z     vdW  Elec       q    Type
REMARK                         _______ _______ _______ _____ _____    ______ ____
ROOT
ATOM      1  C   UNL     1       8.906   9.621  18.703  0.00  0.00    +0.000 A 
ATOM      2  C   UNL     1       8.964   9.813  20.087  0.00  0.00    +0.000 A 
ATOM      3  C   UNL     1       9.497  10.996  20.598  0.00  0.00    +0.000 A 
ATOM      4  C   UNL     1       9.928  11.998  19.725  0.00  0.00    +0.000 A 
ATOM      5  C   UNL     1       9.961  11.759  18.346  0.00  0.00    +0.000 A 
ATOM      6  C   UNL     1       9.471  10.559  17.835  0.00  0.00    +0.000 A 
ATOM      7  N   UNL     1      10.425  12.719  17.437  0.00  0.00    +0.000 N 
ATOM      8  C   UNL     1      10.528  14.060  17.698  0.00  0.00    +0.000 C 
ATOM      9  O   UNL     1      11.042  14.798  16.849  0.00  0.00    +0.000 OA
ATOM     10  C   UNL     1       9.868  14.636  18.961  0.00  0.00    +0.000 C 
ATOM     11  S   UNL     1      10.328  13.589  20.407  0.00  0.00    +0.000 S 
ATOM     12  H   UNL     1      10.641  12.451  16.483  0.00  0.00    +0.000 HD
ENDROOT
BRANCH  10  13
ATOM     13  N   UNL     1       8.404  14.880  18.834  0.00  0.00    +0.000 NA
ATOM     14  C   UNL     1       7.925  15.966  17.943  0.00  0.00    +0.000 C 
ATOM     15  C   UNL     1       7.824  17.396  18.532  0.00  0.00    +0.000 C 
ATOM     16  O   UNL     1       7.131  17.400  19.785  0.00  0.00    +0.000 OA
ATOM     17  C   UNL     1       7.782  16.515  20.703  0.00  0.00    +0.000 C 
ATOM     18  C   UNL     1       7.760  15.071  20.160  0.00  0.00    +0.000 C 
ENDBRANCH  10  13
BRANCH   1  20
ATOM     19  O   UNL     1       7.515   8.613  17.108  0.00  0.00    +0.000 OA
ATOM     20  C   UNL     1       8.205   8.464  18.091  0.00  0.00    +0.000 C 
ATOM     21  N   UNL     1       8.342   7.267  18.770  0.00  0.00    +0.000 N 
ATOM     22  H   UNL     1       8.820   7.221  19.656  0.00  0.00    +0.000 HD
BRANCH  21  23
ATOM     23  C   UNL     1       7.664   6.078  18.303  0.00  0.00    +0.000 C 
BRANCH  23  24
ATOM     24  C   UNL     1       6.401   5.816  19.106  0.00  0.00    +0.000 C 
BRANCH  24  25
ATOM     25  C   UNL     1       5.108   6.003  18.285  0.00  0.00    +0.000 C 
BRANCH  25  26
ATOM     26  N   UNL     1       3.963   5.173  18.729  0.00  0.00    +0.000 NA
ATOM     27  C   UNL     1       3.037   5.866  19.628  0.00  0.00    +0.000 C 
ATOM     28  C   UNL     1       2.362   4.940  20.642  0.00  0.00    +0.000 C 
ATOM     29  C   UNL     1       1.206   4.113  20.107  0.00  0.00    +0.000 C 
ATOM     30  C   UNL     1       1.585   3.208  18.945  0.00  0.00    +0.000 C 
ATOM     31  C   UNL     1       1.905   3.999  17.683  0.00  0.00    +0.000 C 
ATOM     32  C   UNL     1       3.353   4.490  17.578  0.00  0.00    +0.000 C 
ENDBRANCH  25  26
ENDBRANCH  24  25
ENDBRANCH  23  24
ENDBRANCH  21  23
ENDBRANCH   1  20
TORSDOF 6
ENDMDL
MODEL 5
REMARK VINA RESULT:      -7.5      6.207      7.361
REMARK  Name = 
REMARK  6 active torsions:
REMARK  status: ('A' for Active; 'I' for Inactive)
REMARK    1  A    between atoms: C_2  and  C_14
REMARK    2  A    between atoms: N_3  and  C_4
REMARK    3  A    between atoms: C_4  and  C_5
REMARK    4  A    between atoms: C_5  and  C_6
REMARK    5  A    between atoms: C_6  and  N_7
REMARK    6  A    between atoms: C_23  and  N_24
REMARK                            x       y       z     vdW  Elec       q    Type
REMARK                         _______ _______ _______ _____ _____    ______ ____
ROOT
ATOM      1  C   UNL     1       9.020  10.093  18.744  0.00  0.00    +0.000 A 
ATOM      2  C   UNL     1       9.179  10.187  20.130  0.00  0.00    +0.000 A 
ATOM      3  C   UNL     1       9.768  11.325  20.682  0.00  0.00    +0.000 A 
ATOM      4  C   UNL     1      10.155  12.380  19.851  0.00  0.00    +0.000 A 
ATOM      5  C   UNL     1      10.087  12.236  18.459  0.00  0.00    +0.000 A 
ATOM      6  C   UNL     1       9.540  11.081  17.904  0.00  0.00    +0.000 A 
ATOM      7  N   UNL     1      10.503  13.251  17.588  0.00  0.00    +0.000 N 
ATOM      8  C   UNL     1      10.648  14.569  17.931  0.00  0.00    +0.000 C 
ATOM      9  O   UNL     1      11.114  15.357  17.100  0.00  0.00    +0.000 OA
ATOM     10  C   UNL     1      10.090  15.065  19.275  0.00  0.00    +0.000 C 
ATOM     11  S   UNL     1      10.631  13.914  20.609  0.00  0.00    +0.000 S 
ATOM     12  H   UNL     1      10.647  13.046  16.604  0.00  0.00    +0.000 HD
ENDROOT
BRANCH  10  13
ATOM     13  N   UNL     1       8.625  15.336  19.270  0.00  0.00    +0.000 NA
ATOM     14  C   UNL     1       8.038  16.125  18.157  0.00  0.00    +0.000 C 
ATOM     15  C   UNL     1       8.036  17.669  18.286  0.00  0.00    +0.000 C 
ATOM     16  O   UNL     1       7.525  18.090  19.555  0.00  0.00    +0.000 OA
ATOM     17  C   UNL     1       8.287  17.492  20.609  0.00  0.00    +0.000 C 
ATOM     18  C   UNL     1       8.173  15.954  20.544  0.00  0.00    +0.000 C 
ENDBRANCH  10  13
BRANCH   1  20
ATOM     19  O   UNL     1       7.456   9.225  17.230  0.00  0.00    +0.000 OA
ATOM     20  C   UNL     1       8.257   8.990  18.107  0.00  0.00    +0.000 C 
ATOM     21  N   UNL     1       8.477   7.735  18.643  0.00  0.00    +0.000 N 
ATOM     22  H   UNL     1       9.056   7.610  19.459  0.00  0.00    +0.000 HD
BRANCH  21  23
ATOM     23  C   UNL     1       7.755   6.587  18.142  0.00  0.00    +0.000 C 
BRANCH  23  24
ATOM     24  C   UNL     1       7.161   5.774  19.282  0.00  0.00    +0.000 C 
BRANCH  24  25
ATOM     25  C   UNL     1       6.432   4.501  18.804  0.00  0.00    +0.000 C 
BRANCH  25  26
ATOM     26  N   UNL     1       5.004   4.695  18.457  0.00  0.00    +0.000 NA
ATOM     27  C   UNL     1       4.273   3.449  18.221  0.00  0.00    +0.000 C 
ATOM     28  C   UNL     1       3.145   3.587  17.195  0.00  0.00    +0.000 C 
ATOM     29  C   UNL     1       1.867   4.227  17.708  0.00  0.00    +0.000 C 
ATOM     30  C   UNL     1       2.062   5.629  18.263  0.00  0.00    +0.000 C 
ATOM     31  C   UNL     1       2.855   5.625  19.563  0.00  0.00    +0.000 C 
ATOM     32  C   UNL     1       4.378   5.642  19.393  0.00  0.00    +0.000 C 
ENDBRANCH  25  26
ENDBRANCH  24  25
ENDBRANCH  23  24
ENDBRANCH  21  23
ENDBRANCH   1  20
TORSDOF 6
ENDMDL
MODEL 6
REMARK VINA RESULT:      -7.5      2.822      3.984
REMARK  Name = 
REMARK  6 active torsions:
REMARK  status: ('A' for Active; 'I' for Inactive)
REMARK    1  A    between atoms: C_2  and  C_14
REMARK    2  A    between atoms: N_3  and  C_4
REMARK    3  A    between atoms: C_4  and  C_5
REMARK    4  A    between atoms: C_5  and  C_6
REMARK    5  A    between atoms: C_6  and  N_7
REMARK    6  A    between atoms: C_23  and  N_24
REMARK                            x       y       z     vdW  Elec       q    Type
REMARK                         _______ _______ _______ _____ _____    ______ ____
ROOT
ATOM      1  C   UNL     1       2.758   8.185  18.257  0.00  0.00    +0.000 A 
ATOM      2  C   UNL     1       2.278   7.590  19.429  0.00  0.00    +0.000 A 
ATOM      3  C   UNL     1       1.261   8.211  20.153  0.00  0.00    +0.000 A 
ATOM      4  C   UNL     1       0.697   9.399  19.681  0.00  0.00    +0.000 A 
ATOM      5  C   UNL     1       1.250  10.041  18.565  0.00  0.00    +0.000 A 
ATOM      6  C   UNL     1       2.297   9.445  17.865  0.00  0.00    +0.000 A 
ATOM      7  N   UNL     1       0.744  11.255  18.081  0.00  0.00    +0.000 N 
ATOM      8  C   UNL     1      -0.505  11.749  18.355  0.00  0.00    +0.000 C 
ATOM      9  O   UNL     1      -0.805  12.877  17.949  0.00  0.00    +0.000 OA
ATOM     10  C   UNL     1      -1.549  10.836  19.019  0.00  0.00    +0.000 C 
ATOM     11  S   UNL     1      -0.777  10.000  20.468  0.00  0.00    +0.000 S 
ATOM     12  H   UNL     1       1.285  11.802  17.419  0.00  0.00    +0.000 HD
ENDROOT
BRANCH  10  13
ATOM     13  N   UNL     1      -2.236   9.904  18.081  0.00  0.00    +0.000 NA
ATOM     14  C   UNL     1      -1.927   9.978  16.630  0.00  0.00    +0.000 C 
ATOM     15  C   UNL     1      -2.728  10.985  15.768  0.00  0.00    +0.000 C 
ATOM     16  O   UNL     1      -4.136  10.872  16.000  0.00  0.00    +0.000 OA
ATOM     17  C   UNL     1      -4.416  11.057  17.392  0.00  0.00    +0.000 C 
ATOM     18  C   UNL     1      -3.714   9.965  18.227  0.00  0.00    +0.000 C 
ENDBRANCH  10  13
BRANCH   1  20
ATOM     19  O   UNL     1       3.612   7.602  16.154  0.00  0.00    +0.000 OA
ATOM     20  C   UNL     1       3.718   7.501  17.356  0.00  0.00    +0.000 C 
ATOM     21  N   UNL     1       4.654   6.704  17.988  0.00  0.00    +0.000 N 
ATOM     22  H   UNL     1       4.620   6.549  18.984  0.00  0.00    +0.000 HD
BRANCH  21  23
ATOM     23  C   UNL     1       5.612   5.945  17.216  0.00  0.00    +0.000 C 
BRANCH  23  24
ATOM     24  C   UNL     1       5.342   4.452  17.322  0.00  0.00    +0.000 C 
BRANCH  24  25
ATOM     25  C   UNL     1       5.146   3.972  18.776  0.00  0.00    +0.000 C 
BRANCH  25  26
ATOM     26  N   UNL     1       3.761   3.570  19.117  0.00  0.00    +0.000 NA
ATOM     27  C   UNL     1       3.224   4.232  20.307  0.00  0.00    +0.000 C 
ATOM     28  C   UNL     1       2.227   3.372  21.088  0.00  0.00    +0.000 C 
ATOM     29  C   UNL     1       0.826   3.302  20.508  0.00  0.00    +0.000 C 
ATOM     30  C   UNL     1       0.775   2.763  19.086  0.00  0.00    +0.000 C 
ATOM     31  C   UNL     1       1.391   3.732  18.085  0.00  0.00    +0.000 C 
ATOM     32  C   UNL     1       2.909   3.611  17.917  0.00  0.00    +0.000 C 
ENDBRANCH  25  26
ENDBRANCH  24  25
ENDBRANCH  23  24
ENDBRANCH  21  23
ENDBRANCH   1  20
TORSDOF 6
ENDMDL
MODEL 7
REMARK VINA RESULT:      -7.4      0.753      1.382
REMARK  Name = 
REMARK  6 active torsions:
REMARK  status: ('A' for Active; 'I' for Inactive)
REMARK    1  A    between atoms: C_2  and  C_14
REMARK    2  A    between atoms: N_3  and  C_4
REMARK    3  A    between atoms: C_4  and  C_5
REMARK    4  A    between atoms: C_5  and  C_6
REMARK    5  A    between atoms: C_6  and  N_7
REMARK    6  A    between atoms: C_23  and  N_24
REMARK                            x       y       z     vdW  Elec       q    Type
REMARK                         _______ _______ _______ _____ _____    ______ ____
ROOT
ATOM      1  C   UNL     1       2.104   8.045  18.811  0.00  0.00    +0.000 A 
ATOM      2  C   UNL     1       1.591   8.691  17.681  0.00  0.00    +0.000 A 
ATOM      3  C   UNL     1       0.685   9.740  17.837  0.00  0.00    +0.000 A 
ATOM      4  C   UNL     1       0.332  10.168  19.119  0.00  0.00    +0.000 A 
ATOM      5  C   UNL     1       0.769   9.454  20.242  0.00  0.00    +0.000 A 
ATOM      6  C   UNL     1       1.638   8.376  20.086  0.00  0.00    +0.000 A 
ATOM      7  N   UNL     1       0.405   9.822  21.543  0.00  0.00    +0.000 N 
ATOM      8  C   UNL     1      -0.060  11.058  21.908  0.00  0.00    +0.000 C 
ATOM      9  O   UNL     1      -0.440  11.236  23.071  0.00  0.00    +0.000 OA
ATOM     10  C   UNL     1       0.047  12.227  20.916  0.00  0.00    +0.000 C 
ATOM     11  S   UNL     1      -0.589  11.679  19.275  0.00  0.00    +0.000 S 
ATOM     12  H   UNL     1       0.550   9.175  22.312  0.00  0.00    +0.000 HD
ENDROOT
BRANCH  10  13
ATOM     13  N   UNL     1       1.392  12.864  20.858  0.00  0.00    +0.000 NA
ATOM     14  C   UNL     1       1.632  14.119  21.616  0.00  0.00    +0.000 C 
ATOM     15  C   UNL     1       1.280  15.461  20.926  0.00  0.00    +0.000 C 
ATOM     16  O   UNL     1       1.827  15.532  19.605  0.00  0.00    +0.000 OA
ATOM     17  C   UNL     1       1.365  14.423  18.827  0.00  0.00    +0.000 C 
ATOM     18  C   UNL     1       1.835  13.095  19.458  0.00  0.00    +0.000 C 
ENDBRANCH  10  13
BRANCH   1  20
ATOM     19  O   UNL     1       3.381   6.260  19.632  0.00  0.00    +0.000 OA
ATOM     20  C   UNL     1       3.189   7.036  18.723  0.00  0.00    +0.000 C 
ATOM     21  N   UNL     1       3.978   7.118  17.591  0.00  0.00    +0.000 N 
ATOM     22  H   UNL     1       3.860   7.865  16.925  0.00  0.00    +0.000 HD
BRANCH  21  23
ATOM     23  C   UNL     1       5.100   6.223  17.414  0.00  0.00    +0.000 C 
BRANCH  23  24
ATOM     24  C   UNL     1       4.803   5.175  16.353  0.00  0.00    +0.000 C 
BRANCH  24  25
ATOM     25  C   UNL     1       4.975   3.729  16.863  0.00  0.00    +0.000 C 
BRANCH  25  26
ATOM     26  N   UNL     1       3.845   3.218  17.676  0.00  0.00    +0.000 NA
ATOM     27  C   UNL     1       4.056   3.322  19.121  0.00  0.00    +0.000 C 
ATOM     28  C   UNL     1       3.369   2.213  19.921  0.00  0.00    +0.000 C 
ATOM     29  C   UNL     1       1.876   2.387  20.136  0.00  0.00    +0.000 C 
ATOM     30  C   UNL     1       1.077   2.489  18.846  0.00  0.00    +0.000 C 
ATOM     31  C   UNL     1       1.356   3.788  18.101  0.00  0.00    +0.000 C 
ATOM     32  C   UNL     1       2.571   3.752  17.170  0.00  0.00    +0.000 C 
ENDBRANCH  25  26
ENDBRANCH  24  25
ENDBRANCH  23  24
ENDBRANCH  21  23
ENDBRANCH   1  20
TORSDOF 6
ENDMDL
MODEL 8
REMARK VINA RESULT:      -7.4      3.047      4.777
REMARK  Name = 
REMARK  6 active torsions:
REMARK  status: ('A' for Active; 'I' for Inactive)
REMARK    1  A    between atoms: C_2  and  C_14
REMARK    2  A    between atoms: N_3  and  C_4
REMARK    3  A    between atoms: C_4  and  C_5
REMARK    4  A    between atoms: C_5  and  C_6
REMARK    5  A    between atoms: C_6  and  N_7
REMARK    6  A    between atoms: C_23  and  N_24
REMARK                            x       y       z     vdW  Elec       q    Type
REMARK                         _______ _______ _______ _____ _____    ______ ____
ROOT
ATOM      1  C   UNL     1       1.342   8.308  20.394  0.00  0.00    +0.000 A 
ATOM      2  C   UNL     1       0.613   8.431  21.581  0.00  0.00    +0.000 A 
ATOM      3  C   UNL     1      -0.251   9.512  21.753  0.00  0.00    +0.000 A 
ATOM      4  C   UNL     1      -0.416  10.441  20.722  0.00  0.00    +0.000 A 
ATOM      5  C   UNL     1       0.392  10.369  19.579  0.00  0.00    +0.000 A 
ATOM      6  C   UNL     1       1.289   9.314  19.425  0.00  0.00    +0.000 A 
ATOM      7  N   UNL     1       0.291  11.303  18.539  0.00  0.00    +0.000 N 
ATOM      8  C   UNL     1      -0.789  12.116  18.318  0.00  0.00    +0.000 C 
ATOM      9  O   UNL     1      -0.724  12.968  17.425  0.00  0.00    +0.000 OA
ATOM     10  C   UNL     1      -2.102  11.850  19.073  0.00  0.00    +0.000 C 
ATOM     11  S   UNL     1      -1.728  11.630  20.864  0.00  0.00    +0.000 S 
ATOM     12  H   UNL     1       1.020  11.359  17.836  0.00  0.00    +0.000 HD
ENDROOT
BRANCH  10  13
ATOM     13  N   UNL     1      -2.936  10.761  18.493  0.00  0.00    +0.000 NA
ATOM     14  C   UNL     1      -2.499  10.108  17.232  0.00  0.00    +0.000 C 
ATOM     15  C   UNL     1      -2.925  10.761  15.893  0.00  0.00    +0.000 C 
ATOM     16  O   UNL     1      -4.326  11.057  15.874  0.00  0.00    +0.000 OA
ATOM     17  C   UNL     1      -4.660  11.901  16.982  0.00  0.00    +0.000 C 
ATOM     18  C   UNL     1      -4.349  11.183  18.313  0.00  0.00    +0.000 C 
ENDBRANCH  10  13
BRANCH   1  20
ATOM     19  O   UNL     1       2.936   7.113  19.160  0.00  0.00    +0.000 OA
ATOM     20  C   UNL     1       2.150   7.103  20.080  0.00  0.00    +0.000 C 
ATOM     21  N   UNL     1       1.871   5.991  20.852  0.00  0.00    +0.000 N 
ATOM     22  H   UNL     1       1.116   5.994  21.519  0.00  0.00    +0.000 HD
BRANCH  21  23
ATOM     23  C   UNL     1       2.555   4.740  20.608  0.00  0.00    +0.000 C 
BRANCH  23  24
ATOM     24  C   UNL     1       1.972   4.022  19.402  0.00  0.00    +0.000 C 
BRANCH  24  25
ATOM     25  C   UNL     1       3.039   3.318  18.538  0.00  0.00    +0.000 C 
BRANCH  25  26
ATOM     26  N   UNL     1       4.147   4.193  18.083  0.00  0.00    +0.000 NA
ATOM     27  C   UNL     1       5.367   4.076  18.884  0.00  0.00    +0.000 C 
ATOM     28  C   UNL     1       6.173   5.374  18.963  0.00  0.00    +0.000 C 
ATOM     29  C   UNL     1       7.018   5.696  17.743  0.00  0.00    +0.000 C 
ATOM     30  C   UNL     1       6.217   5.812  16.454  0.00  0.00    +0.000 C 
ATOM     31  C   UNL     1       5.663   4.468  16.002  0.00  0.00    +0.000 C 
ATOM     32  C   UNL     1       4.319   4.080  16.626  0.00  0.00    +0.000 C 
ENDBRANCH  25  26
ENDBRANCH  24  25
ENDBRANCH  23  24
ENDBRANCH  21  23
ENDBRANCH   1  20
TORSDOF 6
ENDMDL
MODEL 9
REMARK VINA RESULT:      -7.3      6.403      7.468
REMARK  Name = 
REMARK  6 active torsions:
REMARK  status: ('A' for Active; 'I' for Inactive)
REMARK    1  A    between atoms: C_2  and  C_14
REMARK    2  A    between atoms: N_3  and  C_4
REMARK    3  A    between atoms: C_4  and  C_5
REMARK    4  A    between atoms: C_5  and  C_6
REMARK    5  A    between atoms: C_6  and  N_7
REMARK    6  A    between atoms: C_23  and  N_24
REMARK                            x       y       z     vdW  Elec       q    Type
REMARK                         _______ _______ _______ _____ _____    ______ ____
ROOT
ATOM      1  C   UNL     1       9.092  10.165  18.720  0.00  0.00    +0.000 A 
ATOM      2  C   UNL     1       9.151  10.271  20.113  0.00  0.00    +0.000 A 
ATOM      3  C   UNL     1       9.772  11.377  20.695  0.00  0.00    +0.000 A 
ATOM      4  C   UNL     1      10.289  12.390  19.884  0.00  0.00    +0.000 A 
ATOM      5  C   UNL     1      10.316  12.229  18.493  0.00  0.00    +0.000 A 
ATOM      6  C   UNL     1       9.738  11.103  17.911  0.00  0.00    +0.000 A 
ATOM      7  N   UNL     1      10.863  13.200  17.644  0.00  0.00    +0.000 N 
ATOM      8  C   UNL     1      11.070  14.511  17.983  0.00  0.00    +0.000 C 
ATOM      9  O   UNL     1      11.648  15.253  17.180  0.00  0.00    +0.000 OA
ATOM     10  C   UNL     1      10.446  15.064  19.274  0.00  0.00    +0.000 C 
ATOM     11  S   UNL     1      10.807  13.903  20.659  0.00  0.00    +0.000 S 
ATOM     12  H   UNL     1      11.067  12.970  16.677  0.00  0.00    +0.000 HD
ENDROOT
BRANCH  10  13
ATOM     13  N   UNL     1       9.007  15.430  19.155  0.00  0.00    +0.000 NA
ATOM     14  C   UNL     1       8.609  16.507  18.212  0.00  0.00    +0.000 C 
ATOM     15  C   UNL     1       8.646  17.969  18.724  0.00  0.00    +0.000 C 
ATOM     16  O   UNL     1       7.979  18.101  19.985  0.00  0.00    +0.000 OA
ATOM     17  C   UNL     1       8.566  17.211  20.941  0.00  0.00    +0.000 C 
ATOM     18  C   UNL     1       8.406  15.748  20.476  0.00  0.00    +0.000 C 
ENDBRANCH  10  13
BRANCH   1  20
ATOM     19  O   UNL     1       7.523   9.388  17.162  0.00  0.00    +0.000 OA
ATOM     20  C   UNL     1       8.307   9.104  18.039  0.00  0.00    +0.000 C 
ATOM     21  N   UNL     1       8.487   7.827  18.537  0.00  0.00    +0.000 N 
ATOM     22  H   UNL     1       9.053   7.661  19.355  0.00  0.00    +0.000 HD
BRANCH  21  23
ATOM     23  C   UNL     1       7.740   6.716  17.991  0.00  0.00    +0.000 C 
BRANCH  23  24
ATOM     24  C   UNL     1       7.190   5.830  19.098  0.00  0.00    +0.000 C 
BRANCH  24  25
ATOM     25  C   UNL     1       6.245   4.726  18.579  0.00  0.00    +0.000 C 
BRANCH  25  26
ATOM     26  N   UNL     1       4.923   4.675  19.248  0.00  0.00    +0.000 NA
ATOM     27  C   UNL     1       3.910   5.536  18.634  0.00  0.00    +0.000 C 
ATOM     28  C   UNL     1       2.887   6.083  19.632  0.00  0.00    +0.000 C 
ATOM     29  C   UNL     1       1.795   5.113  20.048  0.00  0.00    +0.000 C 
ATOM     30  C   UNL     1       2.317   3.835  20.687  0.00  0.00    +0.000 C 
ATOM     31  C   UNL     1       3.042   2.949  19.683  0.00  0.00    +0.000 C 
ATOM     32  C   UNL     1       4.525   3.277  19.481  0.00  0.00    +0.000 C 
ENDBRANCH  25  26
ENDBRANCH  24  25
ENDBRANCH  23  24
ENDBRANCH  21  23
ENDBRANCH   1  20
TORSDOF 6
ENDMDL
