MODEL 1
REMARK VINA RESULT:      -6.9      0.000      0.000
REMARK  Name = 
REMARK  7 active torsions:
REMARK  status: ('A' for Active; 'I' for Inactive)
REMARK    1  A    between atoms: C_1  and  C_2
REMARK    2  A    between atoms: C_4  and  C_5
REMARK    3  A    between atoms: C_6  and  C_7
REMARK    4  A    between atoms: C_8  and  C_9
REMARK    5  A    between atoms: C_9  and  C_11
REMARK    6  A    between atoms: C_12  and  C_13
REMARK    7  A    between atoms: C_27  and  C_28
REMARK                            x       y       z     vdW  Elec       q    Type
REMARK                         _______ _______ _______ _____ _____    ______ ____
ROOT
ATOM      1  C   UNL     1      -2.426  13.605  21.084  0.00  0.00    +0.000 C 
ATOM      2  C   UNL     1      -2.047  13.203  22.310  0.00  0.00    +0.000 C 
ATOM      3  C   UNL     1      -2.137  14.339  23.268  0.00  0.00    +0.000 C 
ATOM      4  C   UNL     1      -3.154  14.143  24.401  0.00  0.00    +0.000 C 
ATOM      5  C   UNL     1      -2.638  14.968  25.579  0.00  0.00    +0.000 C 
ATOM      6  C   UNL     1      -1.316  15.598  25.155  0.00  0.00    +0.000 C 
ATOM      7  C   UNL     1      -0.843  14.824  23.931  0.00  0.00    +0.000 C 
ATOM      8  O   UNL     1      -2.613  15.435  22.473  0.00  0.00    +0.000 OA
ATOM      9  C   UNL     1      -2.775  15.033  21.187  0.00  0.00    +0.000 C 
ATOM     10  O   UNL     1      -3.149  15.755  20.282  0.00  0.00    +0.000 OA
ENDROOT
BRANCH   1  16
ATOM     11  C   UNL     1      -2.618  10.538  16.176  0.00  0.00    +0.000 C 
ATOM     12  C   UNL     1      -2.596  11.370  17.424  0.00  0.00    +0.000 A 
ATOM     13  C   UNL     1      -3.716  11.458  18.252  0.00  0.00    +0.000 A 
ATOM     14  C   UNL     1      -3.684  12.207  19.441  0.00  0.00    +0.000 A 
ATOM     15  C   UNL     1      -4.939  12.290  20.271  0.00  0.00    +0.000 C 
ATOM     16  C   UNL     1      -2.492  12.872  19.815  0.00  0.00    +0.000 A 
ATOM     17  C   UNL     1      -1.374  12.835  18.952  0.00  0.00    +0.000 A 
ATOM     18  C   UNL     1      -0.101  13.598  19.203  0.00  0.00    +0.000 C 
ATOM     19  C   UNL     1      -1.444  12.082  17.767  0.00  0.00    +0.000 A 
ENDBRANCH   1  16
BRANCH   2  20
ATOM     20  C   UNL     1      -1.627  11.807  22.645  0.00  0.00    +0.000 C 
ATOM     21  O   UNL     1      -2.160  11.158  23.538  0.00  0.00    +0.000 OA
BRANCH  20  22
ATOM     22  C   UNL     1      -0.528  11.200  21.840  0.00  0.00    +0.000 C 
ATOM     23  C   UNL     1      -0.400   9.869  21.707  0.00  0.00    +0.000 C 
BRANCH  23  24
ATOM     24  C   UNL     1       0.534   9.266  20.738  0.00  0.00    +0.000 A 
ATOM     25  C   UNL     1       1.185   8.067  21.033  0.00  0.00    +0.000 A 
ATOM     26  C   UNL     1       2.019   7.456  20.088  0.00  0.00    +0.000 A 
ATOM     27  C   UNL     1       2.200   8.032  18.833  0.00  0.00    +0.000 A 
ATOM     28  C   UNL     1       1.546   9.219  18.518  0.00  0.00    +0.000 A 
ATOM     29  C   UNL     1       0.713   9.826  19.462  0.00  0.00    +0.000 A 
ENDBRANCH  23  24
ENDBRANCH  20  22
ENDBRANCH   2  20
TORSDOF 4
ENDMDL
MODEL 2
REMARK VINA RESULT:      -6.8      1.560      4.156
REMARK  Name = 
REMARK  7 active torsions:
REMARK  status: ('A' for Active; 'I' for Inactive)
REMARK    1  A    between atoms: C_1  and  C_2
REMARK    2  A    between atoms: C_4  and  C_5
REMARK    3  A    between atoms: C_6  and  C_7
REMARK    4  A    between atoms: C_8  and  C_9
REMARK    5  A    between atoms: C_9  and  C_11
REMARK    6  A    between atoms: C_12  and  C_13
REMARK    7  A    between atoms: C_27  and  C_28
REMARK                            x       y       z     vdW  Elec       q    Type
REMARK                         _______ _______ _______ _____ _____    ______ ____
ROOT
ATOM      1  C   UNL     1      -1.160  13.361  21.811  0.00  0.00    +0.000 C 
ATOM      2  C   UNL     1      -2.476  13.579  21.982  0.00  0.00    +0.000 C 
ATOM      3  C   UNL     1      -2.686  14.727  22.906  0.00  0.00    +0.000 C 
ATOM      4  C   UNL     1      -3.389  15.937  22.276  0.00  0.00    +0.000 C 
ATOM      5  C   UNL     1      -4.118  16.643  23.419  0.00  0.00    +0.000 C 
ATOM      6  C   UNL     1      -3.879  15.832  24.687  0.00  0.00    +0.000 C 
ATOM      7  C   UNL     1      -3.398  14.459  24.236  0.00  0.00    +0.000 C 
ATOM      8  O   UNL     1      -1.357  15.155  23.245  0.00  0.00    +0.000 OA
ATOM      9  C   UNL     1      -0.448  14.359  22.627  0.00  0.00    +0.000 C 
ATOM     10  O   UNL     1       0.758  14.473  22.744  0.00  0.00    +0.000 OA
ENDROOT
BRANCH   1  16
ATOM     11  C   UNL     1       1.444   9.303  18.603  0.00  0.00    +0.000 C 
ATOM     12  C   UNL     1       0.816  10.374  19.445  0.00  0.00    +0.000 A 
ATOM     13  C   UNL     1       0.704  11.686  18.980  0.00  0.00    +0.000 A 
ATOM     14  C   UNL     1       0.082  12.681  19.754  0.00  0.00    +0.000 A 
ATOM     15  C   UNL     1       0.027  14.084  19.208  0.00  0.00    +0.000 C 
ATOM     16  C   UNL     1      -0.454  12.347  21.021  0.00  0.00    +0.000 A 
ATOM     17  C   UNL     1      -0.292  11.036  21.522  0.00  0.00    +0.000 A 
ATOM     18  C   UNL     1      -0.724  10.609  22.900  0.00  0.00    +0.000 C 
ATOM     19  C   UNL     1       0.342  10.068  20.724  0.00  0.00    +0.000 A 
ENDBRANCH   1  16
BRANCH   2  20
ATOM     20  C   UNL     1      -3.555  12.789  21.311  0.00  0.00    +0.000 C 
ATOM     21  O   UNL     1      -4.521  12.348  21.921  0.00  0.00    +0.000 OA
BRANCH  20  22
ATOM     22  C   UNL     1      -3.432  12.554  19.843  0.00  0.00    +0.000 C 
ATOM     23  C   UNL     1      -3.091  11.354  19.344  0.00  0.00    +0.000 C 
BRANCH  23  24
ATOM     24  C   UNL     1      -3.189  11.048  17.905  0.00  0.00    +0.000 A 
ATOM     25  C   UNL     1      -2.285  10.172  17.303  0.00  0.00    +0.000 A 
ATOM     26  C   UNL     1      -2.416   9.825  15.952  0.00  0.00    +0.000 A 
ATOM     27  C   UNL     1      -3.462  10.344  15.192  0.00  0.00    +0.000 A 
ATOM     28  C   UNL     1      -4.380  11.208  15.781  0.00  0.00    +0.000 A 
ATOM     29  C   UNL     1      -4.247  11.550  17.129  0.00  0.00    +0.000 A 
ENDBRANCH  23  24
ENDBRANCH  20  22
ENDBRANCH   2  20
TORSDOF 4
ENDMDL
MODEL 3
REMARK VINA RESULT:      -6.8      9.076     10.555
REMARK  Name = 
REMARK  7 active torsions:
REMARK  status: ('A' for Active; 'I' for Inactive)
REMARK    1  A    between atoms: C_1  and  C_2
REMARK    2  A    between atoms: C_4  and  C_5
REMARK    3  A    between atoms: C_6  and  C_7
REMARK    4  A    between atoms: C_8  and  C_9
REMARK    5  A    between atoms: C_9  and  C_11
REMARK    6  A    between atoms: C_12  and  C_13
REMARK    7  A    between atoms: C_27  and  C_28
REMARK                            x       y       z     vdW  Elec       q    Type
REMARK                         _______ _______ _______ _____ _____    ______ ____
ROOT
ATOM      1  C   UNL     1       7.810  15.077  23.059  0.00  0.00    +0.000 C 
ATOM      2  C   UNL     1       7.645  14.011  23.863  0.00  0.00    +0.000 C 
ATOM      3  C   UNL     1       7.026  14.435  25.148  0.00  0.00    +0.000 C 
ATOM      4  C   UNL     1       5.638  13.837  25.418  0.00  0.00    +0.000 C 
ATOM      5  C   UNL     1       5.492  13.778  26.938  0.00  0.00    +0.000 C 
ATOM      6  C   UNL     1       6.793  14.292  27.545  0.00  0.00    +0.000 C 
ATOM      7  C   UNL     1       7.835  14.242  26.435  0.00  0.00    +0.000 C 
ATOM      8  O   UNL     1       6.842  15.851  25.002  0.00  0.00    +0.000 OA
ATOM      9  C   UNL     1       7.308  16.252  23.792  0.00  0.00    +0.000 C 
ATOM     10  O   UNL     1       7.302  17.403  23.399  0.00  0.00    +0.000 OA
ENDROOT
BRANCH   1  16
ATOM     11  C   UNL     1      10.138  15.278  17.760  0.00  0.00    +0.000 C 
ATOM     12  C   UNL     1       9.514  15.273  19.124  0.00  0.00    +0.000 A 
ATOM     13  C   UNL     1       8.152  15.015  19.294  0.00  0.00    +0.000 A 
ATOM     14  C   UNL     1       7.574  14.973  20.575  0.00  0.00    +0.000 A 
ATOM     15  C   UNL     1       6.092  14.725  20.685  0.00  0.00    +0.000 C 
ATOM     16  C   UNL     1       8.388  15.180  21.715  0.00  0.00    +0.000 A 
ATOM     17  C   UNL     1       9.753  15.499  21.546  0.00  0.00    +0.000 A 
ATOM     18  C   UNL     1      10.676  15.847  22.685  0.00  0.00    +0.000 C 
ATOM     19  C   UNL     1      10.296  15.540  20.250  0.00  0.00    +0.000 A 
ENDBRANCH   1  16
BRANCH   2  20
ATOM     20  C   UNL     1       8.014  12.610  23.489  0.00  0.00    +0.000 C 
ATOM     21  O   UNL     1       7.458  11.634  23.977  0.00  0.00    +0.000 OA
BRANCH  20  22
ATOM     22  C   UNL     1       9.089  12.422  22.473  0.00  0.00    +0.000 C 
ATOM     23  C   UNL     1       8.895  11.687  21.365  0.00  0.00    +0.000 C 
BRANCH  23  24
ATOM     24  C   UNL     1       9.862  11.681  20.251  0.00  0.00    +0.000 A 
ATOM     25  C   UNL     1       9.436  11.443  18.944  0.00  0.00    +0.000 A 
ATOM     26  C   UNL     1      10.340  11.505  17.875  0.00  0.00    +0.000 A 
ATOM     27  C   UNL     1      11.678  11.817  18.103  0.00  0.00    +0.000 A 
ATOM     28  C   UNL     1      12.116  12.071  19.400  0.00  0.00    +0.000 A 
ATOM     29  C   UNL     1      11.211  12.010  20.463  0.00  0.00    +0.000 A 
ENDBRANCH  23  24
ENDBRANCH  20  22
ENDBRANCH   2  20
TORSDOF 4
ENDMDL
MODEL 4
REMARK VINA RESULT:      -6.7      1.590      4.025
REMARK  Name = 
REMARK  7 active torsions:
REMARK  status: ('A' for Active; 'I' for Inactive)
REMARK    1  A    between atoms: C_1  and  C_2
REMARK    2  A    between atoms: C_4  and  C_5
REMARK    3  A    between atoms: C_6  and  C_7
REMARK    4  A    between atoms: C_8  and  C_9
REMARK    5  A    between atoms: C_9  and  C_11
REMARK    6  A    between atoms: C_12  and  C_13
REMARK    7  A    between atoms: C_27  and  C_28
REMARK                            x       y       z     vdW  Elec       q    Type
REMARK                         _______ _______ _______ _____ _____    ______ ____
ROOT
ATOM      1  C   UNL     1      -0.971  13.378  21.719  0.00  0.00    +0.000 C 
ATOM      2  C   UNL     1      -2.267  13.569  22.025  0.00  0.00    +0.000 C 
ATOM      3  C   UNL     1      -2.399  14.675  23.012  0.00  0.00    +0.000 C 
ATOM      4  C   UNL     1      -3.174  15.898  22.503  0.00  0.00    +0.000 C 
ATOM      5  C   UNL     1      -3.797  16.547  23.739  0.00  0.00    +0.000 C 
ATOM      6  C   UNL     1      -3.427  15.689  24.944  0.00  0.00    +0.000 C 
ATOM      7  C   UNL     1      -2.976  14.342  24.392  0.00  0.00    +0.000 C 
ATOM      8  O   UNL     1      -1.049  15.109  23.238  0.00  0.00    +0.000 OA
ATOM      9  C   UNL     1      -0.194  14.353  22.503  0.00  0.00    +0.000 C 
ATOM     10  O   UNL     1       1.016  14.480  22.508  0.00  0.00    +0.000 OA
ENDROOT
BRANCH   1  16
ATOM     11  C   UNL     1       1.738   9.605  18.260  0.00  0.00    +0.000 C 
ATOM     12  C   UNL     1       0.991  10.558  19.145  0.00  0.00    +0.000 A 
ATOM     13  C   UNL     1       0.551  10.173  20.413  0.00  0.00    +0.000 A 
ATOM     14  C   UNL     1      -0.116  11.077  21.257  0.00  0.00    +0.000 A 
ATOM     15  C   UNL     1      -0.595  10.586  22.598  0.00  0.00    +0.000 C 
ATOM     16  C   UNL     1      -0.333  12.407  20.823  0.00  0.00    +0.000 A 
ATOM     17  C   UNL     1       0.057  12.786  19.520  0.00  0.00    +0.000 A 
ATOM     18  C   UNL     1      -0.228  14.139  18.923  0.00  0.00    +0.000 C 
ATOM     19  C   UNL     1       0.715  11.854  18.699  0.00  0.00    +0.000 A 
ENDBRANCH   1  16
BRANCH   2  20
ATOM     20  C   UNL     1      -3.396  12.789  21.428  0.00  0.00    +0.000 C 
ATOM     21  O   UNL     1      -4.332  12.372  22.100  0.00  0.00    +0.000 OA
BRANCH  20  22
ATOM     22  C   UNL     1      -3.365  12.536  19.959  0.00  0.00    +0.000 C 
ATOM     23  C   UNL     1      -3.044  11.332  19.455  0.00  0.00    +0.000 C 
BRANCH  23  24
ATOM     24  C   UNL     1      -3.229  11.006  18.029  0.00  0.00    +0.000 A 
ATOM     25  C   UNL     1      -4.298  11.546  17.312  0.00  0.00    +0.000 A 
ATOM     26  C   UNL     1      -4.438  11.295  15.941  0.00  0.00    +0.000 A 
ATOM     27  C   UNL     1      -3.504  10.508  15.271  0.00  0.00    +0.000 A 
ATOM     28  C   UNL     1      -2.425   9.974  15.969  0.00  0.00    +0.000 A 
ATOM     29  C   UNL     1      -2.287  10.228  17.336  0.00  0.00    +0.000 A 
ENDBRANCH  23  24
ENDBRANCH  20  22
ENDBRANCH   2  20
TORSDOF 4
ENDMDL
MODEL 5
REMARK VINA RESULT:      -6.6      9.755     12.081
REMARK  Name = 
REMARK  7 active torsions:
REMARK  status: ('A' for Active; 'I' for Inactive)
REMARK    1  A    between atoms: C_1  and  C_2
REMARK    2  A    between atoms: C_4  and  C_5
REMARK    3  A    between atoms: C_6  and  C_7
REMARK    4  A    between atoms: C_8  and  C_9
REMARK    5  A    between atoms: C_9  and  C_11
REMARK    6  A    between atoms: C_12  and  C_13
REMARK    7  A    between atoms: C_27  and  C_28
REMARK                            x       y       z     vdW  Elec       q    Type
REMARK                         _______ _______ _______ _____ _____    ______ ____
ROOT
ATOM      1  C   UNL     1      10.231  13.976  18.431  0.00  0.00    +0.000 C 
ATOM      2  C   UNL     1       9.720  15.126  18.907  0.00  0.00    +0.000 C 
ATOM      3  C   UNL     1      10.615  16.263  18.559  0.00  0.00    +0.000 C 
ATOM      4  C   UNL     1       9.987  17.311  17.630  0.00  0.00    +0.000 C 
ATOM      5  C   UNL     1      10.689  18.631  17.946  0.00  0.00    +0.000 C 
ATOM      6  C   UNL     1      11.679  18.365  19.075  0.00  0.00    +0.000 C 
ATOM      7  C   UNL     1      11.268  17.041  19.707  0.00  0.00    +0.000 C 
ATOM      8  O   UNL     1      11.690  15.655  17.827  0.00  0.00    +0.000 OA
ATOM      9  C   UNL     1      11.494  14.314  17.752  0.00  0.00    +0.000 C 
ATOM     10  O   UNL     1      12.255  13.537  17.207  0.00  0.00    +0.000 OA
ENDROOT
BRANCH   1  16
ATOM     11  C   UNL     1       8.424   8.479  18.659  0.00  0.00    +0.000 C 
ATOM     12  C   UNL     1       8.868   9.912  18.645  0.00  0.00    +0.000 A 
ATOM     13  C   UNL     1       9.924  10.348  19.448  0.00  0.00    +0.000 A 
ATOM     14  C   UNL     1      10.364  11.682  19.408  0.00  0.00    +0.000 A 
ATOM     15  C   UNL     1      11.485  12.095  20.327  0.00  0.00    +0.000 C 
ATOM     16  C   UNL     1       9.739  12.598  18.528  0.00  0.00    +0.000 A 
ATOM     17  C   UNL     1       8.633  12.177  17.757  0.00  0.00    +0.000 A 
ATOM     18  C   UNL     1       7.831  13.098  16.876  0.00  0.00    +0.000 C 
ATOM     19  C   UNL     1       8.214  10.837  17.827  0.00  0.00    +0.000 A 
ENDBRANCH   1  16
BRANCH   2  20
ATOM     20  C   UNL     1       8.426  15.226  19.651  0.00  0.00    +0.000 C 
ATOM     21  O   UNL     1       7.452  15.815  19.196  0.00  0.00    +0.000 OA
BRANCH  20  22
ATOM     22  C   UNL     1       8.339  14.566  20.986  0.00  0.00    +0.000 C 
ATOM     23  C   UNL     1       7.219  13.948  21.397  0.00  0.00    +0.000 C 
BRANCH  23  24
ATOM     24  C   UNL     1       7.192  13.102  22.605  0.00  0.00    +0.000 A 
ATOM     25  C   UNL     1       8.284  12.294  22.930  0.00  0.00    +0.000 A 
ATOM     26  C   UNL     1       8.290  11.543  24.111  0.00  0.00    +0.000 A 
ATOM     27  C   UNL     1       7.209  11.600  24.987  0.00  0.00    +0.000 A 
ATOM     28  C   UNL     1       6.119  12.412  24.686  0.00  0.00    +0.000 A 
ATOM     29  C   UNL     1       6.116  13.162  23.507  0.00  0.00    +0.000 A 
ENDBRANCH  23  24
ENDBRANCH  20  22
ENDBRANCH   2  20
TORSDOF 4
ENDMDL
MODEL 6
REMARK VINA RESULT:      -6.6      2.360      4.876
REMARK  Name = 
REMARK  7 active torsions:
REMARK  status: ('A' for Active; 'I' for Inactive)
REMARK    1  A    between atoms: C_1  and  C_2
REMARK    2  A    between atoms: C_4  and  C_5
REMARK    3  A    between atoms: C_6  and  C_7
REMARK    4  A    between atoms: C_8  and  C_9
REMARK    5  A    between atoms: C_9  and  C_11
REMARK    6  A    between atoms: C_12  and  C_13
REMARK    7  A    between atoms: C_27  and  C_28
REMARK                            x       y       z     vdW  Elec       q    Type
REMARK                         _______ _______ _______ _____ _____    ______ ____
ROOT
ATOM      1  C   UNL     1      -0.202  13.873  21.294  0.00  0.00    +0.000 C 
ATOM      2  C   UNL     1       0.193  13.564  20.046  0.00  0.00    +0.000 C 
ATOM      3  C   UNL     1       1.450  14.288  19.715  0.00  0.00    +0.000 C 
ATOM      4  C   UNL     1       2.662  13.383  19.455  0.00  0.00    +0.000 C 
ATOM      5  C   UNL     1       3.571  14.158  18.502  0.00  0.00    +0.000 C 
ATOM      6  C   UNL     1       2.877  15.475  18.176  0.00  0.00    +0.000 C 
ATOM      7  C   UNL     1       1.415  15.302  18.566  0.00  0.00    +0.000 C 
ATOM      8  O   UNL     1       1.746  15.041  20.902  0.00  0.00    +0.000 OA
ATOM      9  C   UNL     1       0.784  14.825  21.834  0.00  0.00    +0.000 C 
ATOM     10  O   UNL     1       0.761  15.347  22.933  0.00  0.00    +0.000 OA
ENDROOT
BRANCH   1  16
ATOM     11  C   UNL     1      -4.742  12.249  24.501  0.00  0.00    +0.000 C 
ATOM     12  C   UNL     1      -3.593  12.658  23.628  0.00  0.00    +0.000 A 
ATOM     13  C   UNL     1      -3.599  13.881  22.953  0.00  0.00    +0.000 A 
ATOM     14  C   UNL     1      -2.507  14.281  22.165  0.00  0.00    +0.000 A 
ATOM     15  C   UNL     1      -2.592  15.597  21.435  0.00  0.00    +0.000 C 
ATOM     16  C   UNL     1      -1.373  13.439  22.063  0.00  0.00    +0.000 A 
ATOM     17  C   UNL     1      -1.386  12.176  22.694  0.00  0.00    +0.000 A 
ATOM     18  C   UNL     1      -0.281  11.162  22.556  0.00  0.00    +0.000 C 
ATOM     19  C   UNL     1      -2.498  11.804  23.470  0.00  0.00    +0.000 A 
ENDBRANCH   1  16
BRANCH   2  20
ATOM     20  C   UNL     1      -0.528  12.608  19.149  0.00  0.00    +0.000 C 
ATOM     21  O   UNL     1      -1.375  12.976  18.344  0.00  0.00    +0.000 OA
BRANCH  20  22
ATOM     22  C   UNL     1      -0.175  11.162  19.248  0.00  0.00    +0.000 C 
ATOM     23  C   UNL     1       0.881  10.646  18.596  0.00  0.00    +0.000 C 
BRANCH  23  24
ATOM     24  C   UNL     1       1.374   9.281  18.862  0.00  0.00    +0.000 A 
ATOM     25  C   UNL     1       2.038   8.561  17.868  0.00  0.00    +0.000 A 
ATOM     26  C   UNL     1       2.568   7.293  18.138  0.00  0.00    +0.000 A 
ATOM     27  C   UNL     1       2.450   6.737  19.410  0.00  0.00    +0.000 A 
ATOM     28  C   UNL     1       1.804   7.450  20.417  0.00  0.00    +0.000 A 
ATOM     29  C   UNL     1       1.278   8.715  20.144  0.00  0.00    +0.000 A 
ENDBRANCH  23  24
ENDBRANCH  20  22
ENDBRANCH   2  20
TORSDOF 4
ENDMDL
MODEL 7
REMARK VINA RESULT:      -6.6      0.107      1.623
REMARK  Name = 
REMARK  7 active torsions:
REMARK  status: ('A' for Active; 'I' for Inactive)
REMARK    1  A    between atoms: C_1  and  C_2
REMARK    2  A    between atoms: C_4  and  C_5
REMARK    3  A    between atoms: C_6  and  C_7
REMARK    4  A    between atoms: C_8  and  C_9
REMARK    5  A    between atoms: C_9  and  C_11
REMARK    6  A    between atoms: C_12  and  C_13
REMARK    7  A    between atoms: C_27  and  C_28
REMARK                            x       y       z     vdW  Elec       q    Type
REMARK                         _______ _______ _______ _____ _____    ______ ____
ROOT
ATOM      1  C   UNL     1      -2.431  13.601  21.093  0.00  0.00    +0.000 C 
ATOM      2  C   UNL     1      -2.063  13.206  22.325  0.00  0.00    +0.000 C 
ATOM      3  C   UNL     1      -2.162  14.347  23.276  0.00  0.00    +0.000 C 
ATOM      4  C   UNL     1      -3.189  14.155  24.400  0.00  0.00    +0.000 C 
ATOM      5  C   UNL     1      -2.685  14.987  25.578  0.00  0.00    +0.000 C 
ATOM      6  C   UNL     1      -1.360  15.617  25.162  0.00  0.00    +0.000 C 
ATOM      7  C   UNL     1      -0.875  14.837  23.947  0.00  0.00    +0.000 C 
ATOM      8  O   UNL     1      -2.632  15.438  22.470  0.00  0.00    +0.000 OA
ATOM      9  C   UNL     1      -2.782  15.028  21.185  0.00  0.00    +0.000 C 
ATOM     10  O   UNL     1      -3.149  15.745  20.272  0.00  0.00    +0.000 OA
ENDROOT
BRANCH   1  16
ATOM     11  C   UNL     1      -2.710  10.858  16.000  0.00  0.00    +0.000 C 
ATOM     12  C   UNL     1      -2.610  11.529  17.338  0.00  0.00    +0.000 A 
ATOM     13  C   UNL     1      -1.431  12.156  17.745  0.00  0.00    +0.000 A 
ATOM     14  C   UNL     1      -1.349  12.816  18.983  0.00  0.00    +0.000 A 
ATOM     15  C   UNL     1      -0.036  13.443  19.376  0.00  0.00    +0.000 C 
ATOM     16  C   UNL     1      -2.484  12.861  19.827  0.00  0.00    +0.000 A 
ATOM     17  C   UNL     1      -3.661  12.179  19.448  0.00  0.00    +0.000 A 
ATOM     18  C   UNL     1      -4.882  12.070  20.322  0.00  0.00    +0.000 C 
ATOM     19  C   UNL     1      -3.706  11.522  18.205  0.00  0.00    +0.000 A 
ENDBRANCH   1  16
BRANCH   2  20
ATOM     20  C   UNL     1      -1.644  11.812  22.671  0.00  0.00    +0.000 C 
ATOM     21  O   UNL     1      -2.180  11.170  23.566  0.00  0.00    +0.000 OA
BRANCH  20  22
ATOM     22  C   UNL     1      -0.542  11.199  21.874  0.00  0.00    +0.000 C 
ATOM     23  C   UNL     1      -0.425   9.867  21.736  0.00  0.00    +0.000 C 
BRANCH  23  24
ATOM     24  C   UNL     1       0.513   9.261  20.773  0.00  0.00    +0.000 A 
ATOM     25  C   UNL     1       1.170   8.068  21.079  0.00  0.00    +0.000 A 
ATOM     26  C   UNL     1       2.009   7.452  20.141  0.00  0.00    +0.000 A 
ATOM     27  C   UNL     1       2.189   8.019  18.881  0.00  0.00    +0.000 A 
ATOM     28  C   UNL     1       1.529   9.200  18.555  0.00  0.00    +0.000 A 
ATOM     29  C   UNL     1       0.692   9.811  19.493  0.00  0.00    +0.000 A 
ENDBRANCH  23  24
ENDBRANCH  20  22
ENDBRANCH   2  20
TORSDOF 4
ENDMDL
MODEL 8
REMARK VINA RESULT:      -6.5      9.365     11.998
REMARK  Name = 
REMARK  7 active torsions:
REMARK  status: ('A' for Active; 'I' for Inactive)
REMARK    1  A    between atoms: C_1  and  C_2
REMARK    2  A    between atoms: C_4  and  C_5
REMARK    3  A    between atoms: C_6  and  C_7
REMARK    4  A    between atoms: C_8  and  C_9
REMARK    5  A    between atoms: C_9  and  C_11
REMARK    6  A    between atoms: C_12  and  C_13
REMARK    7  A    between atoms: C_27  and  C_28
REMARK                            x       y       z     vdW  Elec       q    Type
REMARK                         _______ _______ _______ _____ _____    ______ ____
ROOT
ATOM      1  C   UNL     1      10.165  13.879  18.464  0.00  0.00    +0.000 C 
ATOM      2  C   UNL     1      10.014  14.873  19.358  0.00  0.00    +0.000 C 
ATOM      3  C   UNL     1      10.740  16.088  18.895  0.00  0.00    +0.000 C 
ATOM      4  C   UNL     1       9.843  17.299  18.607  0.00  0.00    +0.000 C 
ATOM      5  C   UNL     1      10.712  18.534  18.845  0.00  0.00    +0.000 C 
ATOM      6  C   UNL     1      12.081  18.049  19.309  0.00  0.00    +0.000 C 
ATOM      7  C   UNL     1      11.898  16.604  19.756  0.00  0.00    +0.000 C 
ATOM      8  O   UNL     1      11.319  15.697  17.641  0.00  0.00    +0.000 OA
ATOM      9  C   UNL     1      11.008  14.403  17.375  0.00  0.00    +0.000 C 
ATOM     10  O   UNL     1      11.379  13.794  16.389  0.00  0.00    +0.000 OA
ENDROOT
BRANCH   1  16
ATOM     11  C   UNL     1       8.317   8.392  18.334  0.00  0.00    +0.000 C 
ATOM     12  C   UNL     1       8.775   9.818  18.415  0.00  0.00    +0.000 A 
ATOM     13  C   UNL     1       9.886  10.178  19.181  0.00  0.00    +0.000 A 
ATOM     14  C   UNL     1      10.338  11.508  19.228  0.00  0.00    +0.000 A 
ATOM     15  C   UNL     1      11.521  11.834  20.102  0.00  0.00    +0.000 C 
ATOM     16  C   UNL     1       9.666  12.500  18.474  0.00  0.00    +0.000 A 
ATOM     17  C   UNL     1       8.507  12.154  17.745  0.00  0.00    +0.000 A 
ATOM     18  C   UNL     1       7.658  13.153  17.003  0.00  0.00    +0.000 C 
ATOM     19  C   UNL     1       8.079  10.815  17.726  0.00  0.00    +0.000 A 
ENDBRANCH   1  16
BRANCH   2  20
ATOM     20  C   UNL     1       9.207  14.761  20.612  0.00  0.00    +0.000 C 
ATOM     21  O   UNL     1       9.722  14.577  21.709  0.00  0.00    +0.000 OA
BRANCH  20  22
ATOM     22  C   UNL     1       7.726  14.895  20.500  0.00  0.00    +0.000 C 
ATOM     23  C   UNL     1       7.153  15.613  19.519  0.00  0.00    +0.000 C 
BRANCH  23  24
ATOM     24  C   UNL     1       5.701  15.566  19.261  0.00  0.00    +0.000 A 
ATOM     25  C   UNL     1       4.796  16.018  20.223  0.00  0.00    +0.000 A 
ATOM     26  C   UNL     1       3.422  16.040  19.956  0.00  0.00    +0.000 A 
ATOM     27  C   UNL     1       2.939  15.621  18.718  0.00  0.00    +0.000 A 
ATOM     28  C   UNL     1       3.830  15.183  17.743  0.00  0.00    +0.000 A 
ATOM     29  C   UNL     1       5.201  15.163  18.012  0.00  0.00    +0.000 A 
ENDBRANCH  23  24
ENDBRANCH  20  22
ENDBRANCH   2  20
TORSDOF 4
ENDMDL
MODEL 9
REMARK VINA RESULT:      -6.5      2.534      6.020
REMARK  Name = 
REMARK  7 active torsions:
REMARK  status: ('A' for Active; 'I' for Inactive)
REMARK    1  A    between atoms: C_1  and  C_2
REMARK    2  A    between atoms: C_4  and  C_5
REMARK    3  A    between atoms: C_6  and  C_7
REMARK    4  A    between atoms: C_8  and  C_9
REMARK    5  A    between atoms: C_9  and  C_11
REMARK    6  A    between atoms: C_12  and  C_13
REMARK    7  A    between atoms: C_27  and  C_28
REMARK                            x       y       z     vdW  Elec       q    Type
REMARK                         _______ _______ _______ _____ _____    ______ ____
ROOT
ATOM      1  C   UNL     1       0.404  12.315  20.303  0.00  0.00    +0.000 C 
ATOM      2  C   UNL     1      -0.623  13.000  19.769  0.00  0.00    +0.000 C 
ATOM      3  C   UNL     1      -0.400  14.463  19.936  0.00  0.00    +0.000 C 
ATOM      4  C   UNL     1      -0.251  15.242  18.623  0.00  0.00    +0.000 C 
ATOM      5  C   UNL     1      -0.731  16.663  18.918  0.00  0.00    +0.000 C 
ATOM      6  C   UNL     1      -1.196  16.698  20.369  0.00  0.00    +0.000 C 
ATOM      7  C   UNL     1      -1.400  15.248  20.792  0.00  0.00    +0.000 C 
ATOM      8  O   UNL     1       0.862  14.553  20.614  0.00  0.00    +0.000 OA
ATOM      9  C   UNL     1       1.345  13.307  20.853  0.00  0.00    +0.000 C 
ATOM     10  O   UNL     1       2.390  13.073  21.431  0.00  0.00    +0.000 OA
ENDROOT
BRANCH   1  16
ATOM     11  C   UNL     1       1.520   6.655  20.809  0.00  0.00    +0.000 C 
ATOM     12  C   UNL     1       1.182   8.109  20.666  0.00  0.00    +0.000 A 
ATOM     13  C   UNL     1       0.466   8.786  21.657  0.00  0.00    +0.000 A 
ATOM     14  C   UNL     1       0.181  10.157  21.540  0.00  0.00    +0.000 A 
ATOM     15  C   UNL     1      -0.625  10.817  22.627  0.00  0.00    +0.000 C 
ATOM     16  C   UNL     1       0.640  10.871  20.407  0.00  0.00    +0.000 A 
ATOM     17  C   UNL     1       1.313  10.181  19.375  0.00  0.00    +0.000 A 
ATOM     18  C   UNL     1       1.741  10.824  18.082  0.00  0.00    +0.000 C 
ATOM     19  C   UNL     1       1.574   8.808  19.521  0.00  0.00    +0.000 A 
ENDBRANCH   1  16
BRANCH   2  20
ATOM     20  C   UNL     1      -1.793  12.366  19.087  0.00  0.00    +0.000 C 
ATOM     21  O   UNL     1      -1.776  12.065  17.899  0.00  0.00    +0.000 OA
BRANCH  20  22
ATOM     22  C   UNL     1      -3.007  12.087  19.907  0.00  0.00    +0.000 C 
ATOM     23  C   UNL     1      -4.064  12.917  19.911  0.00  0.00    +0.000 C 
BRANCH  23  24
ATOM     24  C   UNL     1      -5.350  12.544  20.530  0.00  0.00    +0.000 A 
ATOM     25  C   UNL     1      -6.215  11.657  19.888  0.00  0.00    +0.000 A 
ATOM     26  C   UNL     1      -7.404  11.246  20.504  0.00  0.00    +0.000 A 
ATOM     27  C   UNL     1      -7.734  11.711  21.776  0.00  0.00    +0.000 A 
ATOM     28  C   UNL     1      -6.874  12.584  22.435  0.00  0.00    +0.000 A 
ATOM     29  C   UNL     1      -5.688  12.990  21.819  0.00  0.00    +0.000 A 
ENDBRANCH  23  24
ENDBRANCH  20  22
ENDBRANCH   2  20
TORSDOF 4
ENDMDL
