MODEL 1
REMARK VINA RESULT:      -6.9      0.000      0.000
REMARK  Name = 
REMARK  4 active torsions:
REMARK  status: ('A' for Active; 'I' for Inactive)
REMARK    1  A    between atoms: C_1  and  N_2
REMARK    2  A    between atoms: C_3  and  S_4
REMARK    3  A    between atoms: C_7  and  O_8
REMARK    4  A    between atoms: O_8  and  C_9
REMARK                            x       y       z     vdW  Elec       q    Type
REMARK                         _______ _______ _______ _____ _____    ______ ____
ROOT
ATOM      1  C   UNL     1       8.173   8.392  17.539  0.00  0.00    +0.000 C 
ATOM      2  N   UNL     1       7.158   7.400  17.243  0.00  0.00    +0.000 NA
ATOM      3  C   UNL     1       6.933   6.358  17.976  0.00  0.00    +0.000 C 
ATOM      4  N   UNL     1       5.880   5.496  17.578  0.00  0.00    +0.000 N 
ATOM      5  N   UNL     1       5.500   4.404  18.308  0.00  0.00    +0.000 NA
ATOM      6  C   UNL     1       4.512   3.911  17.560  0.00  0.00    +0.000 A 
ATOM      7  N   UNL     1       4.200   4.624  16.438  0.00  0.00    +0.000 NA
ATOM      8  C   UNL     1       5.081   5.587  16.439  0.00  0.00    +0.000 A 
ATOM      9  N   UNL     1       5.228   6.513  15.473  0.00  0.00    +0.000 N 
ATOM     10  H   UNL     1       4.477   6.637  14.804  0.00  0.00    +0.000 HD
ATOM     11  H   UNL     1       5.812   7.333  15.643  0.00  0.00    +0.000 HD
ENDROOT
BRANCH   3  12
ATOM     12  S   UNL     1       7.859   5.956  19.425  0.00  0.00    +0.000 S 
ATOM     13  H   UNL     1       6.858   6.039  20.308  0.00  0.00    +0.000 HD
ENDBRANCH   3  12
BRANCH   6  14
ATOM     14  O   UNL     1       3.956   2.745  17.956  0.00  0.00    +0.000 OA
BRANCH  14  15
ATOM     15  C   UNL     1       3.070   2.751  19.012  0.00  0.00    +0.000 A 
ATOM     16  C   UNL     1       3.492   2.600  20.339  0.00  0.00    +0.000 A 
ATOM     17  C   UNL     1       2.563   2.611  21.376  0.00  0.00    +0.000 A 
ATOM     18  C   UNL     1       1.211   2.805  21.096  0.00  0.00    +0.000 A 
ATOM     19  C   UNL     1       0.792   2.989  19.778  0.00  0.00    +0.000 A 
ATOM     20  C   UNL     1       1.722   2.968  18.734  0.00  0.00    +0.000 A 
ENDBRANCH  14  15
ENDBRANCH   6  14
TORSDOF 3
ENDMDL
MODEL 2
REMARK VINA RESULT:      -6.9      0.075      1.174
REMARK  Name = 
REMARK  4 active torsions:
REMARK  status: ('A' for Active; 'I' for Inactive)
REMARK    1  A    between atoms: C_1  and  N_2
REMARK    2  A    between atoms: C_3  and  S_4
REMARK    3  A    between atoms: C_7  and  O_8
REMARK    4  A    between atoms: O_8  and  C_9
REMARK                            x       y       z     vdW  Elec       q    Type
REMARK                         _______ _______ _______ _____ _____    ______ ____
ROOT
ATOM      1  C   UNL     1       8.217   8.423  17.554  0.00  0.00    +0.000 C 
ATOM      2  N   UNL     1       7.187   7.445  17.269  0.00  0.00    +0.000 NA
ATOM      3  C   UNL     1       6.968   6.395  17.991  0.00  0.00    +0.000 C 
ATOM      4  N   UNL     1       5.897   5.550  17.606  0.00  0.00    +0.000 N 
ATOM      5  N   UNL     1       5.523   4.451  18.330  0.00  0.00    +0.000 NA
ATOM      6  C   UNL     1       4.513   3.978  17.598  0.00  0.00    +0.000 A 
ATOM      7  N   UNL     1       4.182   4.710  16.493  0.00  0.00    +0.000 NA
ATOM      8  C   UNL     1       5.073   5.665  16.487  0.00  0.00    +0.000 A 
ATOM      9  N   UNL     1       5.206   6.603  15.531  0.00  0.00    +0.000 N 
ATOM     10  H   UNL     1       4.442   6.744  14.882  0.00  0.00    +0.000 HD
ATOM     11  H   UNL     1       5.802   7.414  15.699  0.00  0.00    +0.000 HD
ENDROOT
BRANCH   3  12
ATOM     12  S   UNL     1       7.923   5.964  19.413  0.00  0.00    +0.000 S 
ATOM     13  H   UNL     1       8.898   5.301  18.782  0.00  0.00    +0.000 HD
ENDBRANCH   3  12
BRANCH   6  14
ATOM     14  O   UNL     1       3.955   2.812  17.990  0.00  0.00    +0.000 OA
BRANCH  14  15
ATOM     15  C   UNL     1       3.040   2.822  19.022  0.00  0.00    +0.000 A 
ATOM     16  C   UNL     1       1.668   2.990  18.799  0.00  0.00    +0.000 A 
ATOM     17  C   UNL     1       0.778   2.995  19.870  0.00  0.00    +0.000 A 
ATOM     18  C   UNL     1       1.250   2.800  21.166  0.00  0.00    +0.000 A 
ATOM     19  C   UNL     1       2.613   2.598  21.388  0.00  0.00    +0.000 A 
ATOM     20  C   UNL     1       3.509   2.603  20.315  0.00  0.00    +0.000 A 
ENDBRANCH  14  15
ENDBRANCH   6  14
TORSDOF 3
ENDMDL
MODEL 3
REMARK VINA RESULT:      -6.7      3.362      6.199
REMARK  Name = 
REMARK  4 active torsions:
REMARK  status: ('A' for Active; 'I' for Inactive)
REMARK    1  A    between atoms: C_1  and  N_2
REMARK    2  A    between atoms: C_3  and  S_4
REMARK    3  A    between atoms: C_7  and  O_8
REMARK    4  A    between atoms: O_8  and  C_9
REMARK                            x       y       z     vdW  Elec       q    Type
REMARK                         _______ _______ _______ _____ _____    ______ ____
ROOT
ATOM      1  C   UNL     1       2.215   5.792  20.423  0.00  0.00    +0.000 C 
ATOM      2  N   UNL     1       3.377   5.408  19.647  0.00  0.00    +0.000 NA
ATOM      3  C   UNL     1       3.774   6.032  18.586  0.00  0.00    +0.000 C 
ATOM      4  N   UNL     1       4.953   5.561  17.954  0.00  0.00    +0.000 N 
ATOM      5  N   UNL     1       5.511   6.180  16.870  0.00  0.00    +0.000 NA
ATOM      6  C   UNL     1       6.563   5.397  16.625  0.00  0.00    +0.000 A 
ATOM      7  N   UNL     1       6.748   4.358  17.491  0.00  0.00    +0.000 NA
ATOM      8  C   UNL     1       5.721   4.447  18.292  0.00  0.00    +0.000 A 
ATOM      9  N   UNL     1       5.419   3.579  19.276  0.00  0.00    +0.000 N 
ATOM     10  H   UNL     1       6.135   2.936  19.589  0.00  0.00    +0.000 HD
ATOM     11  H   UNL     1       4.709   3.825  19.966  0.00  0.00    +0.000 HD
ENDROOT
BRANCH   3  12
ATOM     12  S   UNL     1       2.935   7.422  17.891  0.00  0.00    +0.000 S 
ATOM     13  H   UNL     1       2.024   6.747  17.182  0.00  0.00    +0.000 HD
ENDBRANCH   3  12
BRANCH   6  14
ATOM     14  O   UNL     1       7.305   5.679  15.531  0.00  0.00    +0.000 OA
BRANCH  14  15
ATOM     15  C   UNL     1       7.042   5.010  14.355  0.00  0.00    +0.000 A 
ATOM     16  C   UNL     1       6.003   4.080  14.242  0.00  0.00    +0.000 A 
ATOM     17  C   UNL     1       5.773   3.426  13.034  0.00  0.00    +0.000 A 
ATOM     18  C   UNL     1       6.560   3.722  11.923  0.00  0.00    +0.000 A 
ATOM     19  C   UNL     1       7.576   4.674  12.023  0.00  0.00    +0.000 A 
ATOM     20  C   UNL     1       7.815   5.324  13.238  0.00  0.00    +0.000 A 
ENDBRANCH  14  15
ENDBRANCH   6  14
TORSDOF 3
ENDMDL
MODEL 4
REMARK VINA RESULT:      -6.7      3.311      6.136
REMARK  Name = 
REMARK  4 active torsions:
REMARK  status: ('A' for Active; 'I' for Inactive)
REMARK    1  A    between atoms: C_1  and  N_2
REMARK    2  A    between atoms: C_3  and  S_4
REMARK    3  A    between atoms: C_7  and  O_8
REMARK    4  A    between atoms: O_8  and  C_9
REMARK                            x       y       z     vdW  Elec       q    Type
REMARK                         _______ _______ _______ _____ _____    ______ ____
ROOT
ATOM      1  C   UNL     1       2.153   5.640  20.484  0.00  0.00    +0.000 C 
ATOM      2  N   UNL     1       3.314   5.284  19.693  0.00  0.00    +0.000 NA
ATOM      3  C   UNL     1       3.706   5.941  18.651  0.00  0.00    +0.000 C 
ATOM      4  N   UNL     1       4.884   5.492  18.001  0.00  0.00    +0.000 N 
ATOM      5  N   UNL     1       5.436   6.145  16.934  0.00  0.00    +0.000 NA
ATOM      6  C   UNL     1       6.489   5.373  16.662  0.00  0.00    +0.000 A 
ATOM      7  N   UNL     1       6.680   4.308  17.496  0.00  0.00    +0.000 NA
ATOM      8  C   UNL     1       5.655   4.370  18.302  0.00  0.00    +0.000 A 
ATOM      9  N   UNL     1       5.358   3.472  19.260  0.00  0.00    +0.000 N 
ATOM     10  H   UNL     1       6.078   2.821  19.552  0.00  0.00    +0.000 HD
ATOM     11  H   UNL     1       4.650   3.695  19.960  0.00  0.00    +0.000 HD
ENDROOT
BRANCH   3  12
ATOM     12  S   UNL     1       2.861   7.348  18.001  0.00  0.00    +0.000 S 
ATOM     13  H   UNL     1       2.779   6.941  16.730  0.00  0.00    +0.000 HD
ENDBRANCH   3  12
BRANCH   6  14
ATOM     14  O   UNL     1       7.227   5.690  15.575  0.00  0.00    +0.000 OA
BRANCH  14  15
ATOM     15  C   UNL     1       6.974   5.044  14.384  0.00  0.00    +0.000 A 
ATOM     16  C   UNL     1       7.780   5.224  13.253  0.00  0.00    +0.000 A 
ATOM     17  C   UNL     1       7.488   4.552  12.068  0.00  0.00    +0.000 A 
ATOM     18  C   UNL     1       6.409   3.672  12.017  0.00  0.00    +0.000 A 
ATOM     19  C   UNL     1       5.624   3.465  13.152  0.00  0.00    +0.000 A 
ATOM     20  C   UNL     1       5.909   4.146  14.339  0.00  0.00    +0.000 A 
ENDBRANCH  14  15
ENDBRANCH   6  14
TORSDOF 3
ENDMDL
MODEL 5
REMARK VINA RESULT:      -6.4      2.446      3.163
REMARK  Name = 
REMARK  4 active torsions:
REMARK  status: ('A' for Active; 'I' for Inactive)
REMARK    1  A    between atoms: C_1  and  N_2
REMARK    2  A    between atoms: C_3  and  S_4
REMARK    3  A    between atoms: C_7  and  O_8
REMARK    4  A    between atoms: O_8  and  C_9
REMARK                            x       y       z     vdW  Elec       q    Type
REMARK                         _______ _______ _______ _____ _____    ______ ____
ROOT
ATOM      1  C   UNL     1       7.904   5.480  12.750  0.00  0.00    +0.000 C 
ATOM      2  N   UNL     1       7.567   5.521  14.158  0.00  0.00    +0.000 NA
ATOM      3  C   UNL     1       6.796   4.663  14.741  0.00  0.00    +0.000 C 
ATOM      4  N   UNL     1       6.589   4.812  16.136  0.00  0.00    +0.000 N 
ATOM      5  N   UNL     1       5.853   3.928  16.874  0.00  0.00    +0.000 NA
ATOM      6  C   UNL     1       5.925   4.469  18.092  0.00  0.00    +0.000 A 
ATOM      7  N   UNL     1       6.685   5.598  18.199  0.00  0.00    +0.000 NA
ATOM      8  C   UNL     1       7.062   5.824  16.970  0.00  0.00    +0.000 A 
ATOM      9  N   UNL     1       7.772   6.890  16.553  0.00  0.00    +0.000 N 
ATOM     10  H   UNL     1       8.255   7.450  17.245  0.00  0.00    +0.000 HD
ATOM     11  H   UNL     1       8.179   6.891  15.617  0.00  0.00    +0.000 HD
ENDROOT
BRANCH   3  12
ATOM     12  S   UNL     1       5.994   3.332  13.901  0.00  0.00    +0.000 S 
ATOM     13  H   UNL     1       5.351   4.060  12.981  0.00  0.00    +0.000 HD
ENDBRANCH   3  12
BRANCH   6  14
ATOM     14  O   UNL     1       5.212   3.879  19.077  0.00  0.00    +0.000 OA
BRANCH  14  15
ATOM     15  C   UNL     1       3.867   3.648  18.882  0.00  0.00    +0.000 A 
ATOM     16  C   UNL     1       3.005   4.635  18.390  0.00  0.00    +0.000 A 
ATOM     17  C   UNL     1       1.652   4.359  18.210  0.00  0.00    +0.000 A 
ATOM     18  C   UNL     1       1.159   3.086  18.489  0.00  0.00    +0.000 A 
ATOM     19  C   UNL     1       2.023   2.090  18.948  0.00  0.00    +0.000 A 
ATOM     20  C   UNL     1       3.379   2.368  19.140  0.00  0.00    +0.000 A 
ENDBRANCH  14  15
ENDBRANCH   6  14
TORSDOF 3
ENDMDL
MODEL 6
REMARK VINA RESULT:      -6.4      2.376      3.012
REMARK  Name = 
REMARK  4 active torsions:
REMARK  status: ('A' for Active; 'I' for Inactive)
REMARK    1  A    between atoms: C_1  and  N_2
REMARK    2  A    between atoms: C_3  and  S_4
REMARK    3  A    between atoms: C_7  and  O_8
REMARK    4  A    between atoms: O_8  and  C_9
REMARK                            x       y       z     vdW  Elec       q    Type
REMARK                         _______ _______ _______ _____ _____    ______ ____
ROOT
ATOM      1  C   UNL     1       8.065   5.365  13.017  0.00  0.00    +0.000 C 
ATOM      2  N   UNL     1       7.669   5.583  14.394  0.00  0.00    +0.000 NA
ATOM      3  C   UNL     1       6.772   4.882  15.006  0.00  0.00    +0.000 C 
ATOM      4  N   UNL     1       6.520   5.189  16.367  0.00  0.00    +0.000 N 
ATOM      5  N   UNL     1       5.648   4.473  17.139  0.00  0.00    +0.000 NA
ATOM      6  C   UNL     1       5.728   5.118  18.305  0.00  0.00    +0.000 A 
ATOM      7  N   UNL     1       6.615   6.155  18.352  0.00  0.00    +0.000 NA
ATOM      8  C   UNL     1       7.074   6.215  17.132  0.00  0.00    +0.000 A 
ATOM      9  N   UNL     1       7.928   7.144  16.662  0.00  0.00    +0.000 N 
ATOM     10  H   UNL     1       8.443   7.708  17.328  0.00  0.00    +0.000 HD
ATOM     11  H   UNL     1       8.376   7.006  15.756  0.00  0.00    +0.000 HD
ENDROOT
BRANCH   3  12
ATOM     12  S   UNL     1       5.853   3.580  14.245  0.00  0.00    +0.000 S 
ATOM     13  H   UNL     1       5.697   4.146  13.044  0.00  0.00    +0.000 HD
ENDBRANCH   3  12
BRANCH   6  14
ATOM     14  O   UNL     1       4.903   4.715  19.296  0.00  0.00    +0.000 OA
BRANCH  14  15
ATOM     15  C   UNL     1       3.778   3.986  18.974  0.00  0.00    +0.000 A 
ATOM     16  C   UNL     1       3.714   2.598  19.153  0.00  0.00    +0.000 A 
ATOM     17  C   UNL     1       2.557   1.900  18.814  0.00  0.00    +0.000 A 
ATOM     18  C   UNL     1       1.448   2.588  18.325  0.00  0.00    +0.000 A 
ATOM     19  C   UNL     1       1.498   3.975  18.179  0.00  0.00    +0.000 A 
ATOM     20  C   UNL     1       2.661   4.677  18.508  0.00  0.00    +0.000 A 
ENDBRANCH  14  15
ENDBRANCH   6  14
TORSDOF 3
ENDMDL
MODEL 7
REMARK VINA RESULT:      -6.4      2.802      3.148
REMARK  Name = 
REMARK  4 active torsions:
REMARK  status: ('A' for Active; 'I' for Inactive)
REMARK    1  A    between atoms: C_1  and  N_2
REMARK    2  A    between atoms: C_3  and  S_4
REMARK    3  A    between atoms: C_7  and  O_8
REMARK    4  A    between atoms: O_8  and  C_9
REMARK                            x       y       z     vdW  Elec       q    Type
REMARK                         _______ _______ _______ _____ _____    ______ ____
ROOT
ATOM      1  C   UNL     1       8.368   5.625  12.725  0.00  0.00    +0.000 C 
ATOM      2  N   UNL     1       7.691   5.467  13.996  0.00  0.00    +0.000 NA
ATOM      3  C   UNL     1       6.722   4.636  14.199  0.00  0.00    +0.000 C 
ATOM      4  N   UNL     1       6.184   4.567  15.509  0.00  0.00    +0.000 N 
ATOM      5  N   UNL     1       5.207   3.678  15.863  0.00  0.00    +0.000 NA
ATOM      6  C   UNL     1       5.018   3.984  17.148  0.00  0.00    +0.000 A 
ATOM      7  N   UNL     1       5.827   4.962  17.654  0.00  0.00    +0.000 NA
ATOM      8  C   UNL     1       6.521   5.343  16.617  0.00  0.00    +0.000 A 
ATOM      9  N   UNL     1       7.408   6.356  16.600  0.00  0.00    +0.000 N 
ATOM     10  H   UNL     1       7.749   6.715  17.484  0.00  0.00    +0.000 HD
ATOM     11  H   UNL     1       8.037   6.464  15.804  0.00  0.00    +0.000 HD
ENDROOT
BRANCH   3  12
ATOM     12  S   UNL     1       6.040   3.596  12.945  0.00  0.00    +0.000 S 
ATOM     13  H   UNL     1       5.143   2.959  13.705  0.00  0.00    +0.000 HD
ENDBRANCH   3  12
BRANCH   6  14
ATOM     14  O   UNL     1       4.028   3.337  17.802  0.00  0.00    +0.000 OA
BRANCH  14  15
ATOM     15  C   UNL     1       3.303   4.014  18.758  0.00  0.00    +0.000 A 
ATOM     16  C   UNL     1       3.201   3.557  20.078  0.00  0.00    +0.000 A 
ATOM     17  C   UNL     1       2.457   4.273  21.013  0.00  0.00    +0.000 A 
ATOM     18  C   UNL     1       1.838   5.465  20.643  0.00  0.00    +0.000 A 
ATOM     19  C   UNL     1       1.966   5.941  19.337  0.00  0.00    +0.000 A 
ATOM     20  C   UNL     1       2.704   5.219  18.394  0.00  0.00    +0.000 A 
ENDBRANCH  14  15
ENDBRANCH   6  14
TORSDOF 3
ENDMDL
MODEL 8
REMARK VINA RESULT:      -6.4      2.706      3.189
REMARK  Name = 
REMARK  4 active torsions:
REMARK  status: ('A' for Active; 'I' for Inactive)
REMARK    1  A    between atoms: C_1  and  N_2
REMARK    2  A    between atoms: C_3  and  S_4
REMARK    3  A    between atoms: C_7  and  O_8
REMARK    4  A    between atoms: O_8  and  C_9
REMARK                            x       y       z     vdW  Elec       q    Type
REMARK                         _______ _______ _______ _____ _____    ______ ____
ROOT
ATOM      1  C   UNL     1       8.473   5.728  12.832  0.00  0.00    +0.000 C 
ATOM      2  N   UNL     1       7.750   5.500  14.066  0.00  0.00    +0.000 NA
ATOM      3  C   UNL     1       6.781   4.654  14.189  0.00  0.00    +0.000 C 
ATOM      4  N   UNL     1       6.194   4.514  15.473  0.00  0.00    +0.000 N 
ATOM      5  N   UNL     1       5.212   3.602  15.743  0.00  0.00    +0.000 NA
ATOM      6  C   UNL     1       4.973   3.839  17.034  0.00  0.00    +0.000 A 
ATOM      7  N   UNL     1       5.754   4.795  17.620  0.00  0.00    +0.000 NA
ATOM      8  C   UNL     1       6.484   5.234  16.631  0.00  0.00    +0.000 A 
ATOM      9  N   UNL     1       7.363   6.252  16.700  0.00  0.00    +0.000 N 
ATOM     10  H   UNL     1       7.667   6.566  17.613  0.00  0.00    +0.000 HD
ATOM     11  H   UNL     1       8.020   6.404  15.935  0.00  0.00    +0.000 HD
ENDROOT
BRANCH   3  12
ATOM     12  S   UNL     1       6.155   3.676  12.858  0.00  0.00    +0.000 S 
ATOM     13  H   UNL     1       6.998   2.645  12.979  0.00  0.00    +0.000 HD
ENDBRANCH   3  12
BRANCH   6  14
ATOM     14  O   UNL     1       3.964   3.153  17.615  0.00  0.00    +0.000 OA
BRANCH  14  15
ATOM     15  C   UNL     1       3.331   3.696  18.713  0.00  0.00    +0.000 A 
ATOM     16  C   UNL     1       2.557   4.859  18.627  0.00  0.00    +0.000 A 
ATOM     17  C   UNL     1       1.935   5.374  19.761  0.00  0.00    +0.000 A 
ATOM     18  C   UNL     1       2.057   4.712  20.982  0.00  0.00    +0.000 A 
ATOM     19  C   UNL     1       2.801   3.534  21.064  0.00  0.00    +0.000 A 
ATOM     20  C   UNL     1       3.434   3.021  19.928  0.00  0.00    +0.000 A 
ENDBRANCH  14  15
ENDBRANCH   6  14
TORSDOF 3
ENDMDL
MODEL 9
REMARK VINA RESULT:      -6.3      5.164      5.454
REMARK  Name = 
REMARK  4 active torsions:
REMARK  status: ('A' for Active; 'I' for Inactive)
REMARK    1  A    between atoms: C_1  and  N_2
REMARK    2  A    between atoms: C_3  and  S_4
REMARK    3  A    between atoms: C_7  and  O_8
REMARK    4  A    between atoms: O_8  and  C_9
REMARK                            x       y       z     vdW  Elec       q    Type
REMARK                         _______ _______ _______ _____ _____    ______ ____
ROOT
ATOM      1  C   UNL     1      -0.464  11.913  20.894  0.00  0.00    +0.000 C 
ATOM      2  N   UNL     1       0.293  10.956  20.113  0.00  0.00    +0.000 NA
ATOM      3  C   UNL     1       0.726   9.829  20.575  0.00  0.00    +0.000 C 
ATOM      4  N   UNL     1       1.421   8.979  19.678  0.00  0.00    +0.000 N 
ATOM      5  N   UNL     1       1.863   7.734  20.029  0.00  0.00    +0.000 NA
ATOM      6  C   UNL     1       2.450   7.329  18.901  0.00  0.00    +0.000 A 
ATOM      7  N   UNL     1       2.377   8.194  17.847  0.00  0.00    +0.000 NA
ATOM      8  C   UNL     1       1.768   9.232  18.351  0.00  0.00    +0.000 A 
ATOM      9  N   UNL     1       1.535  10.391  17.707  0.00  0.00    +0.000 N 
ATOM     10  H   UNL     1       1.620  10.409  16.698  0.00  0.00    +0.000 HD
ATOM     11  H   UNL     1       0.894  11.074  18.111  0.00  0.00    +0.000 HD
ENDROOT
BRANCH   3  12
ATOM     12  S   UNL     1       0.502   9.300  22.245  0.00  0.00    +0.000 S 
ATOM     13  H   UNL     1       0.907  10.424  22.847  0.00  0.00    +0.000 HD
ENDBRANCH   3  12
BRANCH   6  14
ATOM     14  O   UNL     1       3.090   6.139  18.927  0.00  0.00    +0.000 OA
BRANCH  14  15
ATOM     15  C   UNL     1       2.416   5.027  19.384  0.00  0.00    +0.000 A 
ATOM     16  C   UNL     1       1.704   4.181  18.524  0.00  0.00    +0.000 A 
ATOM     17  C   UNL     1       1.036   3.068  19.028  0.00  0.00    +0.000 A 
ATOM     18  C   UNL     1       1.102   2.776  20.389  0.00  0.00    +0.000 A 
ATOM     19  C   UNL     1       1.839   3.597  21.244  0.00  0.00    +0.000 A 
ATOM     20  C   UNL     1       2.501   4.721  20.741  0.00  0.00    +0.000 A 
ENDBRANCH  14  15
ENDBRANCH   6  14
TORSDOF 3
ENDMDL
