MODEL 1
REMARK VINA RESULT:      -7.2      0.000      0.000
REMARK  Name = 
REMARK  14 active torsions:
REMARK  status: ('A' for Active; 'I' for Inactive)
REMARK    1  A    between atoms: C_1  and  C_2
REMARK    2  A    between atoms: C_2  and  N_3
REMARK    3  A    between atoms: N_3  and  C_4
REMARK    4  A    between atoms: N_3  and  S_6
REMARK    5  A    between atoms: C_4  and  C_5
REMARK    6  A    between atoms: S_6  and  C_9
REMARK    7  A    between atoms: C_12  and  N_13
REMARK    8  A    between atoms: C_18  and  N_19
REMARK    9  A    between atoms: C_20  and  C_22
REMARK   10  A    between atoms: C_22  and  S_23
REMARK   11  A    between atoms: S_23  and  C_24
REMARK   12  A    between atoms: C_24  and  C_25
REMARK   13  A    between atoms: C_26  and  C_27
REMARK   14  A    between atoms: C_30  and  C_31
REMARK                            x       y       z     vdW  Elec       q    Type
REMARK                         _______ _______ _______ _____ _____    ______ ____
ROOT
ATOM      1  C   UNL     1       2.390   6.975  19.329  0.00  0.00    +0.000 A 
ATOM      2  C   UNL     1       2.342   7.461  18.031  0.00  0.00    +0.000 A 
ATOM      3  C   UNL     1       1.812   8.746  17.801  0.00  0.00    +0.000 A 
ATOM      4  C   UNL     1       1.287   9.556  18.836  0.00  0.00    +0.000 A 
ATOM      5  C   UNL     1       1.337   9.008  20.145  0.00  0.00    +0.000 A 
ATOM      6  C   UNL     1       1.857   7.720  20.377  0.00  0.00    +0.000 A 
ENDROOT
BRANCH   4   7
ATOM      7  N   UNL     1       0.769  10.822  18.576  0.00  0.00    +0.000 N 
ATOM      8  C   UNL     1       1.503  12.065  18.813  0.00  0.00    +0.000 C 
ATOM      9  C   UNL     1       0.551  12.916  19.639  0.00  0.00    +0.000 C 
ATOM     10  C   UNL     1      -0.808  12.555  19.069  0.00  0.00    +0.000 C 
ATOM     11  C   UNL     1      -0.674  11.081  18.645  0.00  0.00    +0.000 C 
ENDBRANCH   4   7
BRANCH   5  12
ATOM     12  N   UNL     1       0.801   9.685  21.273  0.00  0.00    +0.000 N 
ATOM     13  C   UNL     1      -0.250   9.159  21.992  0.00  0.00    +0.000 C 
ATOM     14  O   UNL     1      -0.847   8.109  21.711  0.00  0.00    +0.000 OA
ATOM     15  H   UNL     1       1.410  10.378  21.696  0.00  0.00    +0.000 HD
BRANCH  13  16
ATOM     16  C   UNL     1      -0.672   9.955  23.224  0.00  0.00    +0.000 C 
BRANCH  16  17
ATOM     17  S   UNL     1      -1.042  11.682  22.777  0.00  0.00    +0.000 S 
BRANCH  17  18
ATOM     18  C   UNL     1      -2.752  11.907  23.425  0.00  0.00    +0.000 C 
BRANCH  18  19
ATOM     19  C   UNL     1      -3.241  13.264  23.028  0.00  0.00    +0.000 A 
ATOM     20  C   UNL     1      -3.930  13.627  21.830  0.00  0.00    +0.000 A 
ATOM     21  C   UNL     1      -4.319  12.787  20.673  0.00  0.00    +0.000 C 
ATOM     22  N   UNL     1      -4.247  14.926  21.810  0.00  0.00    +0.000 NA
ATOM     23  O   UNL     1      -3.766  15.443  22.991  0.00  0.00    +0.000 OA
ATOM     24  C   UNL     1      -3.163  14.463  23.715  0.00  0.00    +0.000 A 
ATOM     25  C   UNL     1      -2.605  14.906  25.009  0.00  0.00    +0.000 C 
ENDBRANCH  18  19
ENDBRANCH  17  18
ENDBRANCH  16  17
ENDBRANCH  13  16
ENDBRANCH   5  12
BRANCH   1  26
ATOM     26  S   UNL     1       3.104   5.382  19.714  0.00  0.00    +0.000 S 
ATOM     27  O   UNL     1       2.447   4.908  20.920  0.00  0.00    +0.000 OA
ATOM     28  O   UNL     1       4.540   5.520  19.662  0.00  0.00    +0.000 OA
BRANCH  26  29
ATOM     29  N   UNL     1       2.624   4.361  18.391  0.00  0.00    +0.000 NA
BRANCH  29  31
ATOM     30  C   UNL     1       4.418   3.871  16.650  0.00  0.00    +0.000 C 
ATOM     31  C   UNL     1       3.735   3.460  17.946  0.00  0.00    +0.000 C 
ENDBRANCH  29  31
BRANCH  29  32
ATOM     32  C   UNL     1       1.314   3.683  18.646  0.00  0.00    +0.000 C 
ATOM     33  C   UNL     1       1.422   2.178  18.880  0.00  0.00    +0.000 C 
ENDBRANCH  29  32
ENDBRANCH  26  29
ENDBRANCH   1  26
TORSDOF 10
ENDMDL
MODEL 2
REMARK VINA RESULT:      -7.1      3.162      6.290
REMARK  Name = 
REMARK  14 active torsions:
REMARK  status: ('A' for Active; 'I' for Inactive)
REMARK    1  A    between atoms: C_1  and  C_2
REMARK    2  A    between atoms: C_2  and  N_3
REMARK    3  A    between atoms: N_3  and  C_4
REMARK    4  A    between atoms: N_3  and  S_6
REMARK    5  A    between atoms: C_4  and  C_5
REMARK    6  A    between atoms: S_6  and  C_9
REMARK    7  A    between atoms: C_12  and  N_13
REMARK    8  A    between atoms: C_18  and  N_19
REMARK    9  A    between atoms: C_20  and  C_22
REMARK   10  A    between atoms: C_22  and  S_23
REMARK   11  A    between atoms: S_23  and  C_24
REMARK   12  A    between atoms: C_24  and  C_25
REMARK   13  A    between atoms: C_26  and  C_27
REMARK   14  A    between atoms: C_30  and  C_31
REMARK                            x       y       z     vdW  Elec       q    Type
REMARK                         _______ _______ _______ _____ _____    ______ ____
ROOT
ATOM      1  C   UNL     1       5.083   4.977  16.887  0.00  0.00    +0.000 A 
ATOM      2  C   UNL     1       4.909   3.610  16.738  0.00  0.00    +0.000 A 
ATOM      3  C   UNL     1       4.026   2.934  17.603  0.00  0.00    +0.000 A 
ATOM      4  C   UNL     1       3.329   3.586  18.649  0.00  0.00    +0.000 A 
ATOM      5  C   UNL     1       3.555   4.981  18.777  0.00  0.00    +0.000 A 
ATOM      6  C   UNL     1       4.446   5.657  17.920  0.00  0.00    +0.000 A 
ENDROOT
BRANCH   4   7
ATOM      7  N   UNL     1       2.462   2.890  19.489  0.00  0.00    +0.000 N 
ATOM      8  C   UNL     1       1.012   2.849  19.305  0.00  0.00    +0.000 C 
ATOM      9  C   UNL     1       0.448   3.240  20.662  0.00  0.00    +0.000 C 
ATOM     10  C   UNL     1       1.432   2.615  21.633  0.00  0.00    +0.000 C 
ATOM     11  C   UNL     1       2.787   2.672  20.903  0.00  0.00    +0.000 C 
ENDBRANCH   4   7
BRANCH   5  12
ATOM     12  N   UNL     1       2.965   5.756  19.812  0.00  0.00    +0.000 N 
ATOM     13  C   UNL     1       2.262   6.907  19.533  0.00  0.00    +0.000 C 
ATOM     14  O   UNL     1       2.120   7.394  18.402  0.00  0.00    +0.000 OA
ATOM     15  H   UNL     1       2.818   5.270  20.691  0.00  0.00    +0.000 HD
BRANCH  13  16
ATOM     16  C   UNL     1       1.619   7.595  20.733  0.00  0.00    +0.000 C 
BRANCH  16  17
ATOM     17  S   UNL     1       1.384   9.373  20.406  0.00  0.00    +0.000 S 
BRANCH  17  18
ATOM     18  C   UNL     1      -0.450   9.537  20.375  0.00  0.00    +0.000 C 
BRANCH  18  19
ATOM     19  C   UNL     1      -0.809  10.769  19.606  0.00  0.00    +0.000 A 
ATOM     20  C   UNL     1      -0.686  12.128  20.030  0.00  0.00    +0.000 A 
ATOM     21  C   UNL     1      -0.207  12.675  21.320  0.00  0.00    +0.000 C 
ATOM     22  N   UNL     1      -1.074  12.985  19.079  0.00  0.00    +0.000 NA
ATOM     23  O   UNL     1      -1.464  12.204  18.015  0.00  0.00    +0.000 OA
ATOM     24  C   UNL     1      -1.315  10.889  18.324  0.00  0.00    +0.000 A 
ATOM     25  C   UNL     1      -1.706   9.955  17.249  0.00  0.00    +0.000 C 
ENDBRANCH  18  19
ENDBRANCH  17  18
ENDBRANCH  16  17
ENDBRANCH  13  16
ENDBRANCH   5  12
BRANCH   1  26
ATOM     26  S   UNL     1       6.137   5.919  15.791  0.00  0.00    +0.000 S 
ATOM     27  O   UNL     1       5.353   7.050  15.326  0.00  0.00    +0.000 OA
ATOM     28  O   UNL     1       6.732   4.997  14.853  0.00  0.00    +0.000 OA
BRANCH  26  29
ATOM     29  N   UNL     1       7.405   6.517  16.819  0.00  0.00    +0.000 NA
BRANCH  29  31
ATOM     30  C   UNL     1       8.196   8.782  17.673  0.00  0.00    +0.000 C 
ATOM     31  C   UNL     1       7.038   7.819  17.463  0.00  0.00    +0.000 C 
ENDBRANCH  29  31
BRANCH  29  32
ATOM     32  C   UNL     1       7.921   5.466  17.752  0.00  0.00    +0.000 C 
ATOM     33  C   UNL     1       7.768   5.810  19.232  0.00  0.00    +0.000 C 
ENDBRANCH  29  32
ENDBRANCH  26  29
ENDBRANCH   1  26
TORSDOF 10
ENDMDL
MODEL 3
REMARK VINA RESULT:      -6.9      3.146      5.943
REMARK  Name = 
REMARK  14 active torsions:
REMARK  status: ('A' for Active; 'I' for Inactive)
REMARK    1  A    between atoms: C_1  and  C_2
REMARK    2  A    between atoms: C_2  and  N_3
REMARK    3  A    between atoms: N_3  and  C_4
REMARK    4  A    between atoms: N_3  and  S_6
REMARK    5  A    between atoms: C_4  and  C_5
REMARK    6  A    between atoms: S_6  and  C_9
REMARK    7  A    between atoms: C_12  and  N_13
REMARK    8  A    between atoms: C_18  and  N_19
REMARK    9  A    between atoms: C_20  and  C_22
REMARK   10  A    between atoms: C_22  and  S_23
REMARK   11  A    between atoms: S_23  and  C_24
REMARK   12  A    between atoms: C_24  and  C_25
REMARK   13  A    between atoms: C_26  and  C_27
REMARK   14  A    between atoms: C_30  and  C_31
REMARK                            x       y       z     vdW  Elec       q    Type
REMARK                         _______ _______ _______ _____ _____    ______ ____
ROOT
ATOM      1  C   UNL     1       5.510   5.019  17.073  0.00  0.00    +0.000 A 
ATOM      2  C   UNL     1       5.032   3.717  17.077  0.00  0.00    +0.000 A 
ATOM      3  C   UNL     1       3.821   3.435  17.740  0.00  0.00    +0.000 A 
ATOM      4  C   UNL     1       3.082   4.420  18.438  0.00  0.00    +0.000 A 
ATOM      5  C   UNL     1       3.621   5.733  18.426  0.00  0.00    +0.000 A 
ATOM      6  C   UNL     1       4.837   6.016  17.772  0.00  0.00    +0.000 A 
ENDROOT
BRANCH   4   7
ATOM      7  N   UNL     1       1.888   4.110  19.084  0.00  0.00    +0.000 N 
ATOM      8  C   UNL     1       1.652   4.337  20.510  0.00  0.00    +0.000 C 
ATOM      9  C   UNL     1       1.143   3.001  21.028  0.00  0.00    +0.000 C 
ATOM     10  C   UNL     1       0.319   2.478  19.866  0.00  0.00    +0.000 C 
ATOM     11  C   UNL     1       1.029   3.018  18.610  0.00  0.00    +0.000 C 
ENDBRANCH   4   7
BRANCH   5  12
ATOM     12  N   UNL     1       3.016   6.810  19.126  0.00  0.00    +0.000 N 
ATOM     13  C   UNL     1       2.432   7.863  18.456  0.00  0.00    +0.000 C 
ATOM     14  O   UNL     1       2.419   7.999  17.224  0.00  0.00    +0.000 OA
ATOM     15  H   UNL     1       2.761   6.616  20.090  0.00  0.00    +0.000 HD
BRANCH  13  16
ATOM     16  C   UNL     1       1.754   8.910  19.335  0.00  0.00    +0.000 C 
BRANCH  16  17
ATOM     17  S   UNL     1       0.720  10.023  18.327  0.00  0.00    +0.000 S 
BRANCH  17  18
ATOM     18  C   UNL     1      -0.819  10.159  19.330  0.00  0.00    +0.000 C 
BRANCH  18  19
ATOM     19  C   UNL     1      -0.498  10.871  20.606  0.00  0.00    +0.000 A 
ATOM     20  C   UNL     1      -0.270  12.269  20.792  0.00  0.00    +0.000 A 
ATOM     21  C   UNL     1      -0.266  13.365  19.795  0.00  0.00    +0.000 C 
ATOM     22  N   UNL     1      -0.036  12.572  22.073  0.00  0.00    +0.000 NA
ATOM     23  O   UNL     1      -0.099  11.377  22.753  0.00  0.00    +0.000 OA
ATOM     24  C   UNL     1      -0.366  10.364  21.887  0.00  0.00    +0.000 A 
ATOM     25  C   UNL     1      -0.456   9.028  22.511  0.00  0.00    +0.000 C 
ENDBRANCH  18  19
ENDBRANCH  17  18
ENDBRANCH  16  17
ENDBRANCH  13  16
ENDBRANCH   5  12
BRANCH   1  26
ATOM     26  S   UNL     1       7.005   5.472  16.203  0.00  0.00    +0.000 S 
ATOM     27  O   UNL     1       8.011   4.486  16.557  0.00  0.00    +0.000 OA
ATOM     28  O   UNL     1       7.237   6.878  16.430  0.00  0.00    +0.000 OA
BRANCH  26  29
ATOM     29  N   UNL     1       6.606   5.268  14.522  0.00  0.00    +0.000 NA
BRANCH  29  31
ATOM     30  C   UNL     1       8.246   5.859  12.665  0.00  0.00    +0.000 C 
ATOM     31  C   UNL     1       7.794   4.850  13.711  0.00  0.00    +0.000 C 
ENDBRANCH  29  31
BRANCH  29  32
ATOM     32  C   UNL     1       5.376   4.437  14.329  0.00  0.00    +0.000 C 
ATOM     33  C   UNL     1       5.291   3.748  12.969  0.00  0.00    +0.000 C 
ENDBRANCH  29  32
ENDBRANCH  26  29
ENDBRANCH   1  26
TORSDOF 10
ENDMDL
MODEL 4
REMARK VINA RESULT:      -6.9      3.097      5.943
REMARK  Name = 
REMARK  14 active torsions:
REMARK  status: ('A' for Active; 'I' for Inactive)
REMARK    1  A    between atoms: C_1  and  C_2
REMARK    2  A    between atoms: C_2  and  N_3
REMARK    3  A    between atoms: N_3  and  C_4
REMARK    4  A    between atoms: N_3  and  S_6
REMARK    5  A    between atoms: C_4  and  C_5
REMARK    6  A    between atoms: S_6  and  C_9
REMARK    7  A    between atoms: C_12  and  N_13
REMARK    8  A    between atoms: C_18  and  N_19
REMARK    9  A    between atoms: C_20  and  C_22
REMARK   10  A    between atoms: C_22  and  S_23
REMARK   11  A    between atoms: S_23  and  C_24
REMARK   12  A    between atoms: C_24  and  C_25
REMARK   13  A    between atoms: C_26  and  C_27
REMARK   14  A    between atoms: C_30  and  C_31
REMARK                            x       y       z     vdW  Elec       q    Type
REMARK                         _______ _______ _______ _____ _____    ______ ____
ROOT
ATOM      1  C   UNL     1       5.059   5.064  16.888  0.00  0.00    +0.000 A 
ATOM      2  C   UNL     1       4.911   3.694  16.732  0.00  0.00    +0.000 A 
ATOM      3  C   UNL     1       4.032   2.999  17.586  0.00  0.00    +0.000 A 
ATOM      4  C   UNL     1       3.314   3.633  18.628  0.00  0.00    +0.000 A 
ATOM      5  C   UNL     1       3.514   5.032  18.764  0.00  0.00    +0.000 A 
ATOM      6  C   UNL     1       4.400   5.728  17.918  0.00  0.00    +0.000 A 
ENDROOT
BRANCH   4   7
ATOM      7  N   UNL     1       2.451   2.919  19.456  0.00  0.00    +0.000 N 
ATOM      8  C   UNL     1       1.000   2.881  19.279  0.00  0.00    +0.000 C 
ATOM      9  C   UNL     1       0.442   3.242  20.646  0.00  0.00    +0.000 C 
ATOM     10  C   UNL     1       1.432   2.596  21.598  0.00  0.00    +0.000 C 
ATOM     11  C   UNL     1       2.783   2.670  20.864  0.00  0.00    +0.000 C 
ENDBRANCH   4   7
BRANCH   5  12
ATOM     12  N   UNL     1       2.900   5.792  19.796  0.00  0.00    +0.000 N 
ATOM     13  C   UNL     1       2.294   7.001  19.532  0.00  0.00    +0.000 C 
ATOM     14  O   UNL     1       2.268   7.554  18.423  0.00  0.00    +0.000 OA
ATOM     15  H   UNL     1       2.657   5.273  20.634  0.00  0.00    +0.000 HD
BRANCH  13  16
ATOM     16  C   UNL     1       1.610   7.669  20.721  0.00  0.00    +0.000 C 
BRANCH  16  17
ATOM     17  S   UNL     1       1.448   9.464  20.444  0.00  0.00    +0.000 S 
BRANCH  17  18
ATOM     18  C   UNL     1      -0.333   9.645  20.016  0.00  0.00    +0.000 C 
BRANCH  18  19
ATOM     19  C   UNL     1      -0.813  10.973  20.512  0.00  0.00    +0.000 A 
ATOM     20  C   UNL     1      -1.091  12.144  19.741  0.00  0.00    +0.000 A 
ATOM     21  C   UNL     1      -0.962  12.366  18.282  0.00  0.00    +0.000 C 
ATOM     22  N   UNL     1      -1.531  13.151  20.503  0.00  0.00    +0.000 NA
ATOM     23  O   UNL     1      -1.545  12.663  21.790  0.00  0.00    +0.000 OA
ATOM     24  C   UNL     1      -1.114  11.374  21.802  0.00  0.00    +0.000 A 
ATOM     25  C   UNL     1      -1.086  10.746  23.139  0.00  0.00    +0.000 C 
ENDBRANCH  18  19
ENDBRANCH  17  18
ENDBRANCH  16  17
ENDBRANCH  13  16
ENDBRANCH   5  12
BRANCH   1  26
ATOM     26  S   UNL     1       6.106   6.028  15.807  0.00  0.00    +0.000 S 
ATOM     27  O   UNL     1       5.323   7.173  15.377  0.00  0.00    +0.000 OA
ATOM     28  O   UNL     1       6.690   5.128  14.841  0.00  0.00    +0.000 OA
BRANCH  26  29
ATOM     29  N   UNL     1       7.387   6.596  16.838  0.00  0.00    +0.000 NA
BRANCH  29  31
ATOM     30  C   UNL     1       8.216   8.840  17.712  0.00  0.00    +0.000 C 
ATOM     31  C   UNL     1       7.042   7.898  17.495  0.00  0.00    +0.000 C 
ENDBRANCH  29  31
BRANCH  29  32
ATOM     32  C   UNL     1       7.887   5.528  17.760  0.00  0.00    +0.000 C 
ATOM     33  C   UNL     1       7.762   5.869  19.243  0.00  0.00    +0.000 C 
ENDBRANCH  29  32
ENDBRANCH  26  29
ENDBRANCH   1  26
TORSDOF 10
ENDMDL
MODEL 5
REMARK VINA RESULT:      -6.8      0.570      1.452
REMARK  Name = 
REMARK  14 active torsions:
REMARK  status: ('A' for Active; 'I' for Inactive)
REMARK    1  A    between atoms: C_1  and  C_2
REMARK    2  A    between atoms: C_2  and  N_3
REMARK    3  A    between atoms: N_3  and  C_4
REMARK    4  A    between atoms: N_3  and  S_6
REMARK    5  A    between atoms: C_4  and  C_5
REMARK    6  A    between atoms: S_6  and  C_9
REMARK    7  A    between atoms: C_12  and  N_13
REMARK    8  A    between atoms: C_18  and  N_19
REMARK    9  A    between atoms: C_20  and  C_22
REMARK   10  A    between atoms: C_22  and  S_23
REMARK   11  A    between atoms: S_23  and  C_24
REMARK   12  A    between atoms: C_24  and  C_25
REMARK   13  A    between atoms: C_26  and  C_27
REMARK   14  A    between atoms: C_30  and  C_31
REMARK                            x       y       z     vdW  Elec       q    Type
REMARK                         _______ _______ _______ _____ _____    ______ ____
ROOT
ATOM      1  C   UNL     1       2.381   6.965  19.357  0.00  0.00    +0.000 A 
ATOM      2  C   UNL     1       2.348   7.432  18.052  0.00  0.00    +0.000 A 
ATOM      3  C   UNL     1       1.821   8.713  17.797  0.00  0.00    +0.000 A 
ATOM      4  C   UNL     1       1.286   9.538  18.815  0.00  0.00    +0.000 A 
ATOM      5  C   UNL     1       1.321   9.010  20.131  0.00  0.00    +0.000 A 
ATOM      6  C   UNL     1       1.838   7.725  20.388  0.00  0.00    +0.000 A 
ENDROOT
BRANCH   4   7
ATOM      7  N   UNL     1       0.771  10.801  18.531  0.00  0.00    +0.000 N 
ATOM      8  C   UNL     1       1.509  12.047  18.743  0.00  0.00    +0.000 C 
ATOM      9  C   UNL     1       0.560  12.916  19.553  0.00  0.00    +0.000 C 
ATOM     10  C   UNL     1      -0.801  12.548  18.991  0.00  0.00    +0.000 C 
ATOM     11  C   UNL     1      -0.672  11.066  18.595  0.00  0.00    +0.000 C 
ENDBRANCH   4   7
BRANCH   5  12
ATOM     12  N   UNL     1       0.773   9.703  21.244  0.00  0.00    +0.000 N 
ATOM     13  C   UNL     1      -0.251   9.164  21.992  0.00  0.00    +0.000 C 
ATOM     14  O   UNL     1      -0.813   8.086  21.750  0.00  0.00    +0.000 OA
ATOM     15  H   UNL     1       1.362  10.431  21.638  0.00  0.00    +0.000 HD
BRANCH  13  16
ATOM     16  C   UNL     1      -0.687   9.984  23.202  0.00  0.00    +0.000 C 
BRANCH  16  17
ATOM     17  S   UNL     1      -1.106  11.688  22.708  0.00  0.00    +0.000 S 
BRANCH  17  18
ATOM     18  C   UNL     1      -2.760  11.934  23.478  0.00  0.00    +0.000 C 
BRANCH  18  19
ATOM     19  C   UNL     1      -3.283  13.276  23.073  0.00  0.00    +0.000 A 
ATOM     20  C   UNL     1      -2.835  14.558  23.518  0.00  0.00    +0.000 A 
ATOM     21  C   UNL     1      -1.775  14.900  24.494  0.00  0.00    +0.000 C 
ATOM     22  N   UNL     1      -3.507  15.554  22.930  0.00  0.00    +0.000 NA
ATOM     23  O   UNL     1      -4.413  14.945  22.092  0.00  0.00    +0.000 OA
ATOM     24  C   UNL     1      -4.289  13.594  22.177  0.00  0.00    +0.000 A 
ATOM     25  C   UNL     1      -5.219  12.835  21.316  0.00  0.00    +0.000 C 
ENDBRANCH  18  19
ENDBRANCH  17  18
ENDBRANCH  16  17
ENDBRANCH  13  16
ENDBRANCH   5  12
BRANCH   1  26
ATOM     26  S   UNL     1       3.091   5.378  19.773  0.00  0.00    +0.000 S 
ATOM     27  O   UNL     1       2.460   4.947  21.008  0.00  0.00    +0.000 OA
ATOM     28  O   UNL     1       4.526   5.500  19.681  0.00  0.00    +0.000 OA
BRANCH  26  29
ATOM     29  N   UNL     1       2.568   4.321  18.494  0.00  0.00    +0.000 NA
BRANCH  29  31
ATOM     30  C   UNL     1       4.329   3.116  17.103  0.00  0.00    +0.000 C 
ATOM     31  C   UNL     1       3.492   4.368  17.315  0.00  0.00    +0.000 C 
ENDBRANCH  29  31
BRANCH  29  32
ATOM     32  C   UNL     1       2.238   2.949  18.993  0.00  0.00    +0.000 C 
ATOM     33  C   UNL     1       0.772   2.556  18.826  0.00  0.00    +0.000 C 
ENDBRANCH  29  32
ENDBRANCH  26  29
ENDBRANCH   1  26
TORSDOF 10
ENDMDL
MODEL 6
REMARK VINA RESULT:      -6.8      3.185      5.719
REMARK  Name = 
REMARK  14 active torsions:
REMARK  status: ('A' for Active; 'I' for Inactive)
REMARK    1  A    between atoms: C_1  and  C_2
REMARK    2  A    between atoms: C_2  and  N_3
REMARK    3  A    between atoms: N_3  and  C_4
REMARK    4  A    between atoms: N_3  and  S_6
REMARK    5  A    between atoms: C_4  and  C_5
REMARK    6  A    between atoms: S_6  and  C_9
REMARK    7  A    between atoms: C_12  and  N_13
REMARK    8  A    between atoms: C_18  and  N_19
REMARK    9  A    between atoms: C_20  and  C_22
REMARK   10  A    between atoms: C_22  and  S_23
REMARK   11  A    between atoms: S_23  and  C_24
REMARK   12  A    between atoms: C_24  and  C_25
REMARK   13  A    between atoms: C_26  and  C_27
REMARK   14  A    between atoms: C_30  and  C_31
REMARK                            x       y       z     vdW  Elec       q    Type
REMARK                         _______ _______ _______ _____ _____    ______ ____
ROOT
ATOM      1  C   UNL     1       4.719   5.361  17.085  0.00  0.00    +0.000 A 
ATOM      2  C   UNL     1       4.467   4.010  17.265  0.00  0.00    +0.000 A 
ATOM      3  C   UNL     1       3.522   3.614  18.233  0.00  0.00    +0.000 A 
ATOM      4  C   UNL     1       2.840   4.536  19.061  0.00  0.00    +0.000 A 
ATOM      5  C   UNL     1       3.147   5.907  18.857  0.00  0.00    +0.000 A 
ATOM      6  C   UNL     1       4.098   6.306  17.897  0.00  0.00    +0.000 A 
ENDROOT
BRANCH   4   7
ATOM      7  N   UNL     1       1.912   4.114  20.010  0.00  0.00    +0.000 N 
ATOM      8  C   UNL     1       2.168   4.102  21.450  0.00  0.00    +0.000 C 
ATOM      9  C   UNL     1       1.797   2.695  21.889  0.00  0.00    +0.000 C 
ATOM     10  C   UNL     1       0.614   2.362  21.000  0.00  0.00    +0.000 C 
ATOM     11  C   UNL     1       0.896   3.106  19.682  0.00  0.00    +0.000 C 
ENDBRANCH   4   7
BRANCH   5  12
ATOM     12  N   UNL     1       2.579   6.941  19.649  0.00  0.00    +0.000 N 
ATOM     13  C   UNL     1       1.929   8.010  19.072  0.00  0.00    +0.000 C 
ATOM     14  O   UNL     1       1.821   8.200  17.852  0.00  0.00    +0.000 OA
ATOM     15  H   UNL     1       2.401   6.699  20.619  0.00  0.00    +0.000 HD
BRANCH  13  16
ATOM     16  C   UNL     1       1.303   9.004  20.045  0.00  0.00    +0.000 C 
BRANCH  16  17
ATOM     17  S   UNL     1       0.955  10.588  19.212  0.00  0.00    +0.000 S 
BRANCH  17  18
ATOM     18  C   UNL     1      -0.707  11.032  19.871  0.00  0.00    +0.000 C 
BRANCH  18  19
ATOM     19  C   UNL     1      -0.535  12.030  20.973  0.00  0.00    +0.000 A 
ATOM     20  C   UNL     1      -0.685  11.813  22.377  0.00  0.00    +0.000 A 
ATOM     21  C   UNL     1      -1.066  10.581  23.107  0.00  0.00    +0.000 C 
ATOM     22  N   UNL     1      -0.429  12.920  23.083  0.00  0.00    +0.000 NA
ATOM     23  O   UNL     1      -0.112  13.885  22.156  0.00  0.00    +0.000 OA
ATOM     24  C   UNL     1      -0.179  13.365  20.902  0.00  0.00    +0.000 A 
ATOM     25  C   UNL     1       0.143  14.318  19.821  0.00  0.00    +0.000 C 
ENDBRANCH  18  19
ENDBRANCH  17  18
ENDBRANCH  16  17
ENDBRANCH  13  16
ENDBRANCH   5  12
BRANCH   1  26
ATOM     26  S   UNL     1       5.855   5.950  15.836  0.00  0.00    +0.000 S 
ATOM     27  O   UNL     1       5.234   7.108  15.217  0.00  0.00    +0.000 OA
ATOM     28  O   UNL     1       6.261   4.816  15.041  0.00  0.00    +0.000 OA
BRANCH  26  29
ATOM     29  N   UNL     1       7.244   6.488  16.734  0.00  0.00    +0.000 NA
BRANCH  29  31
ATOM     30  C   UNL     1       8.268   8.639  17.635  0.00  0.00    +0.000 C 
ATOM     31  C   UNL     1       7.012   7.818  17.382  0.00  0.00    +0.000 C 
ENDBRANCH  29  31
BRANCH  29  32
ATOM     32  C   UNL     1       7.782   5.422  17.637  0.00  0.00    +0.000 C 
ATOM     33  C   UNL     1       7.584   5.701  19.126  0.00  0.00    +0.000 C 
ENDBRANCH  29  32
ENDBRANCH  26  29
ENDBRANCH   1  26
TORSDOF 10
ENDMDL
MODEL 7
REMARK VINA RESULT:      -6.8      1.162      1.275
REMARK  Name = 
REMARK  14 active torsions:
REMARK  status: ('A' for Active; 'I' for Inactive)
REMARK    1  A    between atoms: C_1  and  C_2
REMARK    2  A    between atoms: C_2  and  N_3
REMARK    3  A    between atoms: N_3  and  C_4
REMARK    4  A    between atoms: N_3  and  S_6
REMARK    5  A    between atoms: C_4  and  C_5
REMARK    6  A    between atoms: S_6  and  C_9
REMARK    7  A    between atoms: C_12  and  N_13
REMARK    8  A    between atoms: C_18  and  N_19
REMARK    9  A    between atoms: C_20  and  C_22
REMARK   10  A    between atoms: C_22  and  S_23
REMARK   11  A    between atoms: S_23  and  C_24
REMARK   12  A    between atoms: C_24  and  C_25
REMARK   13  A    between atoms: C_26  and  C_27
REMARK   14  A    between atoms: C_30  and  C_31
REMARK                            x       y       z     vdW  Elec       q    Type
REMARK                         _______ _______ _______ _____ _____    ______ ____
ROOT
ATOM      1  C   UNL     1       2.632   6.933  19.242  0.00  0.00    +0.000 A 
ATOM      2  C   UNL     1       2.877   7.612  18.058  0.00  0.00    +0.000 A 
ATOM      3  C   UNL     1       2.281   8.873  17.856  0.00  0.00    +0.000 A 
ATOM      4  C   UNL     1       1.409   9.468  18.798  0.00  0.00    +0.000 A 
ATOM      5  C   UNL     1       1.170   8.727  19.985  0.00  0.00    +0.000 A 
ATOM      6  C   UNL     1       1.756   7.462  20.186  0.00  0.00    +0.000 A 
ENDROOT
BRANCH   4   7
ATOM      7  N   UNL     1       0.835  10.717  18.570  0.00  0.00    +0.000 N 
ATOM      8  C   UNL     1       1.442  11.979  18.993  0.00  0.00    +0.000 C 
ATOM      9  C   UNL     1       0.335  12.696  19.750  0.00  0.00    +0.000 C 
ATOM     10  C   UNL     1      -0.913  12.299  18.984  0.00  0.00    +0.000 C 
ATOM     11  C   UNL     1      -0.620  10.877  18.471  0.00  0.00    +0.000 C 
ENDBRANCH   4   7
BRANCH   5  12
ATOM     12  N   UNL     1       0.277   9.176  20.996  0.00  0.00    +0.000 N 
ATOM     13  C   UNL     1       0.735   9.567  22.234  0.00  0.00    +0.000 C 
ATOM     14  O   UNL     1       1.920   9.523  22.599  0.00  0.00    +0.000 OA
ATOM     15  H   UNL     1      -0.632   9.486  20.668  0.00  0.00    +0.000 HD
BRANCH  13  16
ATOM     16  C   UNL     1      -0.326  10.097  23.194  0.00  0.00    +0.000 C 
BRANCH  16  17
ATOM     17  S   UNL     1      -1.510  11.169  22.315  0.00  0.00    +0.000 S 
BRANCH  17  18
ATOM     18  C   UNL     1      -1.279  12.793  23.150  0.00  0.00    +0.000 C 
BRANCH  18  19
ATOM     19  C   UNL     1      -2.541  13.585  23.018  0.00  0.00    +0.000 A 
ATOM     20  C   UNL     1      -2.783  14.706  22.166  0.00  0.00    +0.000 A 
ATOM     21  C   UNL     1      -1.868  15.389  21.222  0.00  0.00    +0.000 C 
ATOM     22  N   UNL     1      -4.036  15.159  22.279  0.00  0.00    +0.000 NA
ATOM     23  O   UNL     1      -4.640  14.348  23.212  0.00  0.00    +0.000 OA
ATOM     24  C   UNL     1      -3.756  13.416  23.659  0.00  0.00    +0.000 A 
ATOM     25  C   UNL     1      -4.299  12.487  24.671  0.00  0.00    +0.000 C 
ENDBRANCH  18  19
ENDBRANCH  17  18
ENDBRANCH  16  17
ENDBRANCH  13  16
ENDBRANCH   5  12
BRANCH   1  26
ATOM     26  S   UNL     1       3.398   5.359  19.602  0.00  0.00    +0.000 S 
ATOM     27  O   UNL     1       2.636   4.760  20.685  0.00  0.00    +0.000 OA
ATOM     28  O   UNL     1       4.818   5.580  19.734  0.00  0.00    +0.000 OA
BRANCH  26  29
ATOM     29  N   UNL     1       3.142   4.414  18.165  0.00  0.00    +0.000 NA
BRANCH  29  31
ATOM     30  C   UNL     1       4.848   4.719  16.298  0.00  0.00    +0.000 C 
ATOM     31  C   UNL     1       4.433   3.964  17.552  0.00  0.00    +0.000 C 
ENDBRANCH  29  31
BRANCH  29  32
ATOM     32  C   UNL     1       2.122   3.337  18.369  0.00  0.00    +0.000 C 
ATOM     33  C   UNL     1       2.513   1.982  17.782  0.00  0.00    +0.000 C 
ENDBRANCH  29  32
ENDBRANCH  26  29
ENDBRANCH   1  26
TORSDOF 10
ENDMDL
MODEL 8
REMARK VINA RESULT:      -6.7      3.475      5.975
REMARK  Name = 
REMARK  14 active torsions:
REMARK  status: ('A' for Active; 'I' for Inactive)
REMARK    1  A    between atoms: C_1  and  C_2
REMARK    2  A    between atoms: C_2  and  N_3
REMARK    3  A    between atoms: N_3  and  C_4
REMARK    4  A    between atoms: N_3  and  S_6
REMARK    5  A    between atoms: C_4  and  C_5
REMARK    6  A    between atoms: S_6  and  C_9
REMARK    7  A    between atoms: C_12  and  N_13
REMARK    8  A    between atoms: C_18  and  N_19
REMARK    9  A    between atoms: C_20  and  C_22
REMARK   10  A    between atoms: C_22  and  S_23
REMARK   11  A    between atoms: S_23  and  C_24
REMARK   12  A    between atoms: C_24  and  C_25
REMARK   13  A    between atoms: C_26  and  C_27
REMARK   14  A    between atoms: C_30  and  C_31
REMARK                            x       y       z     vdW  Elec       q    Type
REMARK                         _______ _______ _______ _____ _____    ______ ____
ROOT
ATOM      1  C   UNL     1       5.638   5.078  17.326  0.00  0.00    +0.000 A 
ATOM      2  C   UNL     1       5.345   3.779  17.712  0.00  0.00    +0.000 A 
ATOM      3  C   UNL     1       4.153   3.528  18.420  0.00  0.00    +0.000 A 
ATOM      4  C   UNL     1       3.250   4.554  18.790  0.00  0.00    +0.000 A 
ATOM      5  C   UNL     1       3.602   5.870  18.392  0.00  0.00    +0.000 A 
ATOM      6  C   UNL     1       4.798   6.126  17.693  0.00  0.00    +0.000 A 
ENDROOT
BRANCH   4   7
ATOM      7  N   UNL     1       2.079   4.274  19.490  0.00  0.00    +0.000 N 
ATOM      8  C   UNL     1       1.988   4.262  20.950  0.00  0.00    +0.000 C 
ATOM      9  C   UNL     1       1.345   2.924  21.278  0.00  0.00    +0.000 C 
ATOM     10  C   UNL     1       0.370   2.724  20.133  0.00  0.00    +0.000 C 
ATOM     11  C   UNL     1       1.046   3.397  18.924  0.00  0.00    +0.000 C 
ENDBRANCH   4   7
BRANCH   5  12
ATOM     12  N   UNL     1       2.819   7.004  18.737  0.00  0.00    +0.000 N 
ATOM     13  C   UNL     1       2.588   8.018  17.833  0.00  0.00    +0.000 C 
ATOM     14  O   UNL     1       3.061   8.068  16.688  0.00  0.00    +0.000 OA
ATOM     15  H   UNL     1       2.201   6.882  19.534  0.00  0.00    +0.000 HD
BRANCH  13  16
ATOM     16  C   UNL     1       1.668   9.135  18.315  0.00  0.00    +0.000 C 
BRANCH  16  17
ATOM     17  S   UNL     1       1.411   9.026  20.116  0.00  0.00    +0.000 S 
BRANCH  17  18
ATOM     18  C   UNL     1      -0.334   9.583  20.308  0.00  0.00    +0.000 C 
BRANCH  18  19
ATOM     19  C   UNL     1      -0.505  10.882  19.585  0.00  0.00    +0.000 A 
ATOM     20  C   UNL     1      -1.336  11.147  18.453  0.00  0.00    +0.000 A 
ATOM     21  C   UNL     1      -2.214  10.229  17.691  0.00  0.00    +0.000 C 
ATOM     22  N   UNL     1      -1.271  12.428  18.076  0.00  0.00    +0.000 NA
ATOM     23  O   UNL     1      -0.393  13.027  18.948  0.00  0.00    +0.000 OA
ATOM     24  C   UNL     1       0.070  12.114  19.842  0.00  0.00    +0.000 A 
ATOM     25  C   UNL     1       1.027  12.649  20.832  0.00  0.00    +0.000 C 
ENDBRANCH  18  19
ENDBRANCH  17  18
ENDBRANCH  16  17
ENDBRANCH  13  16
ENDBRANCH   5  12
BRANCH   1  26
ATOM     26  S   UNL     1       7.097   5.472  16.372  0.00  0.00    +0.000 S 
ATOM     27  O   UNL     1       8.063   4.417  16.628  0.00  0.00    +0.000 OA
ATOM     28  O   UNL     1       7.428   6.854  16.625  0.00  0.00    +0.000 OA
BRANCH  26  29
ATOM     29  N   UNL     1       6.578   5.349  14.716  0.00  0.00    +0.000 NA
BRANCH  29  31
ATOM     30  C   UNL     1       8.103   5.764  12.719  0.00  0.00    +0.000 C 
ATOM     31  C   UNL     1       7.662   4.820  13.827  0.00  0.00    +0.000 C 
ENDBRANCH  29  31
BRANCH  29  32
ATOM     32  C   UNL     1       5.254   4.663  14.588  0.00  0.00    +0.000 C 
ATOM     33  C   UNL     1       5.136   3.747  13.371  0.00  0.00    +0.000 C 
ENDBRANCH  29  32
ENDBRANCH  26  29
ENDBRANCH   1  26
TORSDOF 10
ENDMDL
MODEL 9
REMARK VINA RESULT:      -6.7      1.083      1.422
REMARK  Name = 
REMARK  14 active torsions:
REMARK  status: ('A' for Active; 'I' for Inactive)
REMARK    1  A    between atoms: C_1  and  C_2
REMARK    2  A    between atoms: C_2  and  N_3
REMARK    3  A    between atoms: N_3  and  C_4
REMARK    4  A    between atoms: N_3  and  S_6
REMARK    5  A    between atoms: C_4  and  C_5
REMARK    6  A    between atoms: S_6  and  C_9
REMARK    7  A    between atoms: C_12  and  N_13
REMARK    8  A    between atoms: C_18  and  N_19
REMARK    9  A    between atoms: C_20  and  C_22
REMARK   10  A    between atoms: C_22  and  S_23
REMARK   11  A    between atoms: S_23  and  C_24
REMARK   12  A    between atoms: C_24  and  C_25
REMARK   13  A    between atoms: C_26  and  C_27
REMARK   14  A    between atoms: C_30  and  C_31
REMARK                            x       y       z     vdW  Elec       q    Type
REMARK                         _______ _______ _______ _____ _____    ______ ____
ROOT
ATOM      1  C   UNL     1       2.440   7.020  19.320  0.00  0.00    +0.000 A 
ATOM      2  C   UNL     1       2.770   7.706  18.162  0.00  0.00    +0.000 A 
ATOM      3  C   UNL     1       2.192   8.969  17.926  0.00  0.00    +0.000 A 
ATOM      4  C   UNL     1       1.255   9.560  18.807  0.00  0.00    +0.000 A 
ATOM      5  C   UNL     1       0.931   8.812  19.969  0.00  0.00    +0.000 A 
ATOM      6  C   UNL     1       1.499   7.544  20.202  0.00  0.00    +0.000 A 
ENDROOT
BRANCH   4   7
ATOM      7  N   UNL     1       0.700  10.811  18.546  0.00  0.00    +0.000 N 
ATOM      8  C   UNL     1       1.310  12.073  18.962  0.00  0.00    +0.000 C 
ATOM      9  C   UNL     1       0.195  12.813  19.684  0.00  0.00    +0.000 C 
ATOM     10  C   UNL     1      -1.040  12.418  18.896  0.00  0.00    +0.000 C 
ATOM     11  C   UNL     1      -0.751  10.985  18.412  0.00  0.00    +0.000 C 
ENDBRANCH   4   7
BRANCH   5  12
ATOM     12  N   UNL     1      -0.032   9.255  20.915  0.00  0.00    +0.000 N 
ATOM     13  C   UNL     1       0.348   9.775  22.133  0.00  0.00    +0.000 C 
ATOM     14  O   UNL     1       1.518   9.859  22.535  0.00  0.00    +0.000 OA
ATOM     15  H   UNL     1      -0.952   9.461  20.539  0.00  0.00    +0.000 HD
BRANCH  13  16
ATOM     16  C   UNL     1      -0.787  10.281  23.018  0.00  0.00    +0.000 C 
BRANCH  16  17
ATOM     17  S   UNL     1      -1.016  12.077  22.807  0.00  0.00    +0.000 S 
BRANCH  17  18
ATOM     18  C   UNL     1      -2.708  12.185  22.088  0.00  0.00    +0.000 C 
BRANCH  18  19
ATOM     19  C   UNL     1      -3.384  13.404  22.632  0.00  0.00    +0.000 A 
ATOM     20  C   UNL     1      -4.167  13.508  23.823  0.00  0.00    +0.000 A 
ATOM     21  C   UNL     1      -4.535  12.463  24.806  0.00  0.00    +0.000 C 
ATOM     22  N   UNL     1      -4.601  14.757  24.027  0.00  0.00    +0.000 NA
ATOM     23  O   UNL     1      -4.116  15.495  22.972  0.00  0.00    +0.000 OA
ATOM     24  C   UNL     1      -3.398  14.696  22.138  0.00  0.00    +0.000 A 
ATOM     25  C   UNL     1      -2.828  15.386  20.963  0.00  0.00    +0.000 C 
ENDBRANCH  18  19
ENDBRANCH  17  18
ENDBRANCH  16  17
ENDBRANCH  13  16
ENDBRANCH   5  12
BRANCH   1  26
ATOM     26  S   UNL     1       3.176   5.442  19.725  0.00  0.00    +0.000 S 
ATOM     27  O   UNL     1       2.574   5.006  20.972  0.00  0.00    +0.000 OA
ATOM     28  O   UNL     1       4.608   5.582  19.605  0.00  0.00    +0.000 OA
BRANCH  26  29
ATOM     29  N   UNL     1       2.643   4.378  18.456  0.00  0.00    +0.000 NA
BRANCH  29  31
ATOM     30  C   UNL     1       4.349   3.206  16.973  0.00  0.00    +0.000 C 
ATOM     31  C   UNL     1       3.528   4.456  17.250  0.00  0.00    +0.000 C 
ENDBRANCH  29  31
BRANCH  29  32
ATOM     32  C   UNL     1       2.365   2.995  18.958  0.00  0.00    +0.000 C 
ATOM     33  C   UNL     1       0.905   2.565  18.838  0.00  0.00    +0.000 C 
ENDBRANCH  29  32
ENDBRANCH  26  29
ENDBRANCH   1  26
TORSDOF 10
ENDMDL
