MODEL 1
REMARK VINA RESULT:      -6.0      0.000      0.000
REMARK  Name = 
REMARK  18 active torsions:
REMARK  status: ('A' for Active; 'I' for Inactive)
REMARK    1  A    between atoms: C_1  and  C_2
REMARK    2  A    between atoms: C_2  and  C_13
REMARK    3  A    between atoms: C_3  and  C_4
REMARK    4  A    between atoms: C_6  and  C_7
REMARK    5  A    between atoms: C_7  and  C_8
REMARK    6  A    between atoms: C_9  and  C_10
REMARK    7  A    between atoms: C_10  and  O_12
REMARK    8  A    between atoms: C_15  and  C_16
REMARK    9  A    between atoms: C_16  and  C_17
REMARK   10  A    between atoms: C_16  and  C_18
REMARK   11  A    between atoms: C_16  and  C_19
REMARK   12  A    between atoms: C_21  and  C_22
REMARK   13  A    between atoms: C_22  and  C_23
REMARK   14  A    between atoms: C_22  and  C_24
REMARK   15  A    between atoms: C_22  and  C_25
REMARK   16  A    between atoms: C_26  and  O_27
REMARK   17  A    between atoms: O_27  and  C_28
REMARK   18  A    between atoms: C_28  and  C_29
REMARK                            x       y       z     vdW  Elec       q    Type
REMARK                         _______ _______ _______ _____ _____    ______ ____
ROOT
ATOM      1  C   UNL     1       8.476  15.086  20.415  0.00  0.00    +0.000 A 
ATOM      2  C   UNL     1       7.932  14.693  21.652  0.00  0.00    +0.000 A 
ATOM      3  C   UNL     1       8.109  13.410  22.172  0.00  0.00    +0.000 A 
ATOM      4  C   UNL     1       8.737  12.472  21.337  0.00  0.00    +0.000 A 
ATOM      5  C   UNL     1       9.319  12.792  20.080  0.00  0.00    +0.000 A 
ATOM      6  C   UNL     1       9.179  14.131  19.624  0.00  0.00    +0.000 A 
ENDROOT
BRANCH   3   7
ATOM      7  C   UNL     1       7.688  13.063  23.614  0.00  0.00    +0.000 C 
ATOM      8  C   UNL     1       8.101  11.622  23.957  0.00  0.00    +0.000 C 
ATOM      9  C   UNL     1       8.334  14.023  24.644  0.00  0.00    +0.000 C 
ATOM     10  C   UNL     1       6.158  13.199  23.810  0.00  0.00    +0.000 C 
ENDBRANCH   3   7
BRANCH   5  11
ATOM     11  C   UNL     1      10.062  11.646  19.326  0.00  0.00    +0.000 C 
ATOM     12  C   UNL     1      11.565  11.719  19.663  0.00  0.00    +0.000 C 
ATOM     13  C   UNL     1       9.547  10.227  19.648  0.00  0.00    +0.000 C 
ATOM     14  C   UNL     1       9.929  11.763  17.776  0.00  0.00    +0.000 C 
ENDBRANCH   5  11
BRANCH   1  16
ATOM     15  C   UNL     1       9.290  17.478  20.709  0.00  0.00    +0.000 C 
ATOM     16  C   UNL     1       8.286  16.531  20.113  0.00  0.00    +0.000 C 
ATOM     17  C   UNL     1       7.318  16.983  19.285  0.00  0.00    +0.000 C 
BRANCH  17  18
ATOM     18  C   UNL     1       6.318  16.192  18.597  0.00  0.00    +0.000 C 
ATOM     19  F   UNL     1       6.769  15.407  17.595  0.00  0.00    +0.000 F 
ATOM     20  C   UNL     1       5.014  16.214  18.922  0.00  0.00    +0.000 C 
BRANCH  20  21
ATOM     21  C   UNL     1       3.924  15.433  18.328  0.00  0.00    +0.000 C 
ATOM     22  C   UNL     1       3.274  16.074  17.122  0.00  0.00    +0.000 C 
ATOM     23  C   UNL     1       3.486  14.272  18.855  0.00  0.00    +0.000 C 
BRANCH  23  24
ATOM     24  C   UNL     1       2.375  13.469  18.297  0.00  0.00    +0.000 C 
ATOM     25  O   UNL     1       1.195  13.608  18.565  0.00  0.00    +0.000 OA
BRANCH  24  26
ATOM     26  O   UNL     1       2.826  12.551  17.415  0.00  0.00    +0.000 OA
ATOM     27  H   UNL     1       2.277  12.437  16.619  0.00  0.00    +0.000 HD
ENDBRANCH  24  26
ENDBRANCH  23  24
ENDBRANCH  20  21
ENDBRANCH  17  18
ENDBRANCH   1  16
BRANCH   6  28
ATOM     28  O   UNL     1       9.668  14.442  18.366  0.00  0.00    +0.000 OA
BRANCH  28  29
ATOM     29  C   UNL     1      10.904  15.166  18.409  0.00  0.00    +0.000 C 
BRANCH  29  30
ATOM     30  C   UNL     1      10.984  16.333  17.446  0.00  0.00    +0.000 C 
ATOM     31  F   UNL     1       9.726  16.604  16.995  0.00  0.00    +0.000 F 
ATOM     32  F   UNL     1      11.399  17.452  18.090  0.00  0.00    +0.000 F 
ENDBRANCH  29  30
ENDBRANCH  28  29
ENDBRANCH   6  28
TORSDOF 10
ENDMDL
MODEL 2
REMARK VINA RESULT:      -5.6      0.548      1.210
REMARK  Name = 
REMARK  18 active torsions:
REMARK  status: ('A' for Active; 'I' for Inactive)
REMARK    1  A    between atoms: C_1  and  C_2
REMARK    2  A    between atoms: C_2  and  C_13
REMARK    3  A    between atoms: C_3  and  C_4
REMARK    4  A    between atoms: C_6  and  C_7
REMARK    5  A    between atoms: C_7  and  C_8
REMARK    6  A    between atoms: C_9  and  C_10
REMARK    7  A    between atoms: C_10  and  O_12
REMARK    8  A    between atoms: C_15  and  C_16
REMARK    9  A    between atoms: C_16  and  C_17
REMARK   10  A    between atoms: C_16  and  C_18
REMARK   11  A    between atoms: C_16  and  C_19
REMARK   12  A    between atoms: C_21  and  C_22
REMARK   13  A    between atoms: C_22  and  C_23
REMARK   14  A    between atoms: C_22  and  C_24
REMARK   15  A    between atoms: C_22  and  C_25
REMARK   16  A    between atoms: C_26  and  O_27
REMARK   17  A    between atoms: O_27  and  C_28
REMARK   18  A    between atoms: C_28  and  C_29
REMARK                            x       y       z     vdW  Elec       q    Type
REMARK                         _______ _______ _______ _____ _____    ______ ____
ROOT
ATOM      1  C   UNL     1       8.254  15.186  20.433  0.00  0.00    +0.000 A 
ATOM      2  C   UNL     1       7.773  14.804  21.699  0.00  0.00    +0.000 A 
ATOM      3  C   UNL     1       8.015  13.539  22.240  0.00  0.00    +0.000 A 
ATOM      4  C   UNL     1       8.644  12.605  21.401  0.00  0.00    +0.000 A 
ATOM      5  C   UNL     1       9.165  12.916  20.115  0.00  0.00    +0.000 A 
ATOM      6  C   UNL     1       8.959  14.239  19.636  0.00  0.00    +0.000 A 
ENDROOT
BRANCH   3   7
ATOM      7  C   UNL     1       7.663  13.212  23.704  0.00  0.00    +0.000 C 
ATOM      8  C   UNL     1       8.439  14.136  24.658  0.00  0.00    +0.000 C 
ATOM      9  C   UNL     1       6.148  13.376  23.978  0.00  0.00    +0.000 C 
ATOM     10  C   UNL     1       8.000  11.743  24.057  0.00  0.00    +0.000 C 
ENDBRANCH   3   7
BRANCH   5  11
ATOM     11  C   UNL     1       9.919  11.779  19.357  0.00  0.00    +0.000 C 
ATOM     12  C   UNL     1       9.460  10.418  19.916  0.00  0.00    +0.000 C 
ATOM     13  C   UNL     1       9.716  11.786  17.827  0.00  0.00    +0.000 C 
ATOM     14  C   UNL     1      11.466  11.859  19.543  0.00  0.00    +0.000 C 
ENDBRANCH   5  11
BRANCH   1  16
ATOM     15  C   UNL     1       9.023  17.606  20.594  0.00  0.00    +0.000 C 
ATOM     16  C   UNL     1       8.000  16.617  20.108  0.00  0.00    +0.000 C 
ATOM     17  C   UNL     1       6.957  17.019  19.348  0.00  0.00    +0.000 C 
BRANCH  17  18
ATOM     18  C   UNL     1       5.928  16.184  18.766  0.00  0.00    +0.000 C 
ATOM     19  F   UNL     1       6.325  15.358  17.773  0.00  0.00    +0.000 F 
ATOM     20  C   UNL     1       4.648  16.203  19.175  0.00  0.00    +0.000 C 
BRANCH  20  21
ATOM     21  C   UNL     1       3.534  15.380  18.692  0.00  0.00    +0.000 C 
ATOM     22  C   UNL     1       2.450  16.149  17.970  0.00  0.00    +0.000 C 
ATOM     23  C   UNL     1       3.445  14.057  18.933  0.00  0.00    +0.000 C 
BRANCH  23  24
ATOM     24  C   UNL     1       2.326  13.199  18.482  0.00  0.00    +0.000 C 
ATOM     25  O   UNL     1       1.274  13.036  19.073  0.00  0.00    +0.000 OA
BRANCH  24  26
ATOM     26  O   UNL     1       2.601  12.617  17.295  0.00  0.00    +0.000 OA
ATOM     27  H   UNL     1       1.908  12.023  16.955  0.00  0.00    +0.000 HD
ENDBRANCH  24  26
ENDBRANCH  23  24
ENDBRANCH  20  21
ENDBRANCH  17  18
ENDBRANCH   1  16
BRANCH   6  28
ATOM     28  O   UNL     1       9.387  14.538  18.354  0.00  0.00    +0.000 OA
BRANCH  28  29
ATOM     29  C   UNL     1      10.608  15.287  18.331  0.00  0.00    +0.000 C 
BRANCH  29  30
ATOM     30  C   UNL     1      10.744  16.236  17.158  0.00  0.00    +0.000 C 
ATOM     31  F   UNL     1      10.518  17.505  17.605  0.00  0.00    +0.000 F 
ATOM     32  F   UNL     1      12.015  16.228  16.685  0.00  0.00    +0.000 F 
ENDBRANCH  29  30
ENDBRANCH  28  29
ENDBRANCH   6  28
TORSDOF 10
ENDMDL
MODEL 3
REMARK VINA RESULT:      -5.6      7.077     10.232
REMARK  Name = 
REMARK  18 active torsions:
REMARK  status: ('A' for Active; 'I' for Inactive)
REMARK    1  A    between atoms: C_1  and  C_2
REMARK    2  A    between atoms: C_2  and  C_13
REMARK    3  A    between atoms: C_3  and  C_4
REMARK    4  A    between atoms: C_6  and  C_7
REMARK    5  A    between atoms: C_7  and  C_8
REMARK    6  A    between atoms: C_9  and  C_10
REMARK    7  A    between atoms: C_10  and  O_12
REMARK    8  A    between atoms: C_15  and  C_16
REMARK    9  A    between atoms: C_16  and  C_17
REMARK   10  A    between atoms: C_16  and  C_18
REMARK   11  A    between atoms: C_16  and  C_19
REMARK   12  A    between atoms: C_21  and  C_22
REMARK   13  A    between atoms: C_22  and  C_23
REMARK   14  A    between atoms: C_22  and  C_24
REMARK   15  A    between atoms: C_22  and  C_25
REMARK   16  A    between atoms: C_26  and  O_27
REMARK   17  A    between atoms: O_27  and  C_28
REMARK   18  A    between atoms: C_28  and  C_29
REMARK                            x       y       z     vdW  Elec       q    Type
REMARK                         _______ _______ _______ _____ _____    ______ ____
ROOT
ATOM      1  C   UNL     1      -0.768  12.079  20.228  0.00  0.00    +0.000 A 
ATOM      2  C   UNL     1      -1.651  12.680  21.144  0.00  0.00    +0.000 A 
ATOM      3  C   UNL     1      -3.032  12.714  20.939  0.00  0.00    +0.000 A 
ATOM      4  C   UNL     1      -3.496  12.246  19.699  0.00  0.00    +0.000 A 
ATOM      5  C   UNL     1      -2.670  11.620  18.725  0.00  0.00    +0.000 A 
ATOM      6  C   UNL     1      -1.279  11.540  19.012  0.00  0.00    +0.000 A 
ENDROOT
BRANCH   3   7
ATOM      7  C   UNL     1      -3.997  13.186  22.044  0.00  0.00    +0.000 C 
ATOM      8  C   UNL     1      -5.438  12.766  21.708  0.00  0.00    +0.000 C 
ATOM      9  C   UNL     1      -3.617  12.595  23.424  0.00  0.00    +0.000 C 
ATOM     10  C   UNL     1      -3.957  14.724  22.217  0.00  0.00    +0.000 C 
ENDBRANCH   3   7
BRANCH   5  11
ATOM     11  C   UNL     1      -3.368  11.073  17.442  0.00  0.00    +0.000 C 
ATOM     12  C   UNL     1      -2.539  11.484  16.210  0.00  0.00    +0.000 C 
ATOM     13  C   UNL     1      -3.566   9.542  17.423  0.00  0.00    +0.000 C 
ATOM     14  C   UNL     1      -4.805  11.652  17.249  0.00  0.00    +0.000 C 
ENDBRANCH   5  11
BRANCH   1  16
ATOM     15  C   UNL     1       1.010  10.877  21.595  0.00  0.00    +0.000 C 
ATOM     16  C   UNL     1       0.642  12.031  20.705  0.00  0.00    +0.000 C 
ATOM     17  C   UNL     1       1.577  12.922  20.306  0.00  0.00    +0.000 C 
BRANCH  17  18
ATOM     18  C   UNL     1       1.388  14.047  19.415  0.00  0.00    +0.000 C 
ATOM     19  F   UNL     1       1.609  13.809  18.104  0.00  0.00    +0.000 F 
ATOM     20  C   UNL     1       1.008  15.264  19.839  0.00  0.00    +0.000 C 
BRANCH  20  21
ATOM     21  C   UNL     1       0.747  16.460  19.031  0.00  0.00    +0.000 C 
ATOM     22  C   UNL     1       1.874  17.470  19.019  0.00  0.00    +0.000 C 
ATOM     23  C   UNL     1      -0.427  16.679  18.407  0.00  0.00    +0.000 C 
BRANCH  23  24
ATOM     24  C   UNL     1      -0.734  17.883  17.603  0.00  0.00    +0.000 C 
ATOM     25  O   UNL     1      -0.212  18.182  16.545  0.00  0.00    +0.000 OA
BRANCH  24  26
ATOM     26  O   UNL     1      -1.703  18.626  18.181  0.00  0.00    +0.000 OA
ATOM     27  H   UNL     1      -1.413  19.490  18.525  0.00  0.00    +0.000 HD
ENDBRANCH  24  26
ENDBRANCH  23  24
ENDBRANCH  20  21
ENDBRANCH  17  18
ENDBRANCH   1  16
BRANCH   6  28
ATOM     28  O   UNL     1      -0.447  11.007  18.043  0.00  0.00    +0.000 OA
BRANCH  28  29
ATOM     29  C   UNL     1      -0.034   9.666  18.334  0.00  0.00    +0.000 C 
BRANCH  29  30
ATOM     30  C   UNL     1       1.465   9.449  18.310  0.00  0.00    +0.000 C 
ATOM     31  F   UNL     1       1.742   8.476  17.396  0.00  0.00    +0.000 F 
ATOM     32  F   UNL     1       2.099  10.565  17.871  0.00  0.00    +0.000 F 
ENDBRANCH  29  30
ENDBRANCH  28  29
ENDBRANCH   6  28
TORSDOF 10
ENDMDL
MODEL 4
REMARK VINA RESULT:      -5.5      7.750     11.060
REMARK  Name = 
REMARK  18 active torsions:
REMARK  status: ('A' for Active; 'I' for Inactive)
REMARK    1  A    between atoms: C_1  and  C_2
REMARK    2  A    between atoms: C_2  and  C_13
REMARK    3  A    between atoms: C_3  and  C_4
REMARK    4  A    between atoms: C_6  and  C_7
REMARK    5  A    between atoms: C_7  and  C_8
REMARK    6  A    between atoms: C_9  and  C_10
REMARK    7  A    between atoms: C_10  and  O_12
REMARK    8  A    between atoms: C_15  and  C_16
REMARK    9  A    between atoms: C_16  and  C_17
REMARK   10  A    between atoms: C_16  and  C_18
REMARK   11  A    between atoms: C_16  and  C_19
REMARK   12  A    between atoms: C_21  and  C_22
REMARK   13  A    between atoms: C_22  and  C_23
REMARK   14  A    between atoms: C_22  and  C_24
REMARK   15  A    between atoms: C_22  and  C_25
REMARK   16  A    between atoms: C_26  and  O_27
REMARK   17  A    between atoms: O_27  and  C_28
REMARK   18  A    between atoms: C_28  and  C_29
REMARK                            x       y       z     vdW  Elec       q    Type
REMARK                         _______ _______ _______ _____ _____    ______ ____
ROOT
ATOM      1  C   UNL     1      -0.551  13.357  19.841  0.00  0.00    +0.000 A 
ATOM      2  C   UNL     1      -0.495  14.644  19.275  0.00  0.00    +0.000 A 
ATOM      3  C   UNL     1      -1.224  15.718  19.788  0.00  0.00    +0.000 A 
ATOM      4  C   UNL     1      -2.136  15.428  20.815  0.00  0.00    +0.000 A 
ATOM      5  C   UNL     1      -2.247  14.157  21.445  0.00  0.00    +0.000 A 
ATOM      6  C   UNL     1      -1.429  13.111  20.937  0.00  0.00    +0.000 A 
ENDROOT
BRANCH   3   7
ATOM      7  C   UNL     1      -0.990  17.158  19.289  0.00  0.00    +0.000 C 
ATOM      8  C   UNL     1       0.014  17.881  20.203  0.00  0.00    +0.000 C 
ATOM      9  C   UNL     1      -0.446  17.179  17.840  0.00  0.00    +0.000 C 
ATOM     10  C   UNL     1      -2.307  17.972  19.259  0.00  0.00    +0.000 C 
ENDBRANCH   3   7
BRANCH   5  11
ATOM     11  C   UNL     1      -3.248  14.036  22.635  0.00  0.00    +0.000 C 
ATOM     12  C   UNL     1      -4.179  15.264  22.630  0.00  0.00    +0.000 C 
ATOM     13  C   UNL     1      -4.109  12.755  22.620  0.00  0.00    +0.000 C 
ATOM     14  C   UNL     1      -2.530  14.004  24.020  0.00  0.00    +0.000 C 
ENDBRANCH   5  11
BRANCH   1  16
ATOM     15  C   UNL     1       1.866  12.647  19.482  0.00  0.00    +0.000 C 
ATOM     16  C   UNL     1       0.406  12.395  19.228  0.00  0.00    +0.000 C 
ATOM     17  C   UNL     1       0.003  11.301  18.544  0.00  0.00    +0.000 C 
BRANCH  17  18
ATOM     18  C   UNL     1      -1.360  10.897  18.267  0.00  0.00    +0.000 C 
ATOM     19  F   UNL     1      -1.740   9.704  18.774  0.00  0.00    +0.000 F 
ATOM     20  C   UNL     1      -2.219  11.648  17.558  0.00  0.00    +0.000 C 
BRANCH  20  21
ATOM     21  C   UNL     1      -3.624  11.364  17.249  0.00  0.00    +0.000 C 
ATOM     22  C   UNL     1      -3.852  10.692  15.913  0.00  0.00    +0.000 C 
ATOM     23  C   UNL     1      -4.638  11.736  18.055  0.00  0.00    +0.000 C 
BRANCH  23  24
ATOM     24  C   UNL     1      -6.069  11.487  17.765  0.00  0.00    +0.000 C 
ATOM     25  O   UNL     1      -6.753  10.614  18.266  0.00  0.00    +0.000 OA
BRANCH  24  26
ATOM     26  O   UNL     1      -6.552  12.379  16.872  0.00  0.00    +0.000 OA
ATOM     27  H   UNL     1      -7.240  12.977  17.216  0.00  0.00    +0.000 HD
ENDBRANCH  24  26
ENDBRANCH  23  24
ENDBRANCH  20  21
ENDBRANCH  17  18
ENDBRANCH   1  16
BRANCH   6  28
ATOM     28  O   UNL     1      -1.581  11.847  21.482  0.00  0.00    +0.000 OA
BRANCH  28  29
ATOM     29  C   UNL     1      -0.562  11.522  22.436  0.00  0.00    +0.000 C 
BRANCH  29  30
ATOM     30  C   UNL     1       0.058  10.152  22.254  0.00  0.00    +0.000 C 
ATOM     31  F   UNL     1      -0.713   9.446  21.378  0.00  0.00    +0.000 F 
ATOM     32  F   UNL     1       1.280  10.258  21.675  0.00  0.00    +0.000 F 
ENDBRANCH  29  30
ENDBRANCH  28  29
ENDBRANCH   6  28
TORSDOF 10
ENDMDL
MODEL 5
REMARK VINA RESULT:      -5.5      8.200     11.348
REMARK  Name = 
REMARK  18 active torsions:
REMARK  status: ('A' for Active; 'I' for Inactive)
REMARK    1  A    between atoms: C_1  and  C_2
REMARK    2  A    between atoms: C_2  and  C_13
REMARK    3  A    between atoms: C_3  and  C_4
REMARK    4  A    between atoms: C_6  and  C_7
REMARK    5  A    between atoms: C_7  and  C_8
REMARK    6  A    between atoms: C_9  and  C_10
REMARK    7  A    between atoms: C_10  and  O_12
REMARK    8  A    between atoms: C_15  and  C_16
REMARK    9  A    between atoms: C_16  and  C_17
REMARK   10  A    between atoms: C_16  and  C_18
REMARK   11  A    between atoms: C_16  and  C_19
REMARK   12  A    between atoms: C_21  and  C_22
REMARK   13  A    between atoms: C_22  and  C_23
REMARK   14  A    between atoms: C_22  and  C_24
REMARK   15  A    between atoms: C_22  and  C_25
REMARK   16  A    between atoms: C_26  and  O_27
REMARK   17  A    between atoms: O_27  and  C_28
REMARK   18  A    between atoms: C_28  and  C_29
REMARK                            x       y       z     vdW  Elec       q    Type
REMARK                         _______ _______ _______ _____ _____    ______ ____
ROOT
ATOM      1  C   UNL     1      -0.800  13.228  20.158  0.00  0.00    +0.000 A 
ATOM      2  C   UNL     1      -0.690  14.493  19.551  0.00  0.00    +0.000 A 
ATOM      3  C   UNL     1      -1.400  15.605  20.007  0.00  0.00    +0.000 A 
ATOM      4  C   UNL     1      -2.349  15.376  21.017  0.00  0.00    +0.000 A 
ATOM      5  C   UNL     1      -2.515  14.131  21.684  0.00  0.00    +0.000 A 
ATOM      6  C   UNL     1      -1.715  13.045  21.235  0.00  0.00    +0.000 A 
ENDROOT
BRANCH   3   7
ATOM      7  C   UNL     1      -1.110  17.019  19.468  0.00  0.00    +0.000 C 
ATOM      8  C   UNL     1      -2.415  17.827  19.365  0.00  0.00    +0.000 C 
ATOM      9  C   UNL     1      -0.122  17.787  20.380  0.00  0.00    +0.000 C 
ATOM     10  C   UNL     1      -0.447  16.972  18.070  0.00  0.00    +0.000 C 
ENDBRANCH   3   7
BRANCH   5  11
ATOM     11  C   UNL     1      -3.551  14.079  22.849  0.00  0.00    +0.000 C 
ATOM     12  C   UNL     1      -4.391  15.371  22.827  0.00  0.00    +0.000 C 
ATOM     13  C   UNL     1      -4.501  12.863  22.808  0.00  0.00    +0.000 C 
ATOM     14  C   UNL     1      -2.872  13.992  24.252  0.00  0.00    +0.000 C 
ENDBRANCH   5  11
BRANCH   1  16
ATOM     15  C   UNL     1       1.592  12.380  19.974  0.00  0.00    +0.000 C 
ATOM     16  C   UNL     1       0.144  12.218  19.604  0.00  0.00    +0.000 C 
ATOM     17  C   UNL     1      -0.268  11.158  18.873  0.00  0.00    +0.000 C 
BRANCH  17  18
ATOM     18  C   UNL     1      -1.626  10.840  18.485  0.00  0.00    +0.000 C 
ATOM     19  F   UNL     1      -2.054   9.596  18.791  0.00  0.00    +0.000 F 
ATOM     20  C   UNL     1      -2.436  11.712  17.862  0.00  0.00    +0.000 C 
BRANCH  20  21
ATOM     21  C   UNL     1      -3.833  11.518  17.459  0.00  0.00    +0.000 C 
ATOM     22  C   UNL     1      -4.013  10.920  16.081  0.00  0.00    +0.000 C 
ATOM     23  C   UNL     1      -4.873  11.905  18.222  0.00  0.00    +0.000 C 
BRANCH  23  24
ATOM     24  C   UNL     1      -6.295  11.746  17.839  0.00  0.00    +0.000 C 
ATOM     25  O   UNL     1      -6.933  12.516  17.145  0.00  0.00    +0.000 OA
BRANCH  24  26
ATOM     26  O   UNL     1      -6.815  10.606  18.342  0.00  0.00    +0.000 OA
ATOM     27  H   UNL     1      -7.776  10.622  18.495  0.00  0.00    +0.000 HD
ENDBRANCH  24  26
ENDBRANCH  23  24
ENDBRANCH  20  21
ENDBRANCH  17  18
ENDBRANCH   1  16
BRANCH   6  28
ATOM     28  O   UNL     1      -1.919  11.805  21.817  0.00  0.00    +0.000 OA
BRANCH  28  29
ATOM     29  C   UNL     1      -0.858  11.418  22.698  0.00  0.00    +0.000 C 
BRANCH  29  30
ATOM     30  C   UNL     1      -0.696   9.921  22.870  0.00  0.00    +0.000 C 
ATOM     31  F   UNL     1      -0.213   9.406  21.704  0.00  0.00    +0.000 F 
ATOM     32  F   UNL     1       0.241   9.651  23.813  0.00  0.00    +0.000 F 
ENDBRANCH  29  30
ENDBRANCH  28  29
ENDBRANCH   6  28
TORSDOF 10
ENDMDL
MODEL 6
REMARK VINA RESULT:      -5.5      0.359      1.044
REMARK  Name = 
REMARK  18 active torsions:
REMARK  status: ('A' for Active; 'I' for Inactive)
REMARK    1  A    between atoms: C_1  and  C_2
REMARK    2  A    between atoms: C_2  and  C_13
REMARK    3  A    between atoms: C_3  and  C_4
REMARK    4  A    between atoms: C_6  and  C_7
REMARK    5  A    between atoms: C_7  and  C_8
REMARK    6  A    between atoms: C_9  and  C_10
REMARK    7  A    between atoms: C_10  and  O_12
REMARK    8  A    between atoms: C_15  and  C_16
REMARK    9  A    between atoms: C_16  and  C_17
REMARK   10  A    between atoms: C_16  and  C_18
REMARK   11  A    between atoms: C_16  and  C_19
REMARK   12  A    between atoms: C_21  and  C_22
REMARK   13  A    between atoms: C_22  and  C_23
REMARK   14  A    between atoms: C_22  and  C_24
REMARK   15  A    between atoms: C_22  and  C_25
REMARK   16  A    between atoms: C_26  and  O_27
REMARK   17  A    between atoms: O_27  and  C_28
REMARK   18  A    between atoms: C_28  and  C_29
REMARK                            x       y       z     vdW  Elec       q    Type
REMARK                         _______ _______ _______ _____ _____    ______ ____
ROOT
ATOM      1  C   UNL     1       8.604  15.253  20.419  0.00  0.00    +0.000 A 
ATOM      2  C   UNL     1       8.103  14.912  21.688  0.00  0.00    +0.000 A 
ATOM      3  C   UNL     1       8.256  13.635  22.233  0.00  0.00    +0.000 A 
ATOM      4  C   UNL     1       8.812  12.655  21.396  0.00  0.00    +0.000 A 
ATOM      5  C   UNL     1       9.348  12.922  20.106  0.00  0.00    +0.000 A 
ATOM      6  C   UNL     1       9.236  14.255  19.623  0.00  0.00    +0.000 A 
ENDROOT
BRANCH   3   7
ATOM      7  C   UNL     1       7.888  13.340  23.701  0.00  0.00    +0.000 C 
ATOM      8  C   UNL     1       8.311  11.910  24.077  0.00  0.00    +0.000 C 
ATOM      9  C   UNL     1       8.574  14.332  24.672  0.00  0.00    +0.000 C 
ATOM     10  C   UNL     1       6.368  13.488  23.948  0.00  0.00    +0.000 C 
ENDBRANCH   3   7
BRANCH   5  11
ATOM     11  C   UNL     1      10.014  11.731  19.349  0.00  0.00    +0.000 C 
ATOM     12  C   UNL     1       9.572  11.769  17.873  0.00  0.00    +0.000 C 
ATOM     13  C   UNL     1      11.556  11.716  19.410  0.00  0.00    +0.000 C 
ATOM     14  C   UNL     1       9.589  10.344  19.924  0.00  0.00    +0.000 C 
ENDBRANCH   5  11
BRANCH   1  16
ATOM     15  C   UNL     1       9.528  17.618  20.599  0.00  0.00    +0.000 C 
ATOM     16  C   UNL     1       8.454  16.698  20.088  0.00  0.00    +0.000 C 
ATOM     17  C   UNL     1       7.458  17.167  19.305  0.00  0.00    +0.000 C 
BRANCH  17  18
ATOM     18  C   UNL     1       6.389  16.401  18.698  0.00  0.00    +0.000 C 
ATOM     19  F   UNL     1       6.749  15.575  17.692  0.00  0.00    +0.000 F 
ATOM     20  C   UNL     1       5.109  16.481  19.098  0.00  0.00    +0.000 C 
BRANCH  20  21
ATOM     21  C   UNL     1       3.956  15.730  18.591  0.00  0.00    +0.000 C 
ATOM     22  C   UNL     1       3.248  16.378  17.421  0.00  0.00    +0.000 C 
ATOM     23  C   UNL     1       3.516  14.592  19.163  0.00  0.00    +0.000 C 
BRANCH  23  24
ATOM     24  C   UNL     1       2.344  13.820  18.692  0.00  0.00    +0.000 C 
ATOM     25  O   UNL     1       2.371  12.912  17.883  0.00  0.00    +0.000 OA
BRANCH  24  26
ATOM     26  O   UNL     1       1.208  14.235  19.296  0.00  0.00    +0.000 OA
ATOM     27  H   UNL     1       0.875  13.648  19.998  0.00  0.00    +0.000 HD
ENDBRANCH  24  26
ENDBRANCH  23  24
ENDBRANCH  20  21
ENDBRANCH  17  18
ENDBRANCH   1  16
BRANCH   6  28
ATOM     28  O   UNL     1       9.678  14.517  18.337  0.00  0.00    +0.000 OA
BRANCH  28  29
ATOM     29  C   UNL     1      10.953  15.171  18.305  0.00  0.00    +0.000 C 
BRANCH  29  30
ATOM     30  C   UNL     1      11.051  16.313  17.315  0.00  0.00    +0.000 C 
ATOM     31  F   UNL     1       9.787  16.678  16.955  0.00  0.00    +0.000 F 
ATOM     32  F   UNL     1      11.601  17.405  17.903  0.00  0.00    +0.000 F 
ENDBRANCH  29  30
ENDBRANCH  28  29
ENDBRANCH   6  28
TORSDOF 10
ENDMDL
MODEL 7
REMARK VINA RESULT:      -5.5      8.008     11.195
REMARK  Name = 
REMARK  18 active torsions:
REMARK  status: ('A' for Active; 'I' for Inactive)
REMARK    1  A    between atoms: C_1  and  C_2
REMARK    2  A    between atoms: C_2  and  C_13
REMARK    3  A    between atoms: C_3  and  C_4
REMARK    4  A    between atoms: C_6  and  C_7
REMARK    5  A    between atoms: C_7  and  C_8
REMARK    6  A    between atoms: C_9  and  C_10
REMARK    7  A    between atoms: C_10  and  O_12
REMARK    8  A    between atoms: C_15  and  C_16
REMARK    9  A    between atoms: C_16  and  C_17
REMARK   10  A    between atoms: C_16  and  C_18
REMARK   11  A    between atoms: C_16  and  C_19
REMARK   12  A    between atoms: C_21  and  C_22
REMARK   13  A    between atoms: C_22  and  C_23
REMARK   14  A    between atoms: C_22  and  C_24
REMARK   15  A    between atoms: C_22  and  C_25
REMARK   16  A    between atoms: C_26  and  O_27
REMARK   17  A    between atoms: O_27  and  C_28
REMARK   18  A    between atoms: C_28  and  C_29
REMARK                            x       y       z     vdW  Elec       q    Type
REMARK                         _______ _______ _______ _____ _____    ______ ____
ROOT
ATOM      1  C   UNL     1      -0.611  13.426  19.914  0.00  0.00    +0.000 A 
ATOM      2  C   UNL     1      -0.537  14.722  19.372  0.00  0.00    +0.000 A 
ATOM      3  C   UNL     1      -1.295  15.785  19.867  0.00  0.00    +0.000 A 
ATOM      4  C   UNL     1      -2.252  15.473  20.846  0.00  0.00    +0.000 A 
ATOM      5  C   UNL     1      -2.384  14.192  21.449  0.00  0.00    +0.000 A 
ATOM      6  C   UNL     1      -1.537  13.158  20.964  0.00  0.00    +0.000 A 
ENDROOT
BRANCH   3   7
ATOM      7  C   UNL     1      -1.048  17.233  19.402  0.00  0.00    +0.000 C 
ATOM      8  C   UNL     1      -0.379  17.240  18.017  0.00  0.00    +0.000 C 
ATOM      9  C   UNL     1      -2.368  18.040  19.319  0.00  0.00    +0.000 C 
ATOM     10  C   UNL     1      -0.142  18.004  20.393  0.00  0.00    +0.000 C 
ENDBRANCH   3   7
BRANCH   5  11
ATOM     11  C   UNL     1      -3.438  14.046  22.590  0.00  0.00    +0.000 C 
ATOM     12  C   UNL     1      -4.381  12.875  22.251  0.00  0.00    +0.000 C 
ATOM     13  C   UNL     1      -2.836  13.812  23.993  0.00  0.00    +0.000 C 
ATOM     14  C   UNL     1      -4.323  15.321  22.755  0.00  0.00    +0.000 C 
ENDBRANCH   5  11
BRANCH   1  16
ATOM     15  C   UNL     1       1.827  12.763  19.616  0.00  0.00    +0.000 C 
ATOM     16  C   UNL     1       0.379  12.479  19.331  0.00  0.00    +0.000 C 
ATOM     17  C   UNL     1       0.014  11.372  18.647  0.00  0.00    +0.000 C 
BRANCH  17  18
ATOM     18  C   UNL     1      -1.334  10.938  18.343  0.00  0.00    +0.000 C 
ATOM     19  F   UNL     1      -1.677   9.710  18.789  0.00  0.00    +0.000 F 
ATOM     20  C   UNL     1      -2.213  11.694  17.665  0.00  0.00    +0.000 C 
BRANCH  20  21
ATOM     21  C   UNL     1      -3.607  11.380  17.335  0.00  0.00    +0.000 C 
ATOM     22  C   UNL     1      -3.803  10.730  15.982  0.00  0.00    +0.000 C 
ATOM     23  C   UNL     1      -4.639  11.707  18.136  0.00  0.00    +0.000 C 
BRANCH  23  24
ATOM     24  C   UNL     1      -6.060  11.427  17.825  0.00  0.00    +0.000 C 
ATOM     25  O   UNL     1      -6.731  10.537  18.315  0.00  0.00    +0.000 OA
BRANCH  24  26
ATOM     26  O   UNL     1      -6.549  12.309  16.927  0.00  0.00    +0.000 OA
ATOM     27  H   UNL     1      -6.034  12.391  16.105  0.00  0.00    +0.000 HD
ENDBRANCH  24  26
ENDBRANCH  23  24
ENDBRANCH  20  21
ENDBRANCH  17  18
ENDBRANCH   1  16
BRANCH   6  28
ATOM     28  O   UNL     1      -1.706  11.885  21.481  0.00  0.00    +0.000 OA
BRANCH  28  29
ATOM     29  C   UNL     1      -0.760  11.568  22.510  0.00  0.00    +0.000 C 
BRANCH  29  30
ATOM     30  C   UNL     1       0.044  10.308  22.260  0.00  0.00    +0.000 C 
ATOM     31  F   UNL     1       0.269   9.699  23.458  0.00  0.00    +0.000 F 
ATOM     32  F   UNL     1      -0.675   9.426  21.521  0.00  0.00    +0.000 F 
ENDBRANCH  29  30
ENDBRANCH  28  29
ENDBRANCH   6  28
TORSDOF 10
ENDMDL
MODEL 8
REMARK VINA RESULT:      -5.4      7.052     11.387
REMARK  Name = 
REMARK  18 active torsions:
REMARK  status: ('A' for Active; 'I' for Inactive)
REMARK    1  A    between atoms: C_1  and  C_2
REMARK    2  A    between atoms: C_2  and  C_13
REMARK    3  A    between atoms: C_3  and  C_4
REMARK    4  A    between atoms: C_6  and  C_7
REMARK    5  A    between atoms: C_7  and  C_8
REMARK    6  A    between atoms: C_9  and  C_10
REMARK    7  A    between atoms: C_10  and  O_12
REMARK    8  A    between atoms: C_15  and  C_16
REMARK    9  A    between atoms: C_16  and  C_17
REMARK   10  A    between atoms: C_16  and  C_18
REMARK   11  A    between atoms: C_16  and  C_19
REMARK   12  A    between atoms: C_21  and  C_22
REMARK   13  A    between atoms: C_22  and  C_23
REMARK   14  A    between atoms: C_22  and  C_24
REMARK   15  A    between atoms: C_22  and  C_25
REMARK   16  A    between atoms: C_26  and  O_27
REMARK   17  A    between atoms: O_27  and  C_28
REMARK   18  A    between atoms: C_28  and  C_29
REMARK                            x       y       z     vdW  Elec       q    Type
REMARK                         _______ _______ _______ _____ _____    ______ ____
ROOT
ATOM      1  C   UNL     1      -1.743  11.928  19.927  0.00  0.00    +0.000 A 
ATOM      2  C   UNL     1      -1.818  12.944  20.898  0.00  0.00    +0.000 A 
ATOM      3  C   UNL     1      -3.013  13.598  21.205  0.00  0.00    +0.000 A 
ATOM      4  C   UNL     1      -4.121  13.297  20.397  0.00  0.00    +0.000 A 
ATOM      5  C   UNL     1      -4.128  12.279  19.403  0.00  0.00    +0.000 A 
ATOM      6  C   UNL     1      -2.906  11.588  19.177  0.00  0.00    +0.000 A 
ENDROOT
BRANCH   3   7
ATOM      7  C   UNL     1      -3.118  14.554  22.409  0.00  0.00    +0.000 C 
ATOM      8  C   UNL     1      -2.061  15.666  22.300  0.00  0.00    +0.000 C 
ATOM      9  C   UNL     1      -4.519  15.209  22.497  0.00  0.00    +0.000 C 
ATOM     10  C   UNL     1      -2.915  13.808  23.750  0.00  0.00    +0.000 C 
ENDBRANCH   3   7
BRANCH   5  11
ATOM     11  C   UNL     1      -5.476  12.014  18.664  0.00  0.00    +0.000 C 
ATOM     12  C   UNL     1      -6.602  12.775  19.391  0.00  0.00    +0.000 C 
ATOM     13  C   UNL     1      -5.480  12.418  17.174  0.00  0.00    +0.000 C 
ATOM     14  C   UNL     1      -5.868  10.503  18.657  0.00  0.00    +0.000 C 
ENDBRANCH   5  11
BRANCH   1  16
ATOM     15  C   UNL     1      -0.327   9.860  20.364  0.00  0.00    +0.000 C 
ATOM     16  C   UNL     1      -0.409  11.272  19.854  0.00  0.00    +0.000 C 
ATOM     17  C   UNL     1       0.667  11.865  19.290  0.00  0.00    +0.000 C 
BRANCH  17  18
ATOM     18  C   UNL     1       0.729  13.191  18.711  0.00  0.00    +0.000 C 
ATOM     19  F   UNL     1      -0.206  13.475  17.778  0.00  0.00    +0.000 F 
ATOM     20  C   UNL     1       1.645  14.106  19.067  0.00  0.00    +0.000 C 
BRANCH  20  21
ATOM     21  C   UNL     1       1.780  15.484  18.583  0.00  0.00    +0.000 C 
ATOM     22  C   UNL     1       3.039  15.751  17.787  0.00  0.00    +0.000 C 
ATOM     23  C   UNL     1       0.893  16.453  18.881  0.00  0.00    +0.000 C 
BRANCH  23  24
ATOM     24  C   UNL     1       1.009  17.858  18.430  0.00  0.00    +0.000 C 
ATOM     25  O   UNL     1       0.555  18.311  17.395  0.00  0.00    +0.000 OA
BRANCH  24  26
ATOM     26  O   UNL     1       1.676  18.611  19.332  0.00  0.00    +0.000 OA
ATOM     27  H   UNL     1       1.170  18.844  20.131  0.00  0.00    +0.000 HD
ENDBRANCH  24  26
ENDBRANCH  23  24
ENDBRANCH  20  21
ENDBRANCH  17  18
ENDBRANCH   1  16
BRANCH   6  28
ATOM     28  O   UNL     1      -2.871  10.651  18.159  0.00  0.00    +0.000 OA
BRANCH  28  29
ATOM     29  C   UNL     1      -2.332  11.170  16.937  0.00  0.00    +0.000 C 
BRANCH  29  30
ATOM     30  C   UNL     1      -2.627  10.332  15.711  0.00  0.00    +0.000 C 
ATOM     31  F   UNL     1      -3.443   9.304  16.081  0.00  0.00    +0.000 F 
ATOM     32  F   UNL     1      -3.327  11.054  14.800  0.00  0.00    +0.000 F 
ENDBRANCH  29  30
ENDBRANCH  28  29
ENDBRANCH   6  28
TORSDOF 10
ENDMDL
MODEL 9
REMARK VINA RESULT:      -5.4      8.405     12.746
REMARK  Name = 
REMARK  18 active torsions:
REMARK  status: ('A' for Active; 'I' for Inactive)
REMARK    1  A    between atoms: C_1  and  C_2
REMARK    2  A    between atoms: C_2  and  C_13
REMARK    3  A    between atoms: C_3  and  C_4
REMARK    4  A    between atoms: C_6  and  C_7
REMARK    5  A    between atoms: C_7  and  C_8
REMARK    6  A    between atoms: C_9  and  C_10
REMARK    7  A    between atoms: C_10  and  O_12
REMARK    8  A    between atoms: C_15  and  C_16
REMARK    9  A    between atoms: C_16  and  C_17
REMARK   10  A    between atoms: C_16  and  C_18
REMARK   11  A    between atoms: C_16  and  C_19
REMARK   12  A    between atoms: C_21  and  C_22
REMARK   13  A    between atoms: C_22  and  C_23
REMARK   14  A    between atoms: C_22  and  C_24
REMARK   15  A    between atoms: C_22  and  C_25
REMARK   16  A    between atoms: C_26  and  O_27
REMARK   17  A    between atoms: O_27  and  C_28
REMARK   18  A    between atoms: C_28  and  C_29
REMARK                            x       y       z     vdW  Elec       q    Type
REMARK                         _______ _______ _______ _____ _____    ______ ____
ROOT
ATOM      1  C   UNL     1      -4.193  13.234  21.840  0.00  0.00    +0.000 A 
ATOM      2  C   UNL     1      -4.849  12.339  20.974  0.00  0.00    +0.000 A 
ATOM      3  C   UNL     1      -5.592  12.772  19.875  0.00  0.00    +0.000 A 
ATOM      4  C   UNL     1      -5.781  14.158  19.748  0.00  0.00    +0.000 A 
ATOM      5  C   UNL     1      -5.147  15.126  20.575  0.00  0.00    +0.000 A 
ATOM      6  C   UNL     1      -4.338  14.637  21.637  0.00  0.00    +0.000 A 
ENDROOT
BRANCH   3   7
ATOM      7  C   UNL     1      -6.126  11.778  18.824  0.00  0.00    +0.000 C 
ATOM      8  C   UNL     1      -4.956  11.110  18.082  0.00  0.00    +0.000 C 
ATOM      9  C   UNL     1      -6.997  10.674  19.473  0.00  0.00    +0.000 C 
ATOM     10  C   UNL     1      -7.035  12.478  17.786  0.00  0.00    +0.000 C 
ENDBRANCH   3   7
BRANCH   5  11
ATOM     11  C   UNL     1      -5.394  16.628  20.233  0.00  0.00    +0.000 C 
ATOM     12  C   UNL     1      -6.418  16.715  19.084  0.00  0.00    +0.000 C 
ATOM     13  C   UNL     1      -5.896  17.481  21.417  0.00  0.00    +0.000 C 
ATOM     14  C   UNL     1      -4.098  17.354  19.755  0.00  0.00    +0.000 C 
ENDBRANCH   5  11
BRANCH   1  16
ATOM     15  C   UNL     1      -3.928  12.444  24.244  0.00  0.00    +0.000 C 
ATOM     16  C   UNL     1      -3.346  12.561  22.863  0.00  0.00    +0.000 C 
ATOM     17  C   UNL     1      -2.150  12.005  22.568  0.00  0.00    +0.000 C 
BRANCH  17  18
ATOM     18  C   UNL     1      -1.488  11.988  21.280  0.00  0.00    +0.000 C 
ATOM     19  F   UNL     1      -1.328  13.188  20.680  0.00  0.00    +0.000 F 
ATOM     20  C   UNL     1      -1.042  10.862  20.699  0.00  0.00    +0.000 C 
BRANCH  20  21
ATOM     21  C   UNL     1      -0.326  10.727  19.425  0.00  0.00    +0.000 C 
ATOM     22  C   UNL     1      -1.210  10.773  18.198  0.00  0.00    +0.000 C 
ATOM     23  C   UNL     1       1.001  10.507  19.354  0.00  0.00    +0.000 C 
BRANCH  23  24
ATOM     24  C   UNL     1       1.753  10.343  18.089  0.00  0.00    +0.000 C 
ATOM     25  O   UNL     1       1.918   9.295  17.493  0.00  0.00    +0.000 OA
BRANCH  24  26
ATOM     26  O   UNL     1       2.232  11.525  17.645  0.00  0.00    +0.000 OA
ATOM     27  H   UNL     1       3.199  11.624  17.693  0.00  0.00    +0.000 HD
ENDBRANCH  24  26
ENDBRANCH  23  24
ENDBRANCH  20  21
ENDBRANCH  17  18
ENDBRANCH   1  16
BRANCH   6  28
ATOM     28  O   UNL     1      -3.778  15.562  22.503  0.00  0.00    +0.000 OA
BRANCH  28  29
ATOM     29  C   UNL     1      -2.375  15.755  22.286  0.00  0.00    +0.000 C 
BRANCH  29  30
ATOM     30  C   UNL     1      -1.530  15.701  23.542  0.00  0.00    +0.000 C 
ATOM     31  F   UNL     1      -2.344  15.407  24.594  0.00  0.00    +0.000 F 
ATOM     32  F   UNL     1      -0.634  14.684  23.467  0.00  0.00    +0.000 F 
ENDBRANCH  29  30
ENDBRANCH  28  29
ENDBRANCH   6  28
TORSDOF 10
ENDMDL
