MODEL 1
REMARK VINA RESULT:     -10.3      0.000      0.000
REMARK  Name = 
REMARK  4 active torsions:
REMARK  status: ('A' for Active; 'I' for Inactive)
REMARK    1  A    between atoms: C_6  and  O_7
REMARK    2  A    between atoms: O_7  and  C_8
REMARK    3  A    between atoms: C_17  and  C_18
REMARK    4  A    between atoms: C_24  and  C_25
REMARK                            x       y       z     vdW  Elec       q    Type
REMARK                         _______ _______ _______ _____ _____    ______ ____
ROOT
ATOM      1  C   UNL     1       1.872   6.047  19.631  0.00  0.00    +0.000 A 
ATOM      2  C   UNL     1       1.369   5.637  20.871  0.00  0.00    +0.000 A 
ATOM      3  C   UNL     1       1.299   4.268  21.133  0.00  0.00    +0.000 A 
ATOM      4  C   UNL     1       1.612   3.410  20.096  0.00  0.00    +0.000 A 
ATOM      5  C   UNL     1       1.735   3.818  18.772  0.00  0.00    +0.000 A 
ATOM      6  C   UNL     1       1.890   5.173  18.534  0.00  0.00    +0.000 A 
ATOM      7  C   UNL     1       1.969   2.633  17.897  0.00  0.00    +0.000 C 
ATOM      8  C   UNL     1       2.182   1.536  18.909  0.00  0.00    +0.000 C 
ATOM      9  O   UNL     1       2.027   2.103  20.269  0.00  0.00    +0.000 OA
ATOM     10  C   UNL     1       3.289   1.855  17.923  0.00  0.00    +0.000 C 
ENDROOT
BRANCH  10  11
ATOM     11  C   UNL     1       4.498   2.804  17.871  0.00  0.00    +0.000 A 
ATOM     12  N   UNL     1       4.929   3.568  18.846  0.00  0.00    +0.000 NA
ATOM     13  C   UNL     1       5.838   4.431  18.291  0.00  0.00    +0.000 A 
ATOM     14  C   UNL     1       6.558   5.465  18.903  0.00  0.00    +0.000 A 
ATOM     15  C   UNL     1       7.513   6.155  18.157  0.00  0.00    +0.000 A 
ATOM     16  C   UNL     1       7.633   5.927  16.788  0.00  0.00    +0.000 A 
ATOM     17  C   UNL     1       6.805   5.007  16.100  0.00  0.00    +0.000 A 
ATOM     18  C   UNL     1       5.988   4.198  16.930  0.00  0.00    +0.000 A 
ATOM     19  N   UNL     1       5.178   3.104  16.703  0.00  0.00    +0.000 N 
ATOM     20  H   UNL     1       5.078   2.604  15.832  0.00  0.00    +0.000 HD
BRANCH  17  21
ATOM     21  C   UNL     1       6.782   5.021  14.595  0.00  0.00    +0.000 C 
ATOM     22  F   UNL     1       7.889   5.590  14.034  0.00  0.00    +0.000 F 
ATOM     23  F   UNL     1       6.670   3.787  14.043  0.00  0.00    +0.000 F 
ATOM     24  F   UNL     1       5.726   5.740  14.111  0.00  0.00    +0.000 F 
ENDBRANCH  17  21
ENDBRANCH  10  11
BRANCH   1  25
ATOM     25  O   UNL     1       2.459   7.270  19.416  0.00  0.00    +0.000 OA
BRANCH  25  31
ATOM     26  O   UNL     1      -1.484  10.984  23.112  0.00  0.00    +0.000 OA
ATOM     27  C   UNL     1      -0.619  10.517  22.379  0.00  0.00    +0.000 C 
ATOM     28  C   UNL     1       0.528   9.687  22.895  0.00  0.00    +0.000 C 
ATOM     29  C   UNL     1       0.923   8.602  21.901  0.00  0.00    +0.000 C 
ATOM     30  C   UNL     1       1.030   9.080  20.475  0.00  0.00    +0.000 A 
ATOM     31  C   UNL     1       1.729   8.447  19.426  0.00  0.00    +0.000 A 
ATOM     32  C   UNL     1       1.797   9.079  18.181  0.00  0.00    +0.000 A 
ATOM     33  C   UNL     1       1.083  10.241  17.978  0.00  0.00    +0.000 A 
ATOM     34  N   UNL     1       0.300  10.800  18.916  0.00  0.00    +0.000 NA
ATOM     35  C   UNL     1       0.299  10.223  20.129  0.00  0.00    +0.000 A 
ATOM     36  N   UNL     1      -0.557  10.823  21.052  0.00  0.00    +0.000 N 
ATOM     37  H   UNL     1      -1.206  11.505  20.684  0.00  0.00    +0.000 HD
ENDBRANCH  25  31
ENDBRANCH   1  25
TORSDOF 4
ENDMDL
MODEL 2
REMARK VINA RESULT:      -9.4      1.676      2.185
REMARK  Name = 
REMARK  4 active torsions:
REMARK  status: ('A' for Active; 'I' for Inactive)
REMARK    1  A    between atoms: C_6  and  O_7
REMARK    2  A    between atoms: O_7  and  C_8
REMARK    3  A    between atoms: C_17  and  C_18
REMARK    4  A    between atoms: C_24  and  C_25
REMARK                            x       y       z     vdW  Elec       q    Type
REMARK                         _______ _______ _______ _____ _____    ______ ____
ROOT
ATOM      1  C   UNL     1       2.073   6.255  19.670  0.00  0.00    +0.000 A 
ATOM      2  C   UNL     1       2.148   5.902  21.022  0.00  0.00    +0.000 A 
ATOM      3  C   UNL     1       2.330   4.555  21.341  0.00  0.00    +0.000 A 
ATOM      4  C   UNL     1       2.295   3.649  20.298  0.00  0.00    +0.000 A 
ATOM      5  C   UNL     1       1.841   3.965  19.021  0.00  0.00    +0.000 A 
ATOM      6  C   UNL     1       1.747   5.306  18.692  0.00  0.00    +0.000 A 
ATOM      7  C   UNL     1       1.832   2.740  18.170  0.00  0.00    +0.000 C 
ATOM      8  C   UNL     1       2.541   1.743  19.051  0.00  0.00    +0.000 C 
ATOM      9  O   UNL     1       2.879   2.397  20.338  0.00  0.00    +0.000 OA
ATOM     10  C   UNL     1       3.128   2.075  17.694  0.00  0.00    +0.000 C 
ENDROOT
BRANCH  10  11
ATOM     11  C   UNL     1       4.111   3.113  17.125  0.00  0.00    +0.000 A 
ATOM     12  N   UNL     1       4.455   3.248  15.867  0.00  0.00    +0.000 NA
ATOM     13  C   UNL     1       5.536   4.092  15.848  0.00  0.00    +0.000 A 
ATOM     14  C   UNL     1       6.295   4.528  14.754  0.00  0.00    +0.000 A 
ATOM     15  C   UNL     1       7.297   5.474  14.963  0.00  0.00    +0.000 A 
ATOM     16  C   UNL     1       7.642   5.857  16.257  0.00  0.00    +0.000 A 
ATOM     17  C   UNL     1       7.010   5.312  17.400  0.00  0.00    +0.000 A 
ATOM     18  C   UNL     1       5.876   4.503  17.130  0.00  0.00    +0.000 A 
ATOM     19  N   UNL     1       4.902   3.924  17.919  0.00  0.00    +0.000 N 
ATOM     20  H   UNL     1       4.784   4.052  18.913  0.00  0.00    +0.000 HD
BRANCH  17  21
ATOM     21  C   UNL     1       7.619   5.540  18.757  0.00  0.00    +0.000 C 
ATOM     22  F   UNL     1       6.719   5.481  19.781  0.00  0.00    +0.000 F 
ATOM     23  F   UNL     1       8.602   4.657  19.066  0.00  0.00    +0.000 F 
ATOM     24  F   UNL     1       8.190   6.778  18.855  0.00  0.00    +0.000 F 
ENDBRANCH  17  21
ENDBRANCH  10  11
BRANCH   1  25
ATOM     25  O   UNL     1       2.395   7.502  19.194  0.00  0.00    +0.000 OA
BRANCH  25  31
ATOM     26  O   UNL     1      -1.485  10.775  23.345  0.00  0.00    +0.000 OA
ATOM     27  C   UNL     1      -0.669  10.404  22.507  0.00  0.00    +0.000 C 
ATOM     28  C   UNL     1       0.636   9.746  22.873  0.00  0.00    +0.000 C 
ATOM     29  C   UNL     1       1.037   8.694  21.847  0.00  0.00    +0.000 C 
ATOM     30  C   UNL     1       0.890   9.141  20.415  0.00  0.00    +0.000 A 
ATOM     31  C   UNL     1       1.523   8.573  19.288  0.00  0.00    +0.000 A 
ATOM     32  C   UNL     1       1.341   9.173  18.039  0.00  0.00    +0.000 A 
ATOM     33  C   UNL     1       0.458  10.225  17.921  0.00  0.00    +0.000 A 
ATOM     34  N   UNL     1      -0.262  10.704  18.949  0.00  0.00    +0.000 NA
ATOM     35  C   UNL     1      -0.026  10.167  20.158  0.00  0.00    +0.000 A 
ATOM     36  N   UNL     1      -0.825  10.677  21.180  0.00  0.00    +0.000 N 
ATOM     37  H   UNL     1      -1.602  11.257  20.896  0.00  0.00    +0.000 HD
ENDBRANCH  25  31
ENDBRANCH   1  25
TORSDOF 4
ENDMDL
MODEL 3
REMARK VINA RESULT:      -9.2      1.136      1.921
REMARK  Name = 
REMARK  4 active torsions:
REMARK  status: ('A' for Active; 'I' for Inactive)
REMARK    1  A    between atoms: C_6  and  O_7
REMARK    2  A    between atoms: O_7  and  C_8
REMARK    3  A    between atoms: C_17  and  C_18
REMARK    4  A    between atoms: C_24  and  C_25
REMARK                            x       y       z     vdW  Elec       q    Type
REMARK                         _______ _______ _______ _____ _____    ______ ____
ROOT
ATOM      1  C   UNL     1       1.681   5.880  19.617  0.00  0.00    +0.000 A 
ATOM      2  C   UNL     1       1.166   5.429  20.837  0.00  0.00    +0.000 A 
ATOM      3  C   UNL     1       1.158   4.054  21.080  0.00  0.00    +0.000 A 
ATOM      4  C   UNL     1       1.544   3.228  20.042  0.00  0.00    +0.000 A 
ATOM      5  C   UNL     1       1.682   3.660  18.727  0.00  0.00    +0.000 A 
ATOM      6  C   UNL     1       1.774   5.024  18.511  0.00  0.00    +0.000 A 
ATOM      7  C   UNL     1       2.001   2.501  17.844  0.00  0.00    +0.000 C 
ATOM      8  C   UNL     1       2.241   1.402  18.848  0.00  0.00    +0.000 C 
ATOM      9  O   UNL     1       2.020   1.941  20.210  0.00  0.00    +0.000 OA
ATOM     10  C   UNL     1       3.357   1.790  17.898  0.00  0.00    +0.000 C 
ENDROOT
BRANCH  10  11
ATOM     11  C   UNL     1       4.518   2.801  17.892  0.00  0.00    +0.000 A 
ATOM     12  N   UNL     1       4.871   3.584  18.883  0.00  0.00    +0.000 NA
ATOM     13  C   UNL     1       5.755   4.494  18.363  0.00  0.00    +0.000 A 
ATOM     14  C   UNL     1       6.397   5.562  19.002  0.00  0.00    +0.000 A 
ATOM     15  C   UNL     1       7.343   6.301  18.293  0.00  0.00    +0.000 A 
ATOM     16  C   UNL     1       7.527   6.082  16.929  0.00  0.00    +0.000 A 
ATOM     17  C   UNL     1       6.776   5.121  16.211  0.00  0.00    +0.000 A 
ATOM     18  C   UNL     1       5.969   4.270  17.009  0.00  0.00    +0.000 A 
ATOM     19  N   UNL     1       5.226   3.136  16.752  0.00  0.00    +0.000 N 
ATOM     20  H   UNL     1       5.186   2.633  15.878  0.00  0.00    +0.000 HD
BRANCH  17  21
ATOM     21  C   UNL     1       6.810   5.136  14.706  0.00  0.00    +0.000 C 
ATOM     22  F   UNL     1       7.927   5.724  14.188  0.00  0.00    +0.000 F 
ATOM     23  F   UNL     1       6.740   3.901  14.150  0.00  0.00    +0.000 F 
ATOM     24  F   UNL     1       5.761   5.838  14.182  0.00  0.00    +0.000 F 
ENDBRANCH  17  21
ENDBRANCH  10  11
BRANCH   1  25
ATOM     25  O   UNL     1       2.210   7.134  19.435  0.00  0.00    +0.000 OA
BRANCH  25  31
ATOM     26  O   UNL     1      -0.812  12.834  18.257  0.00  0.00    +0.000 OA
ATOM     27  C   UNL     1      -0.441  11.734  18.654  0.00  0.00    +0.000 C 
ATOM     28  C   UNL     1      -0.621  10.472  17.850  0.00  0.00    +0.000 C 
ATOM     29  C   UNL     1       0.537   9.505  18.062  0.00  0.00    +0.000 C 
ATOM     30  C   UNL     1       0.937   9.329  19.504  0.00  0.00    +0.000 A 
ATOM     31  C   UNL     1       1.673   8.255  20.047  0.00  0.00    +0.000 A 
ATOM     32  C   UNL     1       1.881   8.208  21.429  0.00  0.00    +0.000 A 
ATOM     33  C   UNL     1       1.467   9.268  22.206  0.00  0.00    +0.000 A 
ATOM     34  N   UNL     1       0.882  10.368  21.704  0.00  0.00    +0.000 NA
ATOM     35  C   UNL     1       0.623  10.370  20.385  0.00  0.00    +0.000 A 
ATOM     36  N   UNL     1       0.048  11.550  19.913  0.00  0.00    +0.000 N 
ATOM     37  H   UNL     1       0.040  12.332  20.552  0.00  0.00    +0.000 HD
ENDBRANCH  25  31
ENDBRANCH   1  25
TORSDOF 4
ENDMDL
MODEL 4
REMARK VINA RESULT:      -9.1      5.008      9.775
REMARK  Name = 
REMARK  4 active torsions:
REMARK  status: ('A' for Active; 'I' for Inactive)
REMARK    1  A    between atoms: C_6  and  O_7
REMARK    2  A    between atoms: O_7  and  C_8
REMARK    3  A    between atoms: C_17  and  C_18
REMARK    4  A    between atoms: C_24  and  C_25
REMARK                            x       y       z     vdW  Elec       q    Type
REMARK                         _______ _______ _______ _____ _____    ______ ____
ROOT
ATOM      1  C   UNL     1       1.234   8.949  20.193  0.00  0.00    +0.000 A 
ATOM      2  C   UNL     1       1.146   8.472  21.505  0.00  0.00    +0.000 A 
ATOM      3  C   UNL     1       0.638   9.328  22.484  0.00  0.00    +0.000 A 
ATOM      4  C   UNL     1       0.378  10.632  22.108  0.00  0.00    +0.000 A 
ATOM      5  C   UNL     1       0.826  11.193  20.916  0.00  0.00    +0.000 A 
ATOM      6  C   UNL     1       1.247  10.325  19.923  0.00  0.00    +0.000 A 
ATOM      7  C   UNL     1       0.469  12.640  20.871  0.00  0.00    +0.000 C 
ATOM      8  C   UNL     1      -0.424  12.778  22.078  0.00  0.00    +0.000 C 
ATOM      9  O   UNL     1      -0.508  11.467  22.764  0.00  0.00    +0.000 OA
ATOM     10  C   UNL     1      -0.979  13.112  20.707  0.00  0.00    +0.000 C 
ENDROOT
BRANCH  10  11
ATOM     11  C   UNL     1      -1.690  12.351  19.574  0.00  0.00    +0.000 A 
ATOM     12  N   UNL     1      -1.252  12.201  18.347  0.00  0.00    +0.000 NA
ATOM     13  C   UNL     1      -2.303  11.706  17.618  0.00  0.00    +0.000 A 
ATOM     14  C   UNL     1      -2.362  11.404  16.251  0.00  0.00    +0.000 A 
ATOM     15  C   UNL     1      -3.517  10.810  15.742  0.00  0.00    +0.000 A 
ATOM     16  C   UNL     1      -4.646  10.668  16.545  0.00  0.00    +0.000 A 
ATOM     17  C   UNL     1      -4.679  11.115  17.887  0.00  0.00    +0.000 A 
ATOM     18  C   UNL     1      -3.430  11.534  18.412  0.00  0.00    +0.000 A 
ATOM     19  N   UNL     1      -2.988  11.881  19.672  0.00  0.00    +0.000 N 
ATOM     20  H   UNL     1      -3.517  11.821  20.529  0.00  0.00    +0.000 HD
BRANCH  17  21
ATOM     21  C   UNL     1      -6.002  11.202  18.601  0.00  0.00    +0.000 C 
ATOM     22  F   UNL     1      -5.970  11.977  19.724  0.00  0.00    +0.000 F 
ATOM     23  F   UNL     1      -7.003  11.695  17.829  0.00  0.00    +0.000 F 
ATOM     24  F   UNL     1      -6.431   9.976  19.025  0.00  0.00    +0.000 F 
ENDBRANCH  17  21
ENDBRANCH  10  11
BRANCH   1  25
ATOM     25  O   UNL     1       1.221   8.135  19.088  0.00  0.00    +0.000 OA
BRANCH  25  31
ATOM     26  O   UNL     1       3.731   2.334  20.834  0.00  0.00    +0.000 OA
ATOM     27  C   UNL     1       3.284   3.322  20.262  0.00  0.00    +0.000 C 
ATOM     28  C   UNL     1       1.817   3.668  20.256  0.00  0.00    +0.000 C 
ATOM     29  C   UNL     1       1.599   5.176  20.275  0.00  0.00    +0.000 C 
ATOM     30  C   UNL     1       2.471   5.937  19.309  0.00  0.00    +0.000 A 
ATOM     31  C   UNL     1       2.245   7.241  18.820  0.00  0.00    +0.000 A 
ATOM     32  C   UNL     1       3.114   7.762  17.857  0.00  0.00    +0.000 A 
ATOM     33  C   UNL     1       4.232   7.039  17.501  0.00  0.00    +0.000 A 
ATOM     34  N   UNL     1       4.549   5.853  18.046  0.00  0.00    +0.000 NA
ATOM     35  C   UNL     1       3.669   5.330  18.917  0.00  0.00    +0.000 A 
ATOM     36  N   UNL     1       4.066   4.116  19.477  0.00  0.00    +0.000 N 
ATOM     37  H   UNL     1       5.023   3.838  19.314  0.00  0.00    +0.000 HD
ENDBRANCH  25  31
ENDBRANCH   1  25
TORSDOF 4
ENDMDL
MODEL 5
REMARK VINA RESULT:      -8.9      5.731     11.229
REMARK  Name = 
REMARK  4 active torsions:
REMARK  status: ('A' for Active; 'I' for Inactive)
REMARK    1  A    between atoms: C_6  and  O_7
REMARK    2  A    between atoms: O_7  and  C_8
REMARK    3  A    between atoms: C_17  and  C_18
REMARK    4  A    between atoms: C_24  and  C_25
REMARK                            x       y       z     vdW  Elec       q    Type
REMARK                         _______ _______ _______ _____ _____    ______ ____
ROOT
ATOM      1  C   UNL     1       0.533  12.520  18.758  0.00  0.00    +0.000 A 
ATOM      2  C   UNL     1       1.920  12.659  18.886  0.00  0.00    +0.000 A 
ATOM      3  C   UNL     1       2.435  13.933  19.128  0.00  0.00    +0.000 A 
ATOM      4  C   UNL     1       1.545  14.989  19.097  0.00  0.00    +0.000 A 
ATOM      5  C   UNL     1       0.251  14.890  18.594  0.00  0.00    +0.000 A 
ATOM      6  C   UNL     1      -0.276  13.619  18.439  0.00  0.00    +0.000 A 
ATOM      7  C   UNL     1      -0.401  16.231  18.606  0.00  0.00    +0.000 C 
ATOM      8  C   UNL     1       0.597  17.056  19.378  0.00  0.00    +0.000 C 
ATOM      9  O   UNL     1       1.756  16.201  19.728  0.00  0.00    +0.000 OA
ATOM     10  C   UNL     1      -0.815  16.918  19.911  0.00  0.00    +0.000 C 
ENDROOT
BRANCH  10  11
ATOM     11  C   UNL     1      -1.570  15.949  20.838  0.00  0.00    +0.000 A 
ATOM     12  N   UNL     1      -1.127  15.453  21.969  0.00  0.00    +0.000 NA
ATOM     13  C   UNL     1      -1.991  14.446  22.315  0.00  0.00    +0.000 A 
ATOM     14  C   UNL     1      -1.942  13.585  23.419  0.00  0.00    +0.000 A 
ATOM     15  C   UNL     1      -2.994  12.693  23.625  0.00  0.00    +0.000 A 
ATOM     16  C   UNL     1      -3.993  12.552  22.664  0.00  0.00    +0.000 A 
ATOM     17  C   UNL     1      -3.986  13.287  21.454  0.00  0.00    +0.000 A 
ATOM     18  C   UNL     1      -3.008  14.310  21.379  0.00  0.00    +0.000 A 
ATOM     19  N   UNL     1      -2.758  15.333  20.487  0.00  0.00    +0.000 N 
ATOM     20  H   UNL     1      -3.331  15.592  19.697  0.00  0.00    +0.000 HD
BRANCH  17  21
ATOM     21  C   UNL     1      -4.916  12.881  20.342  0.00  0.00    +0.000 C 
ATOM     22  F   UNL     1      -5.814  11.918  20.701  0.00  0.00    +0.000 F 
ATOM     23  F   UNL     1      -5.644  13.911  19.842  0.00  0.00    +0.000 F 
ATOM     24  F   UNL     1      -4.236  12.357  19.279  0.00  0.00    +0.000 F 
ENDBRANCH  17  21
ENDBRANCH  10  11
BRANCH   1  25
ATOM     25  O   UNL     1      -0.140  11.352  19.019  0.00  0.00    +0.000 OA
BRANCH  25  31
ATOM     26  O   UNL     1       3.086   5.650  18.738  0.00  0.00    +0.000 OA
ATOM     27  C   UNL     1       2.670   6.781  18.966  0.00  0.00    +0.000 C 
ATOM     28  C   UNL     1       2.840   7.924  18.000  0.00  0.00    +0.000 C 
ATOM     29  C   UNL     1       1.648   8.872  18.040  0.00  0.00    +0.000 C 
ATOM     30  C   UNL     1       1.194   9.232  19.432  0.00  0.00    +0.000 A 
ATOM     31  C   UNL     1       0.408  10.346  19.797  0.00  0.00    +0.000 A 
ATOM     32  C   UNL     1       0.152  10.577  21.152  0.00  0.00    +0.000 A 
ATOM     33  C   UNL     1       0.570   9.648  22.082  0.00  0.00    +0.000 A 
ATOM     34  N   UNL     1       1.204   8.510  21.755  0.00  0.00    +0.000 NA
ATOM     35  C   UNL     1       1.508   8.334  20.458  0.00  0.00    +0.000 A 
ATOM     36  N   UNL     1       2.132   7.121  20.172  0.00  0.00    +0.000 N 
ATOM     37  H   UNL     1       2.142   6.435  20.914  0.00  0.00    +0.000 HD
ENDBRANCH  25  31
ENDBRANCH   1  25
TORSDOF 4
ENDMDL
MODEL 6
REMARK VINA RESULT:      -8.9      8.035     10.903
REMARK  Name = 
REMARK  4 active torsions:
REMARK  status: ('A' for Active; 'I' for Inactive)
REMARK    1  A    between atoms: C_6  and  O_7
REMARK    2  A    between atoms: O_7  and  C_8
REMARK    3  A    between atoms: C_17  and  C_18
REMARK    4  A    between atoms: C_24  and  C_25
REMARK                            x       y       z     vdW  Elec       q    Type
REMARK                         _______ _______ _______ _____ _____    ______ ____
ROOT
ATOM      1  C   UNL     1      -2.239  10.175  17.491  0.00  0.00    +0.000 A 
ATOM      2  C   UNL     1      -2.341  10.645  16.177  0.00  0.00    +0.000 A 
ATOM      3  C   UNL     1      -3.473  11.382  15.827  0.00  0.00    +0.000 A 
ATOM      4  C   UNL     1      -4.476  11.484  16.773  0.00  0.00    +0.000 A 
ATOM      5  C   UNL     1      -4.532  10.700  17.921  0.00  0.00    +0.000 A 
ATOM      6  C   UNL     1      -3.375  10.043  18.301  0.00  0.00    +0.000 A 
ATOM      7  C   UNL     1      -5.793  10.985  18.666  0.00  0.00    +0.000 C 
ATOM      8  C   UNL     1      -6.333  12.178  17.920  0.00  0.00    +0.000 C 
ATOM      9  O   UNL     1      -5.421  12.493  16.795  0.00  0.00    +0.000 OA
ATOM     10  C   UNL     1      -6.019  12.313  19.397  0.00  0.00    +0.000 C 
ENDROOT
BRANCH  10  11
ATOM     11  C   UNL     1      -4.796  12.697  20.248  0.00  0.00    +0.000 A 
ATOM     12  N   UNL     1      -4.351  12.055  21.302  0.00  0.00    +0.000 NA
ATOM     13  C   UNL     1      -3.432  12.880  21.899  0.00  0.00    +0.000 A 
ATOM     14  C   UNL     1      -2.695  12.673  23.073  0.00  0.00    +0.000 A 
ATOM     15  C   UNL     1      -1.734  13.615  23.439  0.00  0.00    +0.000 A 
ATOM     16  C   UNL     1      -1.623  14.814  22.738  0.00  0.00    +0.000 A 
ATOM     17  C   UNL     1      -2.466  15.131  21.646  0.00  0.00    +0.000 A 
ATOM     18  C   UNL     1      -3.291  14.069  21.196  0.00  0.00    +0.000 A 
ATOM     19  N   UNL     1      -4.117  13.894  20.104  0.00  0.00    +0.000 N 
ATOM     20  H   UNL     1      -4.227  14.531  19.330  0.00  0.00    +0.000 HD
BRANCH  17  21
ATOM     21  C   UNL     1      -2.494  16.543  21.126  0.00  0.00    +0.000 C 
ATOM     22  F   UNL     1      -1.428  17.296  21.522  0.00  0.00    +0.000 F 
ATOM     23  F   UNL     1      -2.531  16.621  19.772  0.00  0.00    +0.000 F 
ATOM     24  F   UNL     1      -3.595  17.223  21.566  0.00  0.00    +0.000 F 
ENDBRANCH  17  21
ENDBRANCH  10  11
BRANCH   1  25
ATOM     25  O   UNL     1      -1.043   9.900  18.108  0.00  0.00    +0.000 OA
BRANCH  25  31
ATOM     26  O   UNL     1       1.216  15.809  19.837  0.00  0.00    +0.000 OA
ATOM     27  C   UNL     1       0.634  14.735  19.723  0.00  0.00    +0.000 C 
ATOM     28  C   UNL     1      -0.405  14.478  18.662  0.00  0.00    +0.000 C 
ATOM     29  C   UNL     1      -0.358  13.036  18.172  0.00  0.00    +0.000 C 
ATOM     30  C   UNL     1      -0.260  12.013  19.275  0.00  0.00    +0.000 A 
ATOM     31  C   UNL     1      -0.583  10.643  19.183  0.00  0.00    +0.000 A 
ATOM     32  C   UNL     1      -0.516   9.854  20.334  0.00  0.00    +0.000 A 
ATOM     33  C   UNL     1      -0.023  10.404  21.498  0.00  0.00    +0.000 A 
ATOM     34  N   UNL     1       0.419  11.670  21.587  0.00  0.00    +0.000 NA
ATOM     35  C   UNL     1       0.282  12.439  20.493  0.00  0.00    +0.000 A 
ATOM     36  N   UNL     1       0.790  13.730  20.631  0.00  0.00    +0.000 N 
ATOM     37  H   UNL     1       1.350  13.907  21.453  0.00  0.00    +0.000 HD
ENDBRANCH  25  31
ENDBRANCH   1  25
TORSDOF 4
ENDMDL
MODEL 7
REMARK VINA RESULT:      -8.8      7.152     10.678
REMARK  Name = 
REMARK  4 active torsions:
REMARK  status: ('A' for Active; 'I' for Inactive)
REMARK    1  A    between atoms: C_6  and  O_7
REMARK    2  A    between atoms: O_7  and  C_8
REMARK    3  A    between atoms: C_17  and  C_18
REMARK    4  A    between atoms: C_24  and  C_25
REMARK                            x       y       z     vdW  Elec       q    Type
REMARK                         _______ _______ _______ _____ _____    ______ ____
ROOT
ATOM      1  C   UNL     1      -5.466  13.679  21.783  0.00  0.00    +0.000 A 
ATOM      2  C   UNL     1      -5.643  14.962  21.254  0.00  0.00    +0.000 A 
ATOM      3  C   UNL     1      -4.739  15.958  21.626  0.00  0.00    +0.000 A 
ATOM      4  C   UNL     1      -3.807  15.634  22.594  0.00  0.00    +0.000 A 
ATOM      5  C   UNL     1      -3.884  14.490  23.382  0.00  0.00    +0.000 A 
ATOM      6  C   UNL     1      -4.722  13.476  22.953  0.00  0.00    +0.000 A 
ATOM      7  C   UNL     1      -2.789  14.499  24.396  0.00  0.00    +0.000 C 
ATOM      8  C   UNL     1      -1.956  15.672  23.944  0.00  0.00    +0.000 C 
ATOM      9  O   UNL     1      -2.602  16.291  22.762  0.00  0.00    +0.000 OA
ATOM     10  C   UNL     1      -1.321  14.297  24.003  0.00  0.00    +0.000 C 
ENDROOT
BRANCH  10  11
ATOM     11  C   UNL     1      -1.157  13.100  23.051  0.00  0.00    +0.000 A 
ATOM     12  N   UNL     1      -1.101  11.835  23.396  0.00  0.00    +0.000 NA
ATOM     13  C   UNL     1      -0.683  11.148  22.286  0.00  0.00    +0.000 A 
ATOM     14  C   UNL     1      -0.433   9.777  22.141  0.00  0.00    +0.000 A 
ATOM     15  C   UNL     1      -0.110   9.281  20.879  0.00  0.00    +0.000 A 
ATOM     16  C   UNL     1       0.118  10.155  19.818  0.00  0.00    +0.000 A 
ATOM     17  C   UNL     1       0.038  11.561  19.967  0.00  0.00    +0.000 A 
ATOM     18  C   UNL     1      -0.477  12.004  21.212  0.00  0.00    +0.000 A 
ATOM     19  N   UNL     1      -0.862  13.234  21.706  0.00  0.00    +0.000 N 
ATOM     20  H   UNL     1      -0.910  14.098  21.188  0.00  0.00    +0.000 HD
BRANCH  17  21
ATOM     21  C   UNL     1       0.576  12.448  18.877  0.00  0.00    +0.000 C 
ATOM     22  F   UNL     1       1.124  13.610  19.335  0.00  0.00    +0.000 F 
ATOM     23  F   UNL     1       1.530  11.853  18.116  0.00  0.00    +0.000 F 
ATOM     24  F   UNL     1      -0.404  12.833  18.006  0.00  0.00    +0.000 F 
ENDBRANCH  17  21
ENDBRANCH  10  11
BRANCH   1  25
ATOM     25  O   UNL     1      -5.913  12.536  21.166  0.00  0.00    +0.000 OA
BRANCH  25  31
ATOM     26  O   UNL     1      -2.458  11.234  15.747  0.00  0.00    +0.000 OA
ATOM     27  C   UNL     1      -3.276  11.304  16.659  0.00  0.00    +0.000 C 
ATOM     28  C   UNL     1      -3.054  10.665  18.005  0.00  0.00    +0.000 C 
ATOM     29  C   UNL     1      -3.663  11.498  19.126  0.00  0.00    +0.000 C 
ATOM     30  C   UNL     1      -5.058  11.991  18.840  0.00  0.00    +0.000 A 
ATOM     31  C   UNL     1      -6.005  12.432  19.788  0.00  0.00    +0.000 A 
ATOM     32  C   UNL     1      -7.289  12.773  19.353  0.00  0.00    +0.000 A 
ATOM     33  C   UNL     1      -7.558  12.786  18.001  0.00  0.00    +0.000 A 
ATOM     34  N   UNL     1      -6.640  12.501  17.062  0.00  0.00    +0.000 NA
ATOM     35  C   UNL     1      -5.431  12.105  17.496  0.00  0.00    +0.000 A 
ATOM     36  N   UNL     1      -4.508  11.857  16.480  0.00  0.00    +0.000 N 
ATOM     37  H   UNL     1      -4.772  12.156  15.551  0.00  0.00    +0.000 HD
ENDBRANCH  25  31
ENDBRANCH   1  25
TORSDOF 4
ENDMDL
MODEL 8
REMARK VINA RESULT:      -8.8      2.034      2.912
REMARK  Name = 
REMARK  4 active torsions:
REMARK  status: ('A' for Active; 'I' for Inactive)
REMARK    1  A    between atoms: C_6  and  O_7
REMARK    2  A    between atoms: O_7  and  C_8
REMARK    3  A    between atoms: C_17  and  C_18
REMARK    4  A    between atoms: C_24  and  C_25
REMARK                            x       y       z     vdW  Elec       q    Type
REMARK                         _______ _______ _______ _____ _____    ______ ____
ROOT
ATOM      1  C   UNL     1       1.939   6.007  19.937  0.00  0.00    +0.000 A 
ATOM      2  C   UNL     1       2.055   5.575  21.263  0.00  0.00    +0.000 A 
ATOM      3  C   UNL     1       2.348   4.230  21.493  0.00  0.00    +0.000 A 
ATOM      4  C   UNL     1       2.374   3.393  20.394  0.00  0.00    +0.000 A 
ATOM      5  C   UNL     1       1.883   3.752  19.143  0.00  0.00    +0.000 A 
ATOM      6  C   UNL     1       1.679   5.100  18.901  0.00  0.00    +0.000 A 
ATOM      7  C   UNL     1       1.963   2.587  18.214  0.00  0.00    +0.000 C 
ATOM      8  C   UNL     1       2.759   1.596  19.026  0.00  0.00    +0.000 C 
ATOM      9  O   UNL     1       3.056   2.191  20.350  0.00  0.00    +0.000 OA
ATOM     10  C   UNL     1       3.303   2.060  17.690  0.00  0.00    +0.000 C 
ENDROOT
BRANCH  10  11
ATOM     11  C   UNL     1       4.195   3.208  17.184  0.00  0.00    +0.000 A 
ATOM     12  N   UNL     1       4.450   3.499  15.931  0.00  0.00    +0.000 NA
ATOM     13  C   UNL     1       5.484   4.399  15.943  0.00  0.00    +0.000 A 
ATOM     14  C   UNL     1       6.147   4.993  14.862  0.00  0.00    +0.000 A 
ATOM     15  C   UNL     1       7.113   5.967  15.117  0.00  0.00    +0.000 A 
ATOM     16  C   UNL     1       7.521   6.225  16.424  0.00  0.00    +0.000 A 
ATOM     17  C   UNL     1       6.992   5.524  17.533  0.00  0.00    +0.000 A 
ATOM     18  C   UNL     1       5.885   4.686  17.242  0.00  0.00    +0.000 A 
ATOM     19  N   UNL     1       4.994   3.971  18.016  0.00  0.00    +0.000 N 
ATOM     20  H   UNL     1       4.934   3.983  19.023  0.00  0.00    +0.000 HD
BRANCH  17  21
ATOM     21  C   UNL     1       7.676   5.637  18.869  0.00  0.00    +0.000 C 
ATOM     22  F   UNL     1       6.822   5.568  19.931  0.00  0.00    +0.000 F 
ATOM     23  F   UNL     1       8.618   4.683  19.079  0.00  0.00    +0.000 F 
ATOM     24  F   UNL     1       8.323   6.833  19.008  0.00  0.00    +0.000 F 
ENDBRANCH  17  21
ENDBRANCH  10  11
BRANCH   1  25
ATOM     25  O   UNL     1       2.156   7.304  19.540  0.00  0.00    +0.000 OA
BRANCH  25  31
ATOM     26  O   UNL     1      -1.166  12.822  18.307  0.00  0.00    +0.000 OA
ATOM     27  C   UNL     1      -0.745  11.740  18.703  0.00  0.00    +0.000 C 
ATOM     28  C   UNL     1      -0.802  10.487  17.869  0.00  0.00    +0.000 C 
ATOM     29  C   UNL     1       0.404   9.591  18.124  0.00  0.00    +0.000 C 
ATOM     30  C   UNL     1       0.741   9.411  19.582  0.00  0.00    +0.000 A 
ATOM     31  C   UNL     1       1.517   8.374  20.144  0.00  0.00    +0.000 A 
ATOM     32  C   UNL     1       1.656   8.312  21.533  0.00  0.00    +0.000 A 
ATOM     33  C   UNL     1       1.134   9.327  22.306  0.00  0.00    +0.000 A 
ATOM     34  N   UNL     1       0.506  10.398  21.794  0.00  0.00    +0.000 NA
ATOM     35  C   UNL     1       0.315  10.411  20.464  0.00  0.00    +0.000 A 
ATOM     36  N   UNL     1      -0.310  11.561  19.983  0.00  0.00    +0.000 N 
ATOM     37  H   UNL     1      -0.402  12.328  20.634  0.00  0.00    +0.000 HD
ENDBRANCH  25  31
ENDBRANCH   1  25
TORSDOF 4
ENDMDL
MODEL 9
REMARK VINA RESULT:      -8.8      7.368     10.515
REMARK  Name = 
REMARK  4 active torsions:
REMARK  status: ('A' for Active; 'I' for Inactive)
REMARK    1  A    between atoms: C_6  and  O_7
REMARK    2  A    between atoms: O_7  and  C_8
REMARK    3  A    between atoms: C_17  and  C_18
REMARK    4  A    between atoms: C_24  and  C_25
REMARK                            x       y       z     vdW  Elec       q    Type
REMARK                         _______ _______ _______ _____ _____    ______ ____
ROOT
ATOM      1  C   UNL     1      -2.550  10.107  17.209  0.00  0.00    +0.000 A 
ATOM      2  C   UNL     1      -2.682  10.660  15.930  0.00  0.00    +0.000 A 
ATOM      3  C   UNL     1      -3.800  11.454  15.668  0.00  0.00    +0.000 A 
ATOM      4  C   UNL     1      -4.764  11.532  16.655  0.00  0.00    +0.000 A 
ATOM      5  C   UNL     1      -4.807  10.681  17.756  0.00  0.00    +0.000 A 
ATOM      6  C   UNL     1      -3.661   9.964  18.053  0.00  0.00    +0.000 A 
ATOM      7  C   UNL     1      -6.029  10.962  18.564  0.00  0.00    +0.000 C 
ATOM      8  C   UNL     1      -6.553  12.216  17.911  0.00  0.00    +0.000 C 
ATOM      9  O   UNL     1      -5.671  12.568  16.773  0.00  0.00    +0.000 OA
ATOM     10  C   UNL     1      -6.182  12.250  19.380  0.00  0.00    +0.000 C 
ENDROOT
BRANCH  10  11
ATOM     11  C   UNL     1      -4.917  12.541  20.206  0.00  0.00    +0.000 A 
ATOM     12  N   UNL     1      -4.617  12.026  21.374  0.00  0.00    +0.000 NA
ATOM     13  C   UNL     1      -3.561  12.754  21.861  0.00  0.00    +0.000 A 
ATOM     14  C   UNL     1      -2.892  12.624  23.084  0.00  0.00    +0.000 A 
ATOM     15  C   UNL     1      -1.769  13.416  23.325  0.00  0.00    +0.000 A 
ATOM     16  C   UNL     1      -1.419  14.427  22.432  0.00  0.00    +0.000 A 
ATOM     17  C   UNL     1      -2.172  14.698  21.265  0.00  0.00    +0.000 A 
ATOM     18  C   UNL     1      -3.183  13.749  20.969  0.00  0.00    +0.000 A 
ATOM     19  N   UNL     1      -4.016  13.542  19.888  0.00  0.00    +0.000 N 
ATOM     20  H   UNL     1      -3.991  14.039  19.010  0.00  0.00    +0.000 HD
BRANCH  17  21
ATOM     21  C   UNL     1      -1.919  15.973  20.506  0.00  0.00    +0.000 C 
ATOM     22  F   UNL     1      -3.057  16.589  20.073  0.00  0.00    +0.000 F 
ATOM     23  F   UNL     1      -1.234  16.902  21.221  0.00  0.00    +0.000 F 
ATOM     24  F   UNL     1      -1.178  15.755  19.379  0.00  0.00    +0.000 F 
ENDBRANCH  17  21
ENDBRANCH  10  11
BRANCH   1  25
ATOM     25  O   UNL     1      -1.344   9.757  17.763  0.00  0.00    +0.000 OA
BRANCH  25  31
ATOM     26  O   UNL     1       0.332   9.630  24.102  0.00  0.00    +0.000 OA
ATOM     27  C   UNL     1       0.267   9.738  22.882  0.00  0.00    +0.000 C 
ATOM     28  C   UNL     1       0.282   8.550  21.955  0.00  0.00    +0.000 C 
ATOM     29  C   UNL     1      -0.592   8.787  20.730  0.00  0.00    +0.000 C 
ATOM     30  C   UNL     1      -0.403  10.139  20.090  0.00  0.00    +0.000 A 
ATOM     31  C   UNL     1      -0.754  10.501  18.771  0.00  0.00    +0.000 A 
ATOM     32  C   UNL     1      -0.425  11.779  18.312  0.00  0.00    +0.000 A 
ATOM     33  C   UNL     1       0.121  12.689  19.193  0.00  0.00    +0.000 A 
ATOM     34  N   UNL     1       0.343  12.419  20.490  0.00  0.00    +0.000 NA
ATOM     35  C   UNL     1       0.091  11.166  20.901  0.00  0.00    +0.000 A 
ATOM     36  N   UNL     1       0.306  10.952  22.263  0.00  0.00    +0.000 N 
ATOM     37  H   UNL     1       0.459  11.776  22.828  0.00  0.00    +0.000 HD
ENDBRANCH  25  31
ENDBRANCH   1  25
TORSDOF 4
ENDMDL
