MODEL 1
REMARK VINA RESULT:      -9.2      0.000      0.000
REMARK  Name = 
REMARK  11 active torsions:
REMARK  status: ('A' for Active; 'I' for Inactive)
REMARK    1  A    between atoms: C_1  and  C_2
REMARK    2  A    between atoms: C_5  and  C_6
REMARK    3  A    between atoms: N_8  and  S_9
REMARK    4  A    between atoms: S_9  and  C_12
REMARK    5  A    between atoms: C_15  and  C_16
REMARK    6  A    between atoms: C_16  and  C_17
REMARK    7  A    between atoms: C_17  and  C_18
REMARK    8  A    between atoms: C_17  and  C_19
REMARK    9  A    between atoms: C_21  and  C_22
REMARK   10  A    between atoms: C_25  and  C_26
REMARK   11  A    between atoms: C_26  and  N_27
REMARK                            x       y       z     vdW  Elec       q    Type
REMARK                         _______ _______ _______ _____ _____    ______ ____
ROOT
ATOM      1  C   UNL     1       5.466   4.592  17.184  0.00  0.00    +0.000 A 
ATOM      2  C   UNL     1       5.019   3.493  16.427  0.00  0.00    +0.000 A 
ATOM      3  C   UNL     1       5.430   3.300  15.108  0.00  0.00    +0.000 A 
ATOM      4  C   UNL     1       6.282   4.211  14.496  0.00  0.00    +0.000 A 
ATOM      5  C   UNL     1       6.727   5.308  15.251  0.00  0.00    +0.000 A 
ATOM      6  C   UNL     1       6.390   5.512  16.619  0.00  0.00    +0.000 A 
ENDROOT
BRANCH   6   7
ATOM      7  C   UNL     1       7.095   6.629  17.320  0.00  0.00    +0.000 A 
ATOM      8  C   UNL     1       7.899   6.444  18.445  0.00  0.00    +0.000 A 
ATOM      9  C   UNL     1       8.603   7.491  19.043  0.00  0.00    +0.000 A 
ATOM     10  C   UNL     1       8.448   8.801  18.590  0.00  0.00    +0.000 A 
ATOM     11  C   UNL     1       7.592   9.036  17.515  0.00  0.00    +0.000 A 
ATOM     12  C   UNL     1       6.943   7.966  16.884  0.00  0.00    +0.000 A 
BRANCH  10  13
ATOM     13  C   UNL     1       9.175   9.920  19.283  0.00  0.00    +0.000 C 
BRANCH  13  14
ATOM     14  N   UNL     1       9.493  11.058  18.437  0.00  0.00    +0.000 N 
ATOM     15  C   UNL     1      10.641  11.352  17.765  0.00  0.00    +0.000 A 
ATOM     16  N   UNL     1      10.598  12.596  17.342  0.00  0.00    +0.000 NA
ATOM     17  C   UNL     1       9.380  13.027  17.777  0.00  0.00    +0.000 A 
ATOM     18  N   UNL     1       8.653  12.117  18.429  0.00  0.00    +0.000 NA
ENDBRANCH  13  14
ENDBRANCH  10  13
ENDBRANCH   6   7
BRANCH   1  19
ATOM     19  S   UNL     1       4.868   4.723  18.871  0.00  0.00    +0.000 S 
ATOM     20  O   UNL     1       5.982   4.833  19.782  0.00  0.00    +0.000 OA
ATOM     21  O   UNL     1       3.851   3.702  19.040  0.00  0.00    +0.000 OA
BRANCH  19  24
ATOM     22  C   UNL     1       2.837   6.291  19.745  0.00  0.00    +0.000 C 
ATOM     23  O   UNL     1       2.461   5.429  20.527  0.00  0.00    +0.000 OA
ATOM     24  N   UNL     1       4.017   6.163  18.998  0.00  0.00    +0.000 N 
ATOM     25  H   UNL     1       4.294   6.813  18.268  0.00  0.00    +0.000 HD
BRANCH  22  30
ATOM     26  C   UNL     1      -0.427  11.025  19.009  0.00  0.00    +0.000 C 
ATOM     27  C   UNL     1       0.528   9.898  19.264  0.00  0.00    +0.000 A 
ATOM     28  C   UNL     1       1.284   9.370  18.216  0.00  0.00    +0.000 A 
ATOM     29  C   UNL     1       2.068   8.231  18.420  0.00  0.00    +0.000 A 
ATOM     30  C   UNL     1       2.098   7.591  19.667  0.00  0.00    +0.000 A 
ATOM     31  C   UNL     1       1.383   8.149  20.732  0.00  0.00    +0.000 A 
ATOM     32  C   UNL     1       0.602   9.294  20.527  0.00  0.00    +0.000 A 
ENDBRANCH  22  30
ENDBRANCH  19  24
ENDBRANCH   1  19
BRANCH   4  33
ATOM     33  C   UNL     1       6.692   4.031  13.050  0.00  0.00    +0.000 C 
BRANCH  33  34
ATOM     34  C   UNL     1       6.024   2.849  12.314  0.00  0.00    +0.000 C 
ATOM     35  C   UNL     1       4.749   3.266  11.578  0.00  0.00    +0.000 C 
ATOM     36  C   UNL     1       7.008   2.233  11.313  0.00  0.00    +0.000 C 
ENDBRANCH  33  34
ENDBRANCH   4  33
TORSDOF 8
ENDMDL
MODEL 2
REMARK VINA RESULT:      -8.9      0.723      1.189
REMARK  Name = 
REMARK  11 active torsions:
REMARK  status: ('A' for Active; 'I' for Inactive)
REMARK    1  A    between atoms: C_1  and  C_2
REMARK    2  A    between atoms: C_5  and  C_6
REMARK    3  A    between atoms: N_8  and  S_9
REMARK    4  A    between atoms: S_9  and  C_12
REMARK    5  A    between atoms: C_15  and  C_16
REMARK    6  A    between atoms: C_16  and  C_17
REMARK    7  A    between atoms: C_17  and  C_18
REMARK    8  A    between atoms: C_17  and  C_19
REMARK    9  A    between atoms: C_21  and  C_22
REMARK   10  A    between atoms: C_25  and  C_26
REMARK   11  A    between atoms: C_26  and  N_27
REMARK                            x       y       z     vdW  Elec       q    Type
REMARK                         _______ _______ _______ _____ _____    ______ ____
ROOT
ATOM      1  C   UNL     1       5.743   4.720  17.405  0.00  0.00    +0.000 A 
ATOM      2  C   UNL     1       5.295   3.623  16.645  0.00  0.00    +0.000 A 
ATOM      3  C   UNL     1       5.583   3.511  15.284  0.00  0.00    +0.000 A 
ATOM      4  C   UNL     1       6.310   4.503  14.636  0.00  0.00    +0.000 A 
ATOM      5  C   UNL     1       6.756   5.597  15.394  0.00  0.00    +0.000 A 
ATOM      6  C   UNL     1       6.545   5.722  16.796  0.00  0.00    +0.000 A 
ENDROOT
BRANCH   6   7
ATOM      7  C   UNL     1       7.244   6.856  17.477  0.00  0.00    +0.000 A 
ATOM      8  C   UNL     1       7.147   8.182  17.056  0.00  0.00    +0.000 A 
ATOM      9  C   UNL     1       7.754   9.233  17.747  0.00  0.00    +0.000 A 
ATOM     10  C   UNL     1       8.573   8.982  18.847  0.00  0.00    +0.000 A 
ATOM     11  C   UNL     1       8.756   7.659  19.252  0.00  0.00    +0.000 A 
ATOM     12  C   UNL     1       8.089   6.621  18.587  0.00  0.00    +0.000 A 
BRANCH  10  13
ATOM     13  C   UNL     1       9.258  10.125  19.544  0.00  0.00    +0.000 C 
BRANCH  13  14
ATOM     14  N   UNL     1       9.577  11.257  18.691  0.00  0.00    +0.000 N 
ATOM     15  C   UNL     1       8.763  12.222  18.181  0.00  0.00    +0.000 A 
ATOM     16  N   UNL     1       9.406  12.897  17.253  0.00  0.00    +0.000 NA
ATOM     17  C   UNL     1      10.634  12.304  17.238  0.00  0.00    +0.000 A 
ATOM     18  N   UNL     1      10.800  11.314  18.117  0.00  0.00    +0.000 NA
ENDBRANCH  13  14
ENDBRANCH  10  13
ENDBRANCH   6   7
BRANCH   1  19
ATOM     19  S   UNL     1       5.311   4.742  19.147  0.00  0.00    +0.000 S 
ATOM     20  O   UNL     1       6.493   4.955  19.946  0.00  0.00    +0.000 OA
ATOM     21  O   UNL     1       4.435   3.609  19.380  0.00  0.00    +0.000 OA
BRANCH  19  24
ATOM     22  C   UNL     1       3.115   6.274  18.724  0.00  0.00    +0.000 C 
ATOM     23  O   UNL     1       2.589   5.397  18.053  0.00  0.00    +0.000 OA
ATOM     24  N   UNL     1       4.324   6.073  19.407  0.00  0.00    +0.000 N 
ATOM     25  H   UNL     1       4.831   6.814  19.881  0.00  0.00    +0.000 HD
BRANCH  22  30
ATOM     26  C   UNL     1      -0.111  11.075  19.121  0.00  0.00    +0.000 C 
ATOM     27  C   UNL     1       0.840   9.915  19.094  0.00  0.00    +0.000 A 
ATOM     28  C   UNL     1       1.522   9.597  17.918  0.00  0.00    +0.000 A 
ATOM     29  C   UNL     1       2.298   8.437  17.849  0.00  0.00    +0.000 A 
ATOM     30  C   UNL     1       2.394   7.567  18.945  0.00  0.00    +0.000 A 
ATOM     31  C   UNL     1       1.755   7.912  20.141  0.00  0.00    +0.000 A 
ATOM     32  C   UNL     1       0.981   9.079  20.210  0.00  0.00    +0.000 A 
ENDBRANCH  22  30
ENDBRANCH  19  24
ENDBRANCH   1  19
BRANCH   4  33
ATOM     33  C   UNL     1       6.583   4.409  13.150  0.00  0.00    +0.000 C 
BRANCH  33  34
ATOM     34  C   UNL     1       6.017   3.154  12.450  0.00  0.00    +0.000 C 
ATOM     35  C   UNL     1       4.700   3.436  11.723  0.00  0.00    +0.000 C 
ATOM     36  C   UNL     1       7.041   2.608  11.448  0.00  0.00    +0.000 C 
ENDBRANCH  33  34
ENDBRANCH   4  33
TORSDOF 8
ENDMDL
MODEL 3
REMARK VINA RESULT:      -8.5      5.499     10.579
REMARK  Name = 
REMARK  11 active torsions:
REMARK  status: ('A' for Active; 'I' for Inactive)
REMARK    1  A    between atoms: C_1  and  C_2
REMARK    2  A    between atoms: C_5  and  C_6
REMARK    3  A    between atoms: N_8  and  S_9
REMARK    4  A    between atoms: S_9  and  C_12
REMARK    5  A    between atoms: C_15  and  C_16
REMARK    6  A    between atoms: C_16  and  C_17
REMARK    7  A    between atoms: C_17  and  C_18
REMARK    8  A    between atoms: C_17  and  C_19
REMARK    9  A    between atoms: C_21  and  C_22
REMARK   10  A    between atoms: C_25  and  C_26
REMARK   11  A    between atoms: C_26  and  N_27
REMARK                            x       y       z     vdW  Elec       q    Type
REMARK                         _______ _______ _______ _____ _____    ______ ____
ROOT
ATOM      1  C   UNL     1      -0.667  10.696  18.614  0.00  0.00    +0.000 A 
ATOM      2  C   UNL     1      -1.108   9.883  17.553  0.00  0.00    +0.000 A 
ATOM      3  C   UNL     1      -2.386  10.021  17.009  0.00  0.00    +0.000 A 
ATOM      4  C   UNL     1      -3.271  10.961  17.525  0.00  0.00    +0.000 A 
ATOM      5  C   UNL     1      -2.832  11.771  18.583  0.00  0.00    +0.000 A 
ATOM      6  C   UNL     1      -1.516  11.714  19.125  0.00  0.00    +0.000 A 
ENDROOT
BRANCH   6   7
ATOM      7  C   UNL     1      -1.160  12.770  20.123  0.00  0.00    +0.000 A 
ATOM      8  C   UNL     1      -1.248  12.585  21.502  0.00  0.00    +0.000 A 
ATOM      9  C   UNL     1      -0.846  13.561  22.416  0.00  0.00    +0.000 A 
ATOM     10  C   UNL     1      -0.424  14.816  21.976  0.00  0.00    +0.000 A 
ATOM     11  C   UNL     1      -0.395  15.064  20.604  0.00  0.00    +0.000 A 
ATOM     12  C   UNL     1      -0.740  14.053  19.697  0.00  0.00    +0.000 A 
BRANCH  10  13
ATOM     13  C   UNL     1      -0.045  15.870  22.979  0.00  0.00    +0.000 C 
BRANCH  13  14
ATOM     14  N   UNL     1      -0.921  15.957  24.135  0.00  0.00    +0.000 N 
ATOM     15  C   UNL     1      -2.136  16.559  24.266  0.00  0.00    +0.000 A 
ATOM     16  N   UNL     1      -2.458  16.629  25.539  0.00  0.00    +0.000 NA
ATOM     17  C   UNL     1      -1.397  16.037  26.157  0.00  0.00    +0.000 A 
ATOM     18  N   UNL     1      -0.442  15.584  25.343  0.00  0.00    +0.000 NA
ENDBRANCH  13  14
ENDBRANCH  10  13
ENDBRANCH   6   7
BRANCH   1  19
ATOM     19  S   UNL     1       1.001  10.423  19.218  0.00  0.00    +0.000 S 
ATOM     20  O   UNL     1       0.968  10.082  20.620  0.00  0.00    +0.000 OA
ATOM     21  O   UNL     1       1.814  11.519  18.725  0.00  0.00    +0.000 OA
BRANCH  19  24
ATOM     22  C   UNL     1       2.097   7.947  19.097  0.00  0.00    +0.000 C 
ATOM     23  O   UNL     1       1.910   7.767  20.293  0.00  0.00    +0.000 OA
ATOM     24  N   UNL     1       1.614   9.079  18.424  0.00  0.00    +0.000 N 
ATOM     25  H   UNL     1       1.845   9.301  17.460  0.00  0.00    +0.000 HD
BRANCH  22  30
ATOM     26  C   UNL     1       5.142   3.874  16.313  0.00  0.00    +0.000 C 
ATOM     27  C   UNL     1       4.253   4.925  16.908  0.00  0.00    +0.000 A 
ATOM     28  C   UNL     1       4.629   6.269  16.862  0.00  0.00    +0.000 A 
ATOM     29  C   UNL     1       3.876   7.232  17.537  0.00  0.00    +0.000 A 
ATOM     30  C   UNL     1       2.744   6.871  18.282  0.00  0.00    +0.000 A 
ATOM     31  C   UNL     1       2.335   5.534  18.285  0.00  0.00    +0.000 A 
ATOM     32  C   UNL     1       3.089   4.569  17.603  0.00  0.00    +0.000 A 
ENDBRANCH  22  30
ENDBRANCH  19  24
ENDBRANCH   1  19
BRANCH   4  33
ATOM     33  C   UNL     1      -4.674  11.080  16.970  0.00  0.00    +0.000 C 
BRANCH  33  34
ATOM     34  C   UNL     1      -5.697  11.771  17.898  0.00  0.00    +0.000 C 
ATOM     35  C   UNL     1      -6.546  12.809  17.160  0.00  0.00    +0.000 C 
ATOM     36  C   UNL     1      -6.619  10.724  18.533  0.00  0.00    +0.000 C 
ENDBRANCH  33  34
ENDBRANCH   4  33
TORSDOF 8
ENDMDL
MODEL 4
REMARK VINA RESULT:      -8.4      3.554      6.197
REMARK  Name = 
REMARK  11 active torsions:
REMARK  status: ('A' for Active; 'I' for Inactive)
REMARK    1  A    between atoms: C_1  and  C_2
REMARK    2  A    between atoms: C_5  and  C_6
REMARK    3  A    between atoms: N_8  and  S_9
REMARK    4  A    between atoms: S_9  and  C_12
REMARK    5  A    between atoms: C_15  and  C_16
REMARK    6  A    between atoms: C_16  and  C_17
REMARK    7  A    between atoms: C_17  and  C_18
REMARK    8  A    between atoms: C_17  and  C_19
REMARK    9  A    between atoms: C_21  and  C_22
REMARK   10  A    between atoms: C_25  and  C_26
REMARK   11  A    between atoms: C_26  and  N_27
REMARK                            x       y       z     vdW  Elec       q    Type
REMARK                         _______ _______ _______ _____ _____    ______ ____
ROOT
ATOM      1  C   UNL     1       6.689   4.944  16.016  0.00  0.00    +0.000 A 
ATOM      2  C   UNL     1       7.592   5.367  15.023  0.00  0.00    +0.000 A 
ATOM      3  C   UNL     1       7.496   4.913  13.707  0.00  0.00    +0.000 A 
ATOM      4  C   UNL     1       6.506   4.006  13.347  0.00  0.00    +0.000 A 
ATOM      5  C   UNL     1       5.605   3.584  14.337  0.00  0.00    +0.000 A 
ATOM      6  C   UNL     1       5.622   4.069  15.675  0.00  0.00    +0.000 A 
ENDROOT
BRANCH   6   7
ATOM      7  C   UNL     1       4.481   3.654  16.549  0.00  0.00    +0.000 A 
ATOM      8  C   UNL     1       4.584   2.669  17.531  0.00  0.00    +0.000 A 
ATOM      9  C   UNL     1       3.525   2.345  18.381  0.00  0.00    +0.000 A 
ATOM     10  C   UNL     1       2.273   2.936  18.213  0.00  0.00    +0.000 A 
ATOM     11  C   UNL     1       2.110   3.871  17.191  0.00  0.00    +0.000 A 
ATOM     12  C   UNL     1       3.200   4.233  16.388  0.00  0.00    +0.000 A 
BRANCH  10  13
ATOM     13  C   UNL     1       1.132   2.534  19.106  0.00  0.00    +0.000 C 
BRANCH  13  14
ATOM     14  N   UNL     1       1.333   2.814  20.518  0.00  0.00    +0.000 N 
ATOM     15  C   UNL     1       1.688   3.976  21.135  0.00  0.00    +0.000 A 
ATOM     16  N   UNL     1       2.016   3.728  22.385  0.00  0.00    +0.000 NA
ATOM     17  C   UNL     1       1.833   2.381  22.489  0.00  0.00    +0.000 A 
ATOM     18  N   UNL     1       1.390   1.778  21.384  0.00  0.00    +0.000 NA
ENDBRANCH  13  14
ENDBRANCH  10  13
ENDBRANCH   6   7
BRANCH   1  19
ATOM     19  S   UNL     1       6.917   5.605  17.668  0.00  0.00    +0.000 S 
ATOM     20  O   UNL     1       7.783   6.758  17.623  0.00  0.00    +0.000 OA
ATOM     21  O   UNL     1       7.202   4.479  18.539  0.00  0.00    +0.000 OA
BRANCH  19  24
ATOM     22  C   UNL     1       4.630   7.045  17.462  0.00  0.00    +0.000 C 
ATOM     23  O   UNL     1       4.858   7.307  16.289  0.00  0.00    +0.000 OA
ATOM     24  N   UNL     1       5.427   6.160  18.203  0.00  0.00    +0.000 N 
ATOM     25  H   UNL     1       5.321   6.009  19.201  0.00  0.00    +0.000 HD
BRANCH  22  30
ATOM     26  C   UNL     1       0.199   9.266  20.471  0.00  0.00    +0.000 C 
ATOM     27  C   UNL     1       1.235   8.616  19.603  0.00  0.00    +0.000 A 
ATOM     28  C   UNL     1       1.940   7.504  20.067  0.00  0.00    +0.000 A 
ATOM     29  C   UNL     1       3.001   6.984  19.321  0.00  0.00    +0.000 A 
ATOM     30  C   UNL     1       3.386   7.572  18.107  0.00  0.00    +0.000 A 
ATOM     31  C   UNL     1       2.647   8.653  17.615  0.00  0.00    +0.000 A 
ATOM     32  C   UNL     1       1.580   9.170  18.362  0.00  0.00    +0.000 A 
ENDBRANCH  22  30
ENDBRANCH  19  24
ENDBRANCH   1  19
BRANCH   4  33
ATOM     33  C   UNL     1       6.428   3.475  11.931  0.00  0.00    +0.000 C 
BRANCH  33  34
ATOM     34  C   UNL     1       5.366   2.380  11.692  0.00  0.00    +0.000 C 
ATOM     35  C   UNL     1       4.149   2.907  10.927  0.00  0.00    +0.000 C 
ATOM     36  C   UNL     1       5.984   1.212  10.916  0.00  0.00    +0.000 C 
ENDBRANCH  33  34
ENDBRANCH   4  33
TORSDOF 8
ENDMDL
MODEL 5
REMARK VINA RESULT:      -8.3      0.632      1.119
REMARK  Name = 
REMARK  11 active torsions:
REMARK  status: ('A' for Active; 'I' for Inactive)
REMARK    1  A    between atoms: C_1  and  C_2
REMARK    2  A    between atoms: C_5  and  C_6
REMARK    3  A    between atoms: N_8  and  S_9
REMARK    4  A    between atoms: S_9  and  C_12
REMARK    5  A    between atoms: C_15  and  C_16
REMARK    6  A    between atoms: C_16  and  C_17
REMARK    7  A    between atoms: C_17  and  C_18
REMARK    8  A    between atoms: C_17  and  C_19
REMARK    9  A    between atoms: C_21  and  C_22
REMARK   10  A    between atoms: C_25  and  C_26
REMARK   11  A    between atoms: C_26  and  N_27
REMARK                            x       y       z     vdW  Elec       q    Type
REMARK                         _______ _______ _______ _____ _____    ______ ____
ROOT
ATOM      1  C   UNL     1       5.165   4.800  17.046  0.00  0.00    +0.000 A 
ATOM      2  C   UNL     1       4.671   3.739  16.263  0.00  0.00    +0.000 A 
ATOM      3  C   UNL     1       5.173   3.479  14.986  0.00  0.00    +0.000 A 
ATOM      4  C   UNL     1       6.167   4.284  14.445  0.00  0.00    +0.000 A 
ATOM      5  C   UNL     1       6.659   5.342  15.225  0.00  0.00    +0.000 A 
ATOM      6  C   UNL     1       6.228   5.605  16.556  0.00  0.00    +0.000 A 
ENDROOT
BRANCH   6   7
ATOM      7  C   UNL     1       6.984   6.655  17.307  0.00  0.00    +0.000 A 
ATOM      8  C   UNL     1       7.823   6.374  18.385  0.00  0.00    +0.000 A 
ATOM      9  C   UNL     1       8.572   7.361  19.028  0.00  0.00    +0.000 A 
ATOM     10  C   UNL     1       8.434   8.703  18.673  0.00  0.00    +0.000 A 
ATOM     11  C   UNL     1       7.547   9.031  17.648  0.00  0.00    +0.000 A 
ATOM     12  C   UNL     1       6.850   8.022  16.969  0.00  0.00    +0.000 A 
BRANCH  10  13
ATOM     13  C   UNL     1       9.212   9.754  19.414  0.00  0.00    +0.000 C 
BRANCH  13  14
ATOM     14  N   UNL     1       9.452  10.977  18.667  0.00  0.00    +0.000 N 
ATOM     15  C   UNL     1       8.570  11.807  18.045  0.00  0.00    +0.000 A 
ATOM     16  N   UNL     1       9.224  12.644  17.269  0.00  0.00    +0.000 NA
ATOM     17  C   UNL     1      10.526  12.287  17.461  0.00  0.00    +0.000 A 
ATOM     18  N   UNL     1      10.722  11.291  18.327  0.00  0.00    +0.000 NA
ENDBRANCH  13  14
ENDBRANCH  10  13
ENDBRANCH   6   7
BRANCH   1  19
ATOM     19  S   UNL     1       4.440   5.025  18.672  0.00  0.00    +0.000 S 
ATOM     20  O   UNL     1       5.481   5.134  19.665  0.00  0.00    +0.000 OA
ATOM     21  O   UNL     1       3.374   4.048  18.799  0.00  0.00    +0.000 OA
BRANCH  19  24
ATOM     22  C   UNL     1       2.605   6.807  19.567  0.00  0.00    +0.000 C 
ATOM     23  O   UNL     1       2.358   6.116  20.546  0.00  0.00    +0.000 OA
ATOM     24  N   UNL     1       3.638   6.498  18.670  0.00  0.00    +0.000 N 
ATOM     25  H   UNL     1       3.793   6.994  17.798  0.00  0.00    +0.000 HD
BRANCH  22  30
ATOM     26  C   UNL     1       0.183  12.068  19.296  0.00  0.00    +0.000 C 
ATOM     27  C   UNL     1       0.679  10.652  19.288  0.00  0.00    +0.000 A 
ATOM     28  C   UNL     1       0.584   9.870  20.440  0.00  0.00    +0.000 A 
ATOM     29  C   UNL     1       1.171   8.603  20.479  0.00  0.00    +0.000 A 
ATOM     30  C   UNL     1       1.877   8.101  19.375  0.00  0.00    +0.000 A 
ATOM     31  C   UNL     1       1.928   8.861  18.203  0.00  0.00    +0.000 A 
ATOM     32  C   UNL     1       1.334  10.130  18.164  0.00  0.00    +0.000 A 
ENDBRANCH  22  30
ENDBRANCH  19  24
ENDBRANCH   1  19
BRANCH   4  33
ATOM     33  C   UNL     1       6.679   4.035  13.042  0.00  0.00    +0.000 C 
BRANCH  33  34
ATOM     34  C   UNL     1       5.986   2.885  12.278  0.00  0.00    +0.000 C 
ATOM     35  C   UNL     1       4.763   3.363  11.491  0.00  0.00    +0.000 C 
ATOM     36  C   UNL     1       6.980   2.223  11.316  0.00  0.00    +0.000 C 
ENDBRANCH  33  34
ENDBRANCH   4  33
TORSDOF 8
ENDMDL
MODEL 6
REMARK VINA RESULT:      -8.3      0.836      1.424
REMARK  Name = 
REMARK  11 active torsions:
REMARK  status: ('A' for Active; 'I' for Inactive)
REMARK    1  A    between atoms: C_1  and  C_2
REMARK    2  A    between atoms: C_5  and  C_6
REMARK    3  A    between atoms: N_8  and  S_9
REMARK    4  A    between atoms: S_9  and  C_12
REMARK    5  A    between atoms: C_15  and  C_16
REMARK    6  A    between atoms: C_16  and  C_17
REMARK    7  A    between atoms: C_17  and  C_18
REMARK    8  A    between atoms: C_17  and  C_19
REMARK    9  A    between atoms: C_21  and  C_22
REMARK   10  A    between atoms: C_25  and  C_26
REMARK   11  A    between atoms: C_26  and  N_27
REMARK                            x       y       z     vdW  Elec       q    Type
REMARK                         _______ _______ _______ _____ _____    ______ ____
ROOT
ATOM      1  C   UNL     1       5.551   4.664  17.385  0.00  0.00    +0.000 A 
ATOM      2  C   UNL     1       5.067   3.572  16.639  0.00  0.00    +0.000 A 
ATOM      3  C   UNL     1       5.375   3.418  15.287  0.00  0.00    +0.000 A 
ATOM      4  C   UNL     1       6.158   4.361  14.632  0.00  0.00    +0.000 A 
ATOM      5  C   UNL     1       6.640   5.450  15.375  0.00  0.00    +0.000 A 
ATOM      6  C   UNL     1       6.409   5.615  16.770  0.00  0.00    +0.000 A 
ENDROOT
BRANCH   6   7
ATOM      7  C   UNL     1       7.146   6.731  17.440  0.00  0.00    +0.000 A 
ATOM      8  C   UNL     1       7.078   8.059  17.019  0.00  0.00    +0.000 A 
ATOM      9  C   UNL     1       7.720   9.095  17.701  0.00  0.00    +0.000 A 
ATOM     10  C   UNL     1       8.548   8.823  18.790  0.00  0.00    +0.000 A 
ATOM     11  C   UNL     1       8.702   7.496  19.193  0.00  0.00    +0.000 A 
ATOM     12  C   UNL     1       8.000   6.475  18.539  0.00  0.00    +0.000 A 
BRANCH  10  13
ATOM     13  C   UNL     1       9.271   9.948  19.476  0.00  0.00    +0.000 C 
BRANCH  13  14
ATOM     14  N   UNL     1       8.978  11.272  18.954  0.00  0.00    +0.000 N 
ATOM     15  C   UNL     1       8.853  11.694  17.665  0.00  0.00    +0.000 A 
ATOM     16  N   UNL     1       8.849  13.009  17.630  0.00  0.00    +0.000 NA
ATOM     17  C   UNL     1       8.965  13.351  18.945  0.00  0.00    +0.000 A 
ATOM     18  N   UNL     1       9.020  12.327  19.798  0.00  0.00    +0.000 NA
ENDBRANCH  13  14
ENDBRANCH  10  13
ENDBRANCH   6   7
BRANCH   1  19
ATOM     19  S   UNL     1       5.088   4.744  19.117  0.00  0.00    +0.000 S 
ATOM     20  O   UNL     1       6.260   4.955  19.931  0.00  0.00    +0.000 OA
ATOM     21  O   UNL     1       4.185   3.635  19.365  0.00  0.00    +0.000 OA
BRANCH  19  24
ATOM     22  C   UNL     1       2.943   6.317  18.597  0.00  0.00    +0.000 C 
ATOM     23  O   UNL     1       2.418   5.440  17.924  0.00  0.00    +0.000 OA
ATOM     24  N   UNL     1       4.124   6.102  19.322  0.00  0.00    +0.000 N 
ATOM     25  H   UNL     1       4.634   6.839  19.799  0.00  0.00    +0.000 HD
BRANCH  22  30
ATOM     26  C   UNL     1       0.684  11.530  19.753  0.00  0.00    +0.000 C 
ATOM     27  C   UNL     1       1.131  10.149  19.377  0.00  0.00    +0.000 A 
ATOM     28  C   UNL     1       1.106   9.123  20.323  0.00  0.00    +0.000 A 
ATOM     29  C   UNL     1       1.652   7.873  20.019  0.00  0.00    +0.000 A 
ATOM     30  C   UNL     1       2.246   7.630  18.772  0.00  0.00    +0.000 A 
ATOM     31  C   UNL     1       2.224   8.640  17.804  0.00  0.00    +0.000 A 
ATOM     32  C   UNL     1       1.671   9.891  18.109  0.00  0.00    +0.000 A 
ENDBRANCH  22  30
ENDBRANCH  19  24
ENDBRANCH   1  19
BRANCH   4  33
ATOM     33  C   UNL     1       6.453   4.222  13.154  0.00  0.00    +0.000 C 
BRANCH  33  34
ATOM     34  C   UNL     1       5.762   3.035  12.448  0.00  0.00    +0.000 C 
ATOM     35  C   UNL     1       4.527   3.468  11.655  0.00  0.00    +0.000 C 
ATOM     36  C   UNL     1       6.751   2.340  11.505  0.00  0.00    +0.000 C 
ENDBRANCH  33  34
ENDBRANCH   4  33
TORSDOF 8
ENDMDL
MODEL 7
REMARK VINA RESULT:      -8.3      5.689     10.852
REMARK  Name = 
REMARK  11 active torsions:
REMARK  status: ('A' for Active; 'I' for Inactive)
REMARK    1  A    between atoms: C_1  and  C_2
REMARK    2  A    between atoms: C_5  and  C_6
REMARK    3  A    between atoms: N_8  and  S_9
REMARK    4  A    between atoms: S_9  and  C_12
REMARK    5  A    between atoms: C_15  and  C_16
REMARK    6  A    between atoms: C_16  and  C_17
REMARK    7  A    between atoms: C_17  and  C_18
REMARK    8  A    between atoms: C_17  and  C_19
REMARK    9  A    between atoms: C_21  and  C_22
REMARK   10  A    between atoms: C_25  and  C_26
REMARK   11  A    between atoms: C_26  and  N_27
REMARK                            x       y       z     vdW  Elec       q    Type
REMARK                         _______ _______ _______ _____ _____    ______ ____
ROOT
ATOM      1  C   UNL     1      -0.715  10.747  18.724  0.00  0.00    +0.000 A 
ATOM      2  C   UNL     1      -1.084  10.037  17.566  0.00  0.00    +0.000 A 
ATOM      3  C   UNL     1      -2.355  10.167  17.004  0.00  0.00    +0.000 A 
ATOM      4  C   UNL     1      -3.303  10.994  17.595  0.00  0.00    +0.000 A 
ATOM      5  C   UNL     1      -2.936  11.701  18.750  0.00  0.00    +0.000 A 
ATOM      6  C   UNL     1      -1.632  11.653  19.321  0.00  0.00    +0.000 A 
ENDROOT
BRANCH   6   7
ATOM      7  C   UNL     1      -1.359  12.607  20.441  0.00  0.00    +0.000 A 
ATOM      8  C   UNL     1      -0.731  13.840  20.264  0.00  0.00    +0.000 A 
ATOM      9  C   UNL     1      -0.547  14.744  21.312  0.00  0.00    +0.000 A 
ATOM     10  C   UNL     1      -0.904  14.402  22.616  0.00  0.00    +0.000 A 
ATOM     11  C   UNL     1      -1.465  13.146  22.844  0.00  0.00    +0.000 A 
ATOM     12  C   UNL     1      -1.703  12.275  21.772  0.00  0.00    +0.000 A 
BRANCH  10  13
ATOM     13  C   UNL     1      -0.649  15.370  23.737  0.00  0.00    +0.000 C 
BRANCH  13  14
ATOM     14  N   UNL     1      -1.828  16.066  24.224  0.00  0.00    +0.000 N 
ATOM     15  C   UNL     1      -2.629  15.786  25.290  0.00  0.00    +0.000 A 
ATOM     16  N   UNL     1      -3.728  16.505  25.216  0.00  0.00    +0.000 NA
ATOM     17  C   UNL     1      -3.545  17.229  24.076  0.00  0.00    +0.000 A 
ATOM     18  N   UNL     1      -2.388  17.018  23.445  0.00  0.00    +0.000 NA
ENDBRANCH  13  14
ENDBRANCH  10  13
ENDBRANCH   6   7
BRANCH   1  19
ATOM     19  S   UNL     1       0.951  10.496  19.344  0.00  0.00    +0.000 S 
ATOM     20  O   UNL     1       0.908  10.118  20.735  0.00  0.00    +0.000 OA
ATOM     21  O   UNL     1       1.744  11.624  18.891  0.00  0.00    +0.000 OA
BRANCH  19  24
ATOM     22  C   UNL     1       1.989   7.999  19.160  0.00  0.00    +0.000 C 
ATOM     23  O   UNL     1       1.678   7.747  20.316  0.00  0.00    +0.000 OA
ATOM     24  N   UNL     1       1.606   9.189  18.522  0.00  0.00    +0.000 N 
ATOM     25  H   UNL     1       1.939   9.467  17.604  0.00  0.00    +0.000 HD
BRANCH  22  30
ATOM     26  C   UNL     1       5.231   4.106  16.343  0.00  0.00    +0.000 C 
ATOM     27  C   UNL     1       4.289   5.103  16.948  0.00  0.00    +0.000 A 
ATOM     28  C   UNL     1       4.574   6.467  16.880  0.00  0.00    +0.000 A 
ATOM     29  C   UNL     1       3.775   7.387  17.564  0.00  0.00    +0.000 A 
ATOM     30  C   UNL     1       2.686   6.960  18.339  0.00  0.00    +0.000 A 
ATOM     31  C   UNL     1       2.367   5.598  18.365  0.00  0.00    +0.000 A 
ATOM     32  C   UNL     1       3.168   4.678  17.675  0.00  0.00    +0.000 A 
ENDBRANCH  22  30
ENDBRANCH  19  24
ENDBRANCH   1  19
BRANCH   4  33
ATOM     33  C   UNL     1      -4.698  11.100  17.016  0.00  0.00    +0.000 C 
BRANCH  33  34
ATOM     34  C   UNL     1      -5.721  11.864  17.886  0.00  0.00    +0.000 C 
ATOM     35  C   UNL     1      -6.377  13.022  17.131  0.00  0.00    +0.000 C 
ATOM     36  C   UNL     1      -6.807  10.903  18.381  0.00  0.00    +0.000 C 
ENDBRANCH  33  34
ENDBRANCH   4  33
TORSDOF 8
ENDMDL
MODEL 8
REMARK VINA RESULT:      -8.3      2.299      6.087
REMARK  Name = 
REMARK  11 active torsions:
REMARK  status: ('A' for Active; 'I' for Inactive)
REMARK    1  A    between atoms: C_1  and  C_2
REMARK    2  A    between atoms: C_5  and  C_6
REMARK    3  A    between atoms: N_8  and  S_9
REMARK    4  A    between atoms: S_9  and  C_12
REMARK    5  A    between atoms: C_15  and  C_16
REMARK    6  A    between atoms: C_16  and  C_17
REMARK    7  A    between atoms: C_17  and  C_18
REMARK    8  A    between atoms: C_17  and  C_19
REMARK    9  A    between atoms: C_21  and  C_22
REMARK   10  A    between atoms: C_25  and  C_26
REMARK   11  A    between atoms: C_26  and  N_27
REMARK                            x       y       z     vdW  Elec       q    Type
REMARK                         _______ _______ _______ _____ _____    ______ ____
ROOT
ATOM      1  C   UNL     1       6.492   5.044  17.209  0.00  0.00    +0.000 A 
ATOM      2  C   UNL     1       7.364   4.453  16.275  0.00  0.00    +0.000 A 
ATOM      3  C   UNL     1       6.945   4.140  14.981  0.00  0.00    +0.000 A 
ATOM      4  C   UNL     1       5.635   4.388  14.588  0.00  0.00    +0.000 A 
ATOM      5  C   UNL     1       4.766   4.976  15.518  0.00  0.00    +0.000 A 
ATOM      6  C   UNL     1       5.164   5.374  16.826  0.00  0.00    +0.000 A 
ENDROOT
BRANCH   6   7
ATOM      7  C   UNL     1       4.163   6.151  17.621  0.00  0.00    +0.000 A 
ATOM      8  C   UNL     1       3.332   5.575  18.582  0.00  0.00    +0.000 A 
ATOM      9  C   UNL     1       2.452   6.330  19.360  0.00  0.00    +0.000 A 
ATOM     10  C   UNL     1       2.297   7.697  19.135  0.00  0.00    +0.000 A 
ATOM     11  C   UNL     1       3.056   8.295  18.128  0.00  0.00    +0.000 A 
ATOM     12  C   UNL     1       3.982   7.536  17.400  0.00  0.00    +0.000 A 
BRANCH  10  13
ATOM     13  C   UNL     1       1.306   8.480  19.949  0.00  0.00    +0.000 C 
BRANCH  13  14
ATOM     14  N   UNL     1       0.839   9.708  19.328  0.00  0.00    +0.000 N 
ATOM     15  C   UNL     1       1.049  11.004  19.690  0.00  0.00    +0.000 A 
ATOM     16  N   UNL     1       0.235  11.788  19.018  0.00  0.00    +0.000 NA
ATOM     17  C   UNL     1      -0.459  10.912  18.237  0.00  0.00    +0.000 A 
ATOM     18  N   UNL     1      -0.110   9.631  18.368  0.00  0.00    +0.000 NA
ENDBRANCH  13  14
ENDBRANCH  10  13
ENDBRANCH   6   7
BRANCH   1  19
ATOM     19  S   UNL     1       7.155   5.403  18.838  0.00  0.00    +0.000 S 
ATOM     20  O   UNL     1       8.447   4.781  18.992  0.00  0.00    +0.000 OA
ATOM     21  O   UNL     1       6.085   5.170  19.790  0.00  0.00    +0.000 OA
BRANCH  19  24
ATOM     22  C   UNL     1       7.928   7.808  17.855  0.00  0.00    +0.000 C 
ATOM     23  O   UNL     1       8.016   7.356  16.721  0.00  0.00    +0.000 OA
ATOM     24  N   UNL     1       7.418   7.057  18.925  0.00  0.00    +0.000 N 
ATOM     25  H   UNL     1       7.433   7.372  19.890  0.00  0.00    +0.000 HD
BRANCH  22  30
ATOM     26  C   UNL     1       9.782  13.245  18.635  0.00  0.00    +0.000 C 
ATOM     27  C   UNL     1       9.173  11.880  18.521  0.00  0.00    +0.000 A 
ATOM     28  C   UNL     1       9.648  10.832  19.312  0.00  0.00    +0.000 A 
ATOM     29  C   UNL     1       9.182   9.531  19.108  0.00  0.00    +0.000 A 
ATOM     30  C   UNL     1       8.246   9.250  18.102  0.00  0.00    +0.000 A 
ATOM     31  C   UNL     1       7.729  10.306  17.344  0.00  0.00    +0.000 A 
ATOM     32  C   UNL     1       8.195  11.611  17.553  0.00  0.00    +0.000 A 
ENDBRANCH  22  30
ENDBRANCH  19  24
ENDBRANCH   1  19
BRANCH   4  33
ATOM     33  C   UNL     1       5.164   4.005  13.201  0.00  0.00    +0.000 C 
BRANCH  33  34
ATOM     34  C   UNL     1       6.164   3.175  12.366  0.00  0.00    +0.000 C 
ATOM     35  C   UNL     1       5.464   2.176  11.443  0.00  0.00    +0.000 C 
ATOM     36  C   UNL     1       7.045   4.108  11.526  0.00  0.00    +0.000 C 
ENDBRANCH  33  34
ENDBRANCH   4  33
TORSDOF 8
ENDMDL
MODEL 9
REMARK VINA RESULT:      -8.1      5.452     11.927
REMARK  Name = 
REMARK  11 active torsions:
REMARK  status: ('A' for Active; 'I' for Inactive)
REMARK    1  A    between atoms: C_1  and  C_2
REMARK    2  A    between atoms: C_5  and  C_6
REMARK    3  A    between atoms: N_8  and  S_9
REMARK    4  A    between atoms: S_9  and  C_12
REMARK    5  A    between atoms: C_15  and  C_16
REMARK    6  A    between atoms: C_16  and  C_17
REMARK    7  A    between atoms: C_17  and  C_18
REMARK    8  A    between atoms: C_17  and  C_19
REMARK    9  A    between atoms: C_21  and  C_22
REMARK   10  A    between atoms: C_25  and  C_26
REMARK   11  A    between atoms: C_26  and  N_27
REMARK                            x       y       z     vdW  Elec       q    Type
REMARK                         _______ _______ _______ _____ _____    ______ ____
ROOT
ATOM      1  C   UNL     1       0.126  11.658  19.743  0.00  0.00    +0.000 A 
ATOM      2  C   UNL     1       1.464  12.063  19.898  0.00  0.00    +0.000 A 
ATOM      3  C   UNL     1       1.885  13.346  19.545  0.00  0.00    +0.000 A 
ATOM      4  C   UNL     1       0.985  14.256  19.004  0.00  0.00    +0.000 A 
ATOM      5  C   UNL     1      -0.350  13.853  18.849  0.00  0.00    +0.000 A 
ATOM      6  C   UNL     1      -0.840  12.580  19.256  0.00  0.00    +0.000 A 
ENDROOT
BRANCH   6   7
ATOM      7  C   UNL     1      -2.321  12.382  19.186  0.00  0.00    +0.000 A 
ATOM      8  C   UNL     1      -3.192  12.725  20.221  0.00  0.00    +0.000 A 
ATOM      9  C   UNL     1      -4.578  12.594  20.108  0.00  0.00    +0.000 A 
ATOM     10  C   UNL     1      -5.147  12.016  18.973  0.00  0.00    +0.000 A 
ATOM     11  C   UNL     1      -4.301  11.590  17.949  0.00  0.00    +0.000 A 
ATOM     12  C   UNL     1      -2.918  11.786  18.050  0.00  0.00    +0.000 A 
BRANCH  10  13
ATOM     13  C   UNL     1      -6.637  11.837  18.895  0.00  0.00    +0.000 C 
BRANCH  13  14
ATOM     14  N   UNL     1      -7.156  10.699  19.634  0.00  0.00    +0.000 N 
ATOM     15  C   UNL     1      -7.663  10.635  20.897  0.00  0.00    +0.000 A 
ATOM     16  N   UNL     1      -7.769   9.377  21.266  0.00  0.00    +0.000 NA
ATOM     17  C   UNL     1      -7.318   8.697  20.174  0.00  0.00    +0.000 A 
ATOM     18  N   UNL     1      -6.956   9.457  19.138  0.00  0.00    +0.000 NA
ENDBRANCH  13  14
ENDBRANCH  10  13
ENDBRANCH   6   7
BRANCH   1  19
ATOM     19  S   UNL     1      -0.288   9.984  20.241  0.00  0.00    +0.000 S 
ATOM     20  O   UNL     1      -1.346   9.468  19.406  0.00  0.00    +0.000 OA
ATOM     21  O   UNL     1      -0.401   9.990  21.688  0.00  0.00    +0.000 OA
BRANCH  19  24
ATOM     22  C   UNL     1       1.487   8.689  18.654  0.00  0.00    +0.000 C 
ATOM     23  O   UNL     1       1.054   9.246  17.655  0.00  0.00    +0.000 OA
ATOM     24  N   UNL     1       1.053   9.021  19.946  0.00  0.00    +0.000 N 
ATOM     25  H   UNL     1       1.318   8.503  20.779  0.00  0.00    +0.000 HD
BRANCH  22  30
ATOM     26  C   UNL     1       5.385   4.437  18.072  0.00  0.00    +0.000 C 
ATOM     27  C   UNL     1       4.496   5.626  18.286  0.00  0.00    +0.000 A 
ATOM     28  C   UNL     1       3.611   5.654  19.365  0.00  0.00    +0.000 A 
ATOM     29  C   UNL     1       2.684   6.692  19.486  0.00  0.00    +0.000 A 
ATOM     30  C   UNL     1       2.613   7.712  18.525  0.00  0.00    +0.000 A 
ATOM     31  C   UNL     1       3.534   7.714  17.472  0.00  0.00    +0.000 A 
ATOM     32  C   UNL     1       4.466   6.674  17.355  0.00  0.00    +0.000 A 
ENDBRANCH  22  30
ENDBRANCH  19  24
ENDBRANCH   1  19
BRANCH   4  33
ATOM     33  C   UNL     1       1.448  15.632  18.574  0.00  0.00    +0.000 C 
BRANCH  33  34
ATOM     34  C   UNL     1       0.871  16.810  19.389  0.00  0.00    +0.000 C 
ATOM     35  C   UNL     1       1.957  17.594  20.129  0.00  0.00    +0.000 C 
ATOM     36  C   UNL     1       0.104  17.761  18.462  0.00  0.00    +0.000 C 
ENDBRANCH  33  34
ENDBRANCH   4  33
TORSDOF 8
ENDMDL
