MODEL 1
REMARK VINA RESULT:      -8.0      0.000      0.000
REMARK  Name = 
REMARK  5 active torsions:
REMARK  status: ('A' for Active; 'I' for Inactive)
REMARK    1  A    between atoms: C_1  and  N_2
REMARK    2  A    between atoms: C_4  and  N_5
REMARK    3  A    between atoms: C_6  and  C_8
REMARK    4  A    between atoms: N_15  and  C_16
REMARK    5  A    between atoms: C_24  and  C_25
REMARK                            x       y       z     vdW  Elec       q    Type
REMARK                         _______ _______ _______ _____ _____    ______ ____
ROOT
ATOM      1  C   UNL     1       3.627   3.486  18.053  0.00  0.00    +0.000 A 
ATOM      2  C   UNL     1       3.690   2.112  18.214  0.00  0.00    +0.000 A 
ATOM      3  N   UNL     1       2.855   1.674  19.198  0.00  0.00    +0.000 NA
ATOM      4  C   UNL     1       2.275   2.765  19.644  0.00  0.00    +0.000 A 
ATOM      5  C   UNL     1       1.222   2.922  20.559  0.00  0.00    +0.000 A 
ATOM      6  C   UNL     1       0.776   4.152  20.832  0.00  0.00    +0.000 A 
ATOM      7  C   UNL     1       1.485   5.335  20.237  0.00  0.00    +0.000 A 
ATOM      8  N   UNL     1       1.050   6.573  20.652  0.00  0.00    +0.000 N 
ATOM      9  N   UNL     1       2.446   5.216  19.352  0.00  0.00    +0.000 NA
ATOM     10  N   UNL     1       2.774   3.911  19.044  0.00  0.00    +0.000 N 
ATOM     11  H   UNL     1       0.169   6.647  21.155  0.00  0.00    +0.000 HD
ENDROOT
BRANCH   8  12
ATOM     12  C   UNL     1       1.875   7.770  20.812  0.00  0.00    +0.000 C 
ATOM     13  C   UNL     1       1.312   8.672  21.928  0.00  0.00    +0.000 C 
ATOM     14  C   UNL     1       0.013   9.391  21.540  0.00  0.00    +0.000 C 
ATOM     15  C   UNL     1       0.093  10.057  20.170  0.00  0.00    +0.000 C 
ATOM     16  N   UNL     1       0.538   9.100  19.159  0.00  0.00    +0.000 NA
ATOM     17  C   UNL     1       1.870   8.548  19.475  0.00  0.00    +0.000 C 
ATOM     18  H   UNL     1       0.562   9.549  18.242  0.00  0.00    +0.000 HD
ENDBRANCH   8  12
BRANCH   1  20
ATOM     19  N   UNL     1       5.366   3.585  16.410  0.00  0.00    +0.000 N 
ATOM     20  C   UNL     1       4.304   4.232  17.029  0.00  0.00    +0.000 C 
ATOM     21  O   UNL     1       3.966   5.384  16.771  0.00  0.00    +0.000 OA
ATOM     22  H   UNL     1       5.609   2.653  16.744  0.00  0.00    +0.000 HD
BRANCH  19  26
ATOM     23  C   UNL     1       7.422   4.563  12.065  0.00  0.00    +0.000 C 
ATOM     24  N   UNL     1       7.057   4.598  13.461  0.00  0.00    +0.000 N 
ATOM     25  C   UNL     1       6.134   3.809  14.068  0.00  0.00    +0.000 A 
ATOM     26  C   UNL     1       6.137   4.147  15.399  0.00  0.00    +0.000 A 
ATOM     27  C   UNL     1       7.103   5.188  15.499  0.00  0.00    +0.000 A 
ATOM     28  N   UNL     1       7.667   5.454  14.302  0.00  0.00    +0.000 NA
BRANCH  27  29
ATOM     29  C   UNL     1       7.483   5.965  16.716  0.00  0.00    +0.000 C 
ATOM     30  F   UNL     1       6.520   6.873  17.046  0.00  0.00    +0.000 F 
ATOM     31  F   UNL     1       7.610   5.156  17.806  0.00  0.00    +0.000 F 
ENDBRANCH  27  29
ENDBRANCH  19  26
ENDBRANCH   1  20
TORSDOF 4
ENDMDL
MODEL 2
REMARK VINA RESULT:      -7.7      1.379      1.481
REMARK  Name = 
REMARK  5 active torsions:
REMARK  status: ('A' for Active; 'I' for Inactive)
REMARK    1  A    between atoms: C_1  and  N_2
REMARK    2  A    between atoms: C_4  and  N_5
REMARK    3  A    between atoms: C_6  and  C_8
REMARK    4  A    between atoms: N_15  and  C_16
REMARK    5  A    between atoms: C_24  and  C_25
REMARK                            x       y       z     vdW  Elec       q    Type
REMARK                         _______ _______ _______ _____ _____    ______ ____
ROOT
ATOM      1  C   UNL     1       4.499   3.599  19.354  0.00  0.00    +0.000 A 
ATOM      2  C   UNL     1       4.473   2.371  19.995  0.00  0.00    +0.000 A 
ATOM      3  N   UNL     1       3.337   2.202  20.728  0.00  0.00    +0.000 NA
ATOM      4  C   UNL     1       2.660   3.313  20.544  0.00  0.00    +0.000 A 
ATOM      5  C   UNL     1       1.358   3.656  20.937  0.00  0.00    +0.000 A 
ATOM      6  C   UNL     1       0.870   4.853  20.599  0.00  0.00    +0.000 A 
ATOM      7  C   UNL     1       1.768   5.837  19.904  0.00  0.00    +0.000 A 
ATOM      8  N   UNL     1       1.241   7.091  19.690  0.00  0.00    +0.000 N 
ATOM      9  N   UNL     1       2.975   5.531  19.494  0.00  0.00    +0.000 NA
ATOM     10  N   UNL     1       3.363   4.239  19.788  0.00  0.00    +0.000 N 
ATOM     11  H   UNL     1       0.242   7.237  19.810  0.00  0.00    +0.000 HD
ENDROOT
BRANCH   8  12
ATOM     12  C   UNL     1       1.984   8.351  19.691  0.00  0.00    +0.000 C 
ATOM     13  C   UNL     1       1.274   9.399  20.572  0.00  0.00    +0.000 C 
ATOM     14  C   UNL     1      -0.021   9.944  19.955  0.00  0.00    +0.000 C 
ATOM     15  C   UNL     1       0.147  10.357  18.495  0.00  0.00    +0.000 C 
ATOM     16  N   UNL     1       0.733   9.266  17.718  0.00  0.00    +0.000 NA
ATOM     17  C   UNL     1       2.059   8.873  18.237  0.00  0.00    +0.000 C 
ATOM     18  H   UNL     1       0.817   9.543  16.739  0.00  0.00    +0.000 HD
ENDBRANCH   8  12
BRANCH   1  20
ATOM     19  N   UNL     1       5.085   4.225  17.118  0.00  0.00    +0.000 N 
ATOM     20  C   UNL     1       5.508   4.026  18.426  0.00  0.00    +0.000 C 
ATOM     21  O   UNL     1       6.674   4.156  18.790  0.00  0.00    +0.000 OA
ATOM     22  H   UNL     1       4.108   4.024  16.903  0.00  0.00    +0.000 HD
BRANCH  19  26
ATOM     23  C   UNL     1       7.457   4.529  12.835  0.00  0.00    +0.000 C 
ATOM     24  N   UNL     1       6.977   4.788  14.172  0.00  0.00    +0.000 N 
ATOM     25  C   UNL     1       6.034   4.075  14.838  0.00  0.00    +0.000 A 
ATOM     26  C   UNL     1       5.917   4.638  16.085  0.00  0.00    +0.000 A 
ATOM     27  C   UNL     1       6.837   5.725  16.071  0.00  0.00    +0.000 A 
ATOM     28  N   UNL     1       7.488   5.805  14.891  0.00  0.00    +0.000 NA
BRANCH  27  29
ATOM     29  C   UNL     1       7.091   6.717  17.157  0.00  0.00    +0.000 C 
ATOM     30  F   UNL     1       8.051   7.616  16.793  0.00  0.00    +0.000 F 
ATOM     31  F   UNL     1       5.979   7.460  17.426  0.00  0.00    +0.000 F 
ENDBRANCH  27  29
ENDBRANCH  19  26
ENDBRANCH   1  20
TORSDOF 4
ENDMDL
MODEL 3
REMARK VINA RESULT:      -7.6      2.415      3.912
REMARK  Name = 
REMARK  5 active torsions:
REMARK  status: ('A' for Active; 'I' for Inactive)
REMARK    1  A    between atoms: C_1  and  N_2
REMARK    2  A    between atoms: C_4  and  N_5
REMARK    3  A    between atoms: C_6  and  C_8
REMARK    4  A    between atoms: N_15  and  C_16
REMARK    5  A    between atoms: C_24  and  C_25
REMARK                            x       y       z     vdW  Elec       q    Type
REMARK                         _______ _______ _______ _____ _____    ______ ____
ROOT
ATOM      1  C   UNL     1       2.641   6.930  19.290  0.00  0.00    +0.000 A 
ATOM      2  C   UNL     1       2.425   5.851  20.132  0.00  0.00    +0.000 A 
ATOM      3  N   UNL     1       1.486   6.124  21.081  0.00  0.00    +0.000 NA
ATOM      4  C   UNL     1       1.119   7.361  20.832  0.00  0.00    +0.000 A 
ATOM      5  C   UNL     1       0.088   8.130  21.393  0.00  0.00    +0.000 A 
ATOM      6  C   UNL     1      -0.114   9.372  20.944  0.00  0.00    +0.000 A 
ATOM      7  C   UNL     1       0.837   9.947  19.932  0.00  0.00    +0.000 A 
ATOM      8  N   UNL     1       0.642  11.269  19.602  0.00  0.00    +0.000 N 
ATOM      9  N   UNL     1       1.784   9.239  19.366  0.00  0.00    +0.000 NA
ATOM     10  N   UNL     1       1.857   7.933  19.807  0.00  0.00    +0.000 N 
ATOM     11  H   UNL     1      -0.223  11.728  19.876  0.00  0.00    +0.000 HD
ENDROOT
BRANCH   8  12
ATOM     12  C   UNL     1       1.683  12.231  19.242  0.00  0.00    +0.000 C 
ATOM     13  C   UNL     1       2.192  12.974  20.494  0.00  0.00    +0.000 C 
ATOM     14  C   UNL     1       1.187  13.987  21.058  0.00  0.00    +0.000 C 
ATOM     15  C   UNL     1       0.595  14.894  19.983  0.00  0.00    +0.000 C 
ATOM     16  N   UNL     1       0.048  14.099  18.885  0.00  0.00    +0.000 NA
ATOM     17  C   UNL     1       1.080  13.254  18.251  0.00  0.00    +0.000 C 
ATOM     18  H   UNL     1      -0.369  14.714  18.185  0.00  0.00    +0.000 HD
ENDBRANCH   8  12
BRANCH   1  20
ATOM     19  N   UNL     1       4.482   5.947  18.115  0.00  0.00    +0.000 N 
ATOM     20  C   UNL     1       3.488   6.918  18.130  0.00  0.00    +0.000 C 
ATOM     21  O   UNL     1       3.343   7.756  17.245  0.00  0.00    +0.000 OA
ATOM     22  H   UNL     1       4.562   5.341  18.931  0.00  0.00    +0.000 HD
BRANCH  19  26
ATOM     23  C   UNL     1       6.672   4.488  13.975  0.00  0.00    +0.000 C 
ATOM     24  N   UNL     1       6.378   5.143  15.227  0.00  0.00    +0.000 N 
ATOM     25  C   UNL     1       5.229   5.031  15.942  0.00  0.00    +0.000 A 
ATOM     26  C   UNL     1       5.393   5.783  17.079  0.00  0.00    +0.000 A 
ATOM     27  C   UNL     1       6.696   6.342  16.950  0.00  0.00    +0.000 A 
ATOM     28  N   UNL     1       7.296   5.938  15.810  0.00  0.00    +0.000 NA
BRANCH  27  29
ATOM     29  C   UNL     1       7.378   7.287  17.883  0.00  0.00    +0.000 C 
ATOM     30  F   UNL     1       8.246   6.631  18.706  0.00  0.00    +0.000 F 
ATOM     31  F   UNL     1       8.136   8.198  17.207  0.00  0.00    +0.000 F 
ENDBRANCH  27  29
ENDBRANCH  19  26
ENDBRANCH   1  20
TORSDOF 4
ENDMDL
MODEL 4
REMARK VINA RESULT:      -7.4      2.130      7.108
REMARK  Name = 
REMARK  5 active torsions:
REMARK  status: ('A' for Active; 'I' for Inactive)
REMARK    1  A    between atoms: C_1  and  N_2
REMARK    2  A    between atoms: C_4  and  N_5
REMARK    3  A    between atoms: C_6  and  C_8
REMARK    4  A    between atoms: N_15  and  C_16
REMARK    5  A    between atoms: C_24  and  C_25
REMARK                            x       y       z     vdW  Elec       q    Type
REMARK                         _______ _______ _______ _____ _____    ______ ____
ROOT
ATOM      1  C   UNL     1       1.814   4.445  20.700  0.00  0.00    +0.000 A 
ATOM      2  C   UNL     1       1.435   3.373  21.490  0.00  0.00    +0.000 A 
ATOM      3  N   UNL     1       2.319   2.339  21.406  0.00  0.00    +0.000 NA
ATOM      4  C   UNL     1       3.242   2.765  20.573  0.00  0.00    +0.000 A 
ATOM      5  C   UNL     1       4.469   2.190  20.210  0.00  0.00    +0.000 A 
ATOM      6  C   UNL     1       5.264   2.840  19.354  0.00  0.00    +0.000 A 
ATOM      7  C   UNL     1       4.772   4.112  18.724  0.00  0.00    +0.000 A 
ATOM      8  N   UNL     1       5.589   4.666  17.765  0.00  0.00    +0.000 N 
ATOM      9  N   UNL     1       3.648   4.689  19.071  0.00  0.00    +0.000 NA
ATOM     10  N   UNL     1       2.937   4.008  20.040  0.00  0.00    +0.000 N 
ATOM     11  H   UNL     1       6.546   4.333  17.673  0.00  0.00    +0.000 HD
ENDROOT
BRANCH   8  12
ATOM     12  C   UNL     1       5.153   5.411  16.583  0.00  0.00    +0.000 C 
ATOM     13  C   UNL     1       4.859   4.450  15.414  0.00  0.00    +0.000 C 
ATOM     14  C   UNL     1       6.119   3.834  14.793  0.00  0.00    +0.000 C 
ATOM     15  C   UNL     1       7.201   4.871  14.501  0.00  0.00    +0.000 C 
ATOM     16  N   UNL     1       7.484   5.666  15.693  0.00  0.00    +0.000 NA
ATOM     17  C   UNL     1       6.285   6.382  16.174  0.00  0.00    +0.000 C 
ATOM     18  H   UNL     1       8.227   6.338  15.495  0.00  0.00    +0.000 HD
ENDBRANCH   8  12
BRANCH   1  20
ATOM     19  N   UNL     1       1.974   6.834  20.644  0.00  0.00    +0.000 N 
ATOM     20  C   UNL     1       1.148   5.717  20.657  0.00  0.00    +0.000 C 
ATOM     21  O   UNL     1      -0.078   5.779  20.676  0.00  0.00    +0.000 OA
ATOM     22  H   UNL     1       2.980   6.677  20.698  0.00  0.00    +0.000 HD
BRANCH  19  26
ATOM     23  C   UNL     1       0.068  11.182  21.880  0.00  0.00    +0.000 C 
ATOM     24  N   UNL     1       0.668  10.093  21.146  0.00  0.00    +0.000 N 
ATOM     25  C   UNL     1       1.022   8.883  21.651  0.00  0.00    +0.000 A 
ATOM     26  C   UNL     1       1.512   8.143  20.603  0.00  0.00    +0.000 A 
ATOM     27  C   UNL     1       1.431   9.019  19.482  0.00  0.00    +0.000 A 
ATOM     28  N   UNL     1       0.906  10.214  19.826  0.00  0.00    +0.000 NA
BRANCH  27  29
ATOM     29  C   UNL     1       1.876   8.750  18.083  0.00  0.00    +0.000 C 
ATOM     30  F   UNL     1       2.097   9.911  17.401  0.00  0.00    +0.000 F 
ATOM     31  F   UNL     1       3.064   8.079  18.055  0.00  0.00    +0.000 F 
ENDBRANCH  27  29
ENDBRANCH  19  26
ENDBRANCH   1  20
TORSDOF 4
ENDMDL
MODEL 5
REMARK VINA RESULT:      -7.3      7.064     11.922
REMARK  Name = 
REMARK  5 active torsions:
REMARK  status: ('A' for Active; 'I' for Inactive)
REMARK    1  A    between atoms: C_1  and  N_2
REMARK    2  A    between atoms: C_4  and  N_5
REMARK    3  A    between atoms: C_6  and  C_8
REMARK    4  A    between atoms: N_15  and  C_16
REMARK    5  A    between atoms: C_24  and  C_25
REMARK                            x       y       z     vdW  Elec       q    Type
REMARK                         _______ _______ _______ _____ _____    ______ ____
ROOT
ATOM      1  C   UNL     1      -4.890  12.352  18.948  0.00  0.00    +0.000 A 
ATOM      2  C   UNL     1      -5.958  12.634  18.112  0.00  0.00    +0.000 A 
ATOM      3  N   UNL     1      -5.777  12.122  16.862  0.00  0.00    +0.000 NA
ATOM      4  C   UNL     1      -4.608  11.525  16.919  0.00  0.00    +0.000 A 
ATOM      5  C   UNL     1      -3.961  10.709  15.979  0.00  0.00    +0.000 A 
ATOM      6  C   UNL     1      -2.771  10.181  16.285  0.00  0.00    +0.000 A 
ATOM      7  C   UNL     1      -2.113  10.567  17.580  0.00  0.00    +0.000 A 
ATOM      8  N   UNL     1      -0.840  10.083  17.779  0.00  0.00    +0.000 N 
ATOM      9  N   UNL     1      -2.710  11.297  18.490  0.00  0.00    +0.000 NA
ATOM     10  N   UNL     1      -3.980  11.712  18.141  0.00  0.00    +0.000 N 
ATOM     11  H   UNL     1      -0.488   9.345  17.173  0.00  0.00    +0.000 HD
ENDROOT
BRANCH   8  12
ATOM     12  C   UNL     1       0.237  10.757  18.503  0.00  0.00    +0.000 C 
ATOM     13  C   UNL     1       1.594  10.090  18.202  0.00  0.00    +0.000 C 
ATOM     14  C   UNL     1       1.761   8.713  18.857  0.00  0.00    +0.000 C 
ATOM     15  C   UNL     1       1.369   8.709  20.333  0.00  0.00    +0.000 C 
ATOM     16  N   UNL     1       0.029   9.265  20.509  0.00  0.00    +0.000 NA
ATOM     17  C   UNL     1      -0.057  10.655  20.018  0.00  0.00    +0.000 C 
ATOM     18  H   UNL     1      -0.234   9.234  21.495  0.00  0.00    +0.000 HD
ENDBRANCH   8  12
BRANCH   1  20
ATOM     19  N   UNL     1      -3.892  13.616  20.721  0.00  0.00    +0.000 N 
ATOM     20  C   UNL     1      -4.832  12.663  20.349  0.00  0.00    +0.000 C 
ATOM     21  O   UNL     1      -5.553  12.071  21.148  0.00  0.00    +0.000 OA
ATOM     22  H   UNL     1      -3.294  13.999  19.989  0.00  0.00    +0.000 HD
BRANCH  19  26
ATOM     23  C   UNL     1      -3.986  16.223  24.875  0.00  0.00    +0.000 C 
ATOM     24  N   UNL     1      -3.734  15.197  23.892  0.00  0.00    +0.000 N 
ATOM     25  C   UNL     1      -4.211  15.168  22.621  0.00  0.00    +0.000 A 
ATOM     26  C   UNL     1      -3.693  14.043  22.028  0.00  0.00    +0.000 A 
ATOM     27  C   UNL     1      -2.912  13.430  23.049  0.00  0.00    +0.000 A 
ATOM     28  N   UNL     1      -2.940  14.151  24.191  0.00  0.00    +0.000 NA
BRANCH  27  29
ATOM     29  C   UNL     1      -2.158  12.145  22.972  0.00  0.00    +0.000 C 
ATOM     30  F   UNL     1      -0.862  12.305  23.367  0.00  0.00    +0.000 F 
ATOM     31  F   UNL     1      -2.681  11.206  23.811  0.00  0.00    +0.000 F 
ENDBRANCH  27  29
ENDBRANCH  19  26
ENDBRANCH   1  20
TORSDOF 4
ENDMDL
MODEL 6
REMARK VINA RESULT:      -7.2      8.171     11.972
REMARK  Name = 
REMARK  5 active torsions:
REMARK  status: ('A' for Active; 'I' for Inactive)
REMARK    1  A    between atoms: C_1  and  N_2
REMARK    2  A    between atoms: C_4  and  N_5
REMARK    3  A    between atoms: C_6  and  C_8
REMARK    4  A    between atoms: N_15  and  C_16
REMARK    5  A    between atoms: C_24  and  C_25
REMARK                            x       y       z     vdW  Elec       q    Type
REMARK                         _______ _______ _______ _____ _____    ______ ____
ROOT
ATOM      1  C   UNL     1      -0.634  10.989  20.988  0.00  0.00    +0.000 A 
ATOM      2  C   UNL     1       0.491  10.237  20.689  0.00  0.00    +0.000 A 
ATOM      3  N   UNL     1       0.516   9.854  19.382  0.00  0.00    +0.000 NA
ATOM      4  C   UNL     1      -0.582  10.365  18.870  0.00  0.00    +0.000 A 
ATOM      5  C   UNL     1      -1.021  10.417  17.538  0.00  0.00    +0.000 A 
ATOM      6  C   UNL     1      -2.176  11.029  17.258  0.00  0.00    +0.000 A 
ATOM      7  C   UNL     1      -3.021  11.545  18.388  0.00  0.00    +0.000 A 
ATOM      8  N   UNL     1      -4.250  12.057  18.039  0.00  0.00    +0.000 N 
ATOM      9  N   UNL     1      -2.619  11.542  19.636  0.00  0.00    +0.000 NA
ATOM     10  N   UNL     1      -1.368  10.989  19.826  0.00  0.00    +0.000 N 
ATOM     11  H   UNL     1      -4.447  12.255  17.061  0.00  0.00    +0.000 HD
ENDROOT
BRANCH   8  12
ATOM     12  C   UNL     1      -5.472  11.994  18.841  0.00  0.00    +0.000 C 
ATOM     13  C   UNL     1      -6.704  11.781  17.939  0.00  0.00    +0.000 C 
ATOM     14  C   UNL     1      -7.084  13.018  17.115  0.00  0.00    +0.000 C 
ATOM     15  C   UNL     1      -7.127  14.294  17.952  0.00  0.00    +0.000 C 
ATOM     16  N   UNL     1      -5.880  14.465  18.694  0.00  0.00    +0.000 NA
ATOM     17  C   UNL     1      -5.623  13.331  19.604  0.00  0.00    +0.000 C 
ATOM     18  H   UNL     1      -5.908  15.333  19.229  0.00  0.00    +0.000 HD
ENDBRANCH   8  12
BRANCH   1  20
ATOM     19  N   UNL     1      -1.571  12.835  22.191  0.00  0.00    +0.000 N 
ATOM     20  C   UNL     1      -0.892  11.625  22.250  0.00  0.00    +0.000 C 
ATOM     21  O   UNL     1      -0.485  11.124  23.294  0.00  0.00    +0.000 OA
ATOM     22  H   UNL     1      -1.806  13.199  21.268  0.00  0.00    +0.000 HD
BRANCH  19  26
ATOM     23  C   UNL     1      -1.491  16.107  25.845  0.00  0.00    +0.000 C 
ATOM     24  N   UNL     1      -1.887  15.056  24.938  0.00  0.00    +0.000 N 
ATOM     25  C   UNL     1      -1.194  14.630  23.851  0.00  0.00    +0.000 A 
ATOM     26  C   UNL     1      -1.909  13.593  23.305  0.00  0.00    +0.000 A 
ATOM     27  C   UNL     1      -3.057  13.476  24.139  0.00  0.00    +0.000 A 
ATOM     28  N   UNL     1      -3.032  14.377  25.144  0.00  0.00    +0.000 NA
BRANCH  27  29
ATOM     29  C   UNL     1      -4.206  12.535  23.982  0.00  0.00    +0.000 C 
ATOM     30  F   UNL     1      -5.213  12.830  24.854  0.00  0.00    +0.000 F 
ATOM     31  F   UNL     1      -4.761  12.627  22.739  0.00  0.00    +0.000 F 
ENDBRANCH  27  29
ENDBRANCH  19  26
ENDBRANCH   1  20
TORSDOF 4
ENDMDL
MODEL 7
REMARK VINA RESULT:      -7.2      4.088      7.204
REMARK  Name = 
REMARK  5 active torsions:
REMARK  status: ('A' for Active; 'I' for Inactive)
REMARK    1  A    between atoms: C_1  and  N_2
REMARK    2  A    between atoms: C_4  and  N_5
REMARK    3  A    between atoms: C_6  and  C_8
REMARK    4  A    between atoms: N_15  and  C_16
REMARK    5  A    between atoms: C_24  and  C_25
REMARK                            x       y       z     vdW  Elec       q    Type
REMARK                         _______ _______ _______ _____ _____    ______ ____
ROOT
ATOM      1  C   UNL     1       0.705   9.055  21.254  0.00  0.00    +0.000 A 
ATOM      2  C   UNL     1      -0.043   8.603  22.329  0.00  0.00    +0.000 A 
ATOM      3  N   UNL     1      -0.667   9.623  22.982  0.00  0.00    +0.000 NA
ATOM      4  C   UNL     1      -0.314  10.701  22.318  0.00  0.00    +0.000 A 
ATOM      5  C   UNL     1      -0.756  12.027  22.442  0.00  0.00    +0.000 A 
ATOM      6  C   UNL     1      -0.265  12.956  21.617  0.00  0.00    +0.000 A 
ATOM      7  C   UNL     1       0.826  12.576  20.655  0.00  0.00    +0.000 A 
ATOM      8  N   UNL     1       1.368  13.604  19.919  0.00  0.00    +0.000 N 
ATOM      9  N   UNL     1       1.231  11.339  20.494  0.00  0.00    +0.000 NA
ATOM     10  N   UNL     1       0.596  10.424  21.309  0.00  0.00    +0.000 N 
ATOM     11  H   UNL     1       0.893  14.503  19.894  0.00  0.00    +0.000 HD
ENDROOT
BRANCH   8  12
ATOM     12  C   UNL     1       2.757  13.706  19.469  0.00  0.00    +0.000 C 
ATOM     13  C   UNL     1       3.621  14.414  20.533  0.00  0.00    +0.000 C 
ATOM     14  C   UNL     1       3.348  15.920  20.642  0.00  0.00    +0.000 C 
ATOM     15  C   UNL     1       3.322  16.616  19.284  0.00  0.00    +0.000 C 
ATOM     16  N   UNL     1       2.401  15.935  18.376  0.00  0.00    +0.000 NA
ATOM     17  C   UNL     1       2.786  14.526  18.159  0.00  0.00    +0.000 C 
ATOM     18  H   UNL     1       2.371  16.424  17.480  0.00  0.00    +0.000 HD
ENDBRANCH   8  12
BRANCH   1  20
ATOM     19  N   UNL     1       1.747   6.954  20.769  0.00  0.00    +0.000 N 
ATOM     20  C   UNL     1       1.389   8.215  20.310  0.00  0.00    +0.000 C 
ATOM     21  O   UNL     1       1.662   8.634  19.189  0.00  0.00    +0.000 OA
ATOM     22  H   UNL     1       1.533   6.727  21.740  0.00  0.00    +0.000 HD
BRANCH  19  26
ATOM     23  C   UNL     1       4.964   4.723  17.814  0.00  0.00    +0.000 C 
ATOM     24  N   UNL     1       3.848   4.997  18.686  0.00  0.00    +0.000 N 
ATOM     25  C   UNL     1       3.587   6.174  19.310  0.00  0.00    +0.000 A 
ATOM     26  C   UNL     1       2.412   6.006  20.000  0.00  0.00    +0.000 A 
ATOM     27  C   UNL     1       2.039   4.656  19.744  0.00  0.00    +0.000 A 
ATOM     28  N   UNL     1       2.926   4.045  18.930  0.00  0.00    +0.000 NA
BRANCH  27  29
ATOM     29  C   UNL     1       0.861   3.917  20.286  0.00  0.00    +0.000 C 
ATOM     30  F   UNL     1       0.461   2.928  19.436  0.00  0.00    +0.000 F 
ATOM     31  F   UNL     1       1.160   3.290  21.460  0.00  0.00    +0.000 F 
ENDBRANCH  27  29
ENDBRANCH  19  26
ENDBRANCH   1  20
TORSDOF 4
ENDMDL
MODEL 8
REMARK VINA RESULT:      -7.2      3.310      7.470
REMARK  Name = 
REMARK  5 active torsions:
REMARK  status: ('A' for Active; 'I' for Inactive)
REMARK    1  A    between atoms: C_1  and  N_2
REMARK    2  A    between atoms: C_4  and  N_5
REMARK    3  A    between atoms: C_6  and  C_8
REMARK    4  A    between atoms: N_15  and  C_16
REMARK    5  A    between atoms: C_24  and  C_25
REMARK                            x       y       z     vdW  Elec       q    Type
REMARK                         _______ _______ _______ _____ _____    ______ ____
ROOT
ATOM      1  C   UNL     1       1.750   6.526  20.193  0.00  0.00    +0.000 A 
ATOM      2  C   UNL     1       0.804   5.662  20.719  0.00  0.00    +0.000 A 
ATOM      3  N   UNL     1       1.213   4.363  20.667  0.00  0.00    +0.000 NA
ATOM      4  C   UNL     1       2.405   4.418  20.116  0.00  0.00    +0.000 A 
ATOM      5  C   UNL     1       3.365   3.411  19.934  0.00  0.00    +0.000 A 
ATOM      6  C   UNL     1       4.536   3.723  19.369  0.00  0.00    +0.000 A 
ATOM      7  C   UNL     1       4.745   5.116  18.846  0.00  0.00    +0.000 A 
ATOM      8  N   UNL     1       5.924   5.338  18.171  0.00  0.00    +0.000 N 
ATOM      9  N   UNL     1       3.880   6.084  19.036  0.00  0.00    +0.000 NA
ATOM     10  N   UNL     1       2.746   5.703  19.723  0.00  0.00    +0.000 N 
ATOM     11  H   UNL     1       6.669   4.648  18.231  0.00  0.00    +0.000 HD
ENDROOT
BRANCH   8  12
ATOM     12  C   UNL     1       6.117   6.257  17.050  0.00  0.00    +0.000 C 
ATOM     13  C   UNL     1       5.081   5.986  15.941  0.00  0.00    +0.000 C 
ATOM     14  C   UNL     1       5.336   4.688  15.165  0.00  0.00    +0.000 C 
ATOM     15  C   UNL     1       6.789   4.541  14.721  0.00  0.00    +0.000 C 
ATOM     16  N   UNL     1       7.693   4.713  15.856  0.00  0.00    +0.000 NA
ATOM     17  C   UNL     1       7.540   6.042  16.482  0.00  0.00    +0.000 C 
ATOM     18  H   UNL     1       8.659   4.587  15.553  0.00  0.00    +0.000 HD
ENDBRANCH   8  12
BRANCH   1  20
ATOM     19  N   UNL     1       1.508   8.567  18.964  0.00  0.00    +0.000 N 
ATOM     20  C   UNL     1       1.658   7.959  20.204  0.00  0.00    +0.000 C 
ATOM     21  O   UNL     1       1.754   8.581  21.259  0.00  0.00    +0.000 OA
ATOM     22  H   UNL     1       1.508   7.965  18.141  0.00  0.00    +0.000 HD
BRANCH  19  26
ATOM     23  C   UNL     1       2.520  13.264  17.975  0.00  0.00    +0.000 C 
ATOM     24  N   UNL     1       1.841  12.041  18.331  0.00  0.00    +0.000 N 
ATOM     25  C   UNL     1       2.381  10.795  18.336  0.00  0.00    +0.000 A 
ATOM     26  C   UNL     1       1.402   9.939  18.778  0.00  0.00    +0.000 A 
ATOM     27  C   UNL     1       0.273  10.777  19.001  0.00  0.00    +0.000 A 
ATOM     28  N   UNL     1       0.554  12.069  18.729  0.00  0.00    +0.000 NA
BRANCH  27  29
ATOM     29  C   UNL     1      -1.093  10.367  19.444  0.00  0.00    +0.000 C 
ATOM     30  F   UNL     1      -1.861  11.451  19.755  0.00  0.00    +0.000 F 
ATOM     31  F   UNL     1      -1.766   9.716  18.452  0.00  0.00    +0.000 F 
ENDBRANCH  27  29
ENDBRANCH  19  26
ENDBRANCH   1  20
TORSDOF 4
ENDMDL
MODEL 9
REMARK VINA RESULT:      -7.2      1.274      1.357
REMARK  Name = 
REMARK  5 active torsions:
REMARK  status: ('A' for Active; 'I' for Inactive)
REMARK    1  A    between atoms: C_1  and  N_2
REMARK    2  A    between atoms: C_4  and  N_5
REMARK    3  A    between atoms: C_6  and  C_8
REMARK    4  A    between atoms: N_15  and  C_16
REMARK    5  A    between atoms: C_24  and  C_25
REMARK                            x       y       z     vdW  Elec       q    Type
REMARK                         _______ _______ _______ _____ _____    ______ ____
ROOT
ATOM      1  C   UNL     1       4.445   3.384  19.323  0.00  0.00    +0.000 A 
ATOM      2  C   UNL     1       4.540   2.101  19.837  0.00  0.00    +0.000 A 
ATOM      3  N   UNL     1       3.530   1.823  20.709  0.00  0.00    +0.000 NA
ATOM      4  C   UNL     1       2.811   2.923  20.737  0.00  0.00    +0.000 A 
ATOM      5  C   UNL     1       1.575   3.181  21.350  0.00  0.00    +0.000 A 
ATOM      6  C   UNL     1       1.018   4.388  21.206  0.00  0.00    +0.000 A 
ATOM      7  C   UNL     1       1.782   5.463  20.487  0.00  0.00    +0.000 A 
ATOM      8  N   UNL     1       1.203   6.712  20.478  0.00  0.00    +0.000 N 
ATOM      9  N   UNL     1       2.920   5.239  19.876  0.00  0.00    +0.000 NA
ATOM     10  N   UNL     1       3.373   3.940  19.981  0.00  0.00    +0.000 N 
ATOM     11  H   UNL     1       0.230   6.812  20.757  0.00  0.00    +0.000 HD
ENDROOT
BRANCH   8  12
ATOM     12  C   UNL     1       1.911   7.992  20.493  0.00  0.00    +0.000 C 
ATOM     13  C   UNL     1       1.499   8.826  21.723  0.00  0.00    +0.000 C 
ATOM     14  C   UNL     1       0.078   9.399  21.629  0.00  0.00    +0.000 C 
ATOM     15  C   UNL     1      -0.199  10.072  20.287  0.00  0.00    +0.000 C 
ATOM     16  N   UNL     1       0.126   9.171  19.184  0.00  0.00    +0.000 NA
ATOM     17  C   UNL     1       1.546   8.767  19.205  0.00  0.00    +0.000 C 
ATOM     18  H   UNL     1      -0.088   9.621  18.293  0.00  0.00    +0.000 HD
ENDBRANCH   8  12
BRANCH   1  20
ATOM     19  N   UNL     1       4.788   3.899  17.010  0.00  0.00    +0.000 N 
ATOM     20  C   UNL     1       5.294   3.932  18.303  0.00  0.00    +0.000 C 
ATOM     21  O   UNL     1       6.412   4.356  18.586  0.00  0.00    +0.000 OA
ATOM     22  H   UNL     1       3.877   3.464  16.872  0.00  0.00    +0.000 HD
BRANCH  19  26
ATOM     23  C   UNL     1       7.308   4.206  12.813  0.00  0.00    +0.000 C 
ATOM     24  N   UNL     1       6.585   4.533  14.018  0.00  0.00    +0.000 N 
ATOM     25  C   UNL     1       6.001   3.649  14.868  0.00  0.00    +0.000 A 
ATOM     26  C   UNL     1       5.465   4.383  15.898  0.00  0.00    +0.000 A 
ATOM     27  C   UNL     1       5.766   5.735  15.564  0.00  0.00    +0.000 A 
ATOM     28  N   UNL     1       6.459   5.815  14.409  0.00  0.00    +0.000 NA
BRANCH  27  29
ATOM     29  C   UNL     1       5.376   6.966  16.312  0.00  0.00    +0.000 C 
ATOM     30  F   UNL     1       4.133   6.841  16.861  0.00  0.00    +0.000 F 
ATOM     31  F   UNL     1       6.216   7.201  17.361  0.00  0.00    +0.000 F 
ENDBRANCH  27  29
ENDBRANCH  19  26
ENDBRANCH   1  20
TORSDOF 4
ENDMDL
