MODEL 1
REMARK VINA RESULT:      -8.8      0.000      0.000
REMARK  Name = 
REMARK  11 active torsions:
REMARK  status: ('A' for Active; 'I' for Inactive)
REMARK    1  A    between atoms: C_1  and  C_2
REMARK    2  A    between atoms: C_7  and  S_8
REMARK    3  A    between atoms: S_8  and  N_11
REMARK    4  A    between atoms: C_12  and  C_14
REMARK    5  A    between atoms: C_14  and  C_15
REMARK    6  A    between atoms: C_19  and  C_21
REMARK    7  A    between atoms: C_21  and  C_22
REMARK    8  A    between atoms: C_25  and  C_26
REMARK    9  A    between atoms: C_26  and  C_27
REMARK   10  A    between atoms: C_26  and  C_28
REMARK   11  A    between atoms: C_26  and  C_29
REMARK                            x       y       z     vdW  Elec       q    Type
REMARK                         _______ _______ _______ _____ _____    ______ ____
ROOT
ATOM      1  C   UNL     1       3.678   4.318  18.455  0.00  0.00    +0.000 C 
ATOM      2  C   UNL     1       2.922   3.616  17.317  0.00  0.00    +0.000 C 
ATOM      3  C   UNL     1       3.469   3.516  19.797  0.00  0.00    +0.000 C 
ATOM      4  C   UNL     1       2.254   4.396  20.090  0.00  0.00    +0.000 C 
ATOM      5  N   UNL     1       2.836   5.330  19.140  0.00  0.00    +0.000 N 
ATOM      6  C   UNL     1       2.704   6.682  19.044  0.00  0.00    +0.000 C 
ATOM      7  O   UNL     1       3.167   7.301  18.086  0.00  0.00    +0.000 OA
ENDROOT
BRANCH   1   9
ATOM      8  N   UNL     1       5.619   5.358  17.021  0.00  0.00    +0.000 N 
ATOM      9  C   UNL     1       5.264   4.535  18.118  0.00  0.00    +0.000 C 
ATOM     10  O   UNL     1       6.155   3.975  18.757  0.00  0.00    +0.000 OA
ATOM     11  H   UNL     1       4.904   5.866  16.495  0.00  0.00    +0.000 HD
BRANCH   8  12
ATOM     12  S   UNL     1       7.150   5.341  16.252  0.00  0.00    +0.000 S 
ATOM     13  O   UNL     1       7.913   4.331  16.956  0.00  0.00    +0.000 OA
ATOM     14  O   UNL     1       7.631   6.702  16.172  0.00  0.00    +0.000 OA
BRANCH  12  21
ATOM     15  C   UNL     1       8.996   5.830  13.461  0.00  0.00    +0.000 C 
ATOM     16  C   UNL     1       7.694   5.066  13.452  0.00  0.00    +0.000 A 
ATOM     17  C   UNL     1       7.256   4.631  12.178  0.00  0.00    +0.000 A 
ATOM     18  C   UNL     1       6.151   3.796  12.041  0.00  0.00    +0.000 A 
ATOM     19  C   UNL     1       5.493   3.336  13.174  0.00  0.00    +0.000 A 
ATOM     20  C   UNL     1       5.873   3.783  14.434  0.00  0.00    +0.000 A 
ATOM     21  C   UNL     1       6.918   4.708  14.584  0.00  0.00    +0.000 A 
ENDBRANCH  12  21
ENDBRANCH   8  12
ENDBRANCH   1   9
BRANCH   6  22
ATOM     22  C   UNL     1       2.065   7.376  20.275  0.00  0.00    +0.000 C 
BRANCH  22  23
ATOM     23  C   UNL     1       1.282   8.622  19.872  0.00  0.00    +0.000 A 
ATOM     24  C   UNL     1       0.398   9.188  20.771  0.00  0.00    +0.000 A 
ATOM     25  C   UNL     1      -0.384  10.300  20.437  0.00  0.00    +0.000 A 
ATOM     26  C   UNL     1      -0.298  10.939  19.194  0.00  0.00    +0.000 A 
ATOM     27  C   UNL     1       0.626  10.381  18.289  0.00  0.00    +0.000 A 
ATOM     28  C   UNL     1       1.402   9.250  18.618  0.00  0.00    +0.000 A 
BRANCH  26  29
ATOM     29  C   UNL     1      -1.245  12.115  18.861  0.00  0.00    +0.000 C 
ATOM     30  C   UNL     1      -2.074  12.566  20.095  0.00  0.00    +0.000 C 
ATOM     31  C   UNL     1      -0.533  13.389  18.354  0.00  0.00    +0.000 C 
ATOM     32  C   UNL     1      -2.238  11.662  17.768  0.00  0.00    +0.000 C 
ENDBRANCH  26  29
ENDBRANCH  22  23
ENDBRANCH   6  22
TORSDOF 6
ENDMDL
MODEL 2
REMARK VINA RESULT:      -8.7      5.315     11.250
REMARK  Name = 
REMARK  11 active torsions:
REMARK  status: ('A' for Active; 'I' for Inactive)
REMARK    1  A    between atoms: C_1  and  C_2
REMARK    2  A    between atoms: C_7  and  S_8
REMARK    3  A    between atoms: S_8  and  N_11
REMARK    4  A    between atoms: C_12  and  C_14
REMARK    5  A    between atoms: C_14  and  C_15
REMARK    6  A    between atoms: C_19  and  C_21
REMARK    7  A    between atoms: C_21  and  C_22
REMARK    8  A    between atoms: C_25  and  C_26
REMARK    9  A    between atoms: C_26  and  C_27
REMARK   10  A    between atoms: C_26  and  C_28
REMARK   11  A    between atoms: C_26  and  C_29
REMARK                            x       y       z     vdW  Elec       q    Type
REMARK                         _______ _______ _______ _____ _____    ______ ____
ROOT
ATOM      1  C   UNL     1       0.694  12.283  19.360  0.00  0.00    +0.000 C 
ATOM      2  C   UNL     1      -0.207  13.169  18.486  0.00  0.00    +0.000 C 
ATOM      3  C   UNL     1       2.145  12.899  19.412  0.00  0.00    +0.000 C 
ATOM      4  C   UNL     1       2.511  12.040  18.202  0.00  0.00    +0.000 C 
ATOM      5  N   UNL     1       1.367  11.223  18.569  0.00  0.00    +0.000 N 
ATOM      6  C   UNL     1       1.117   9.904  18.337  0.00  0.00    +0.000 C 
ATOM      7  O   UNL     1       0.025   9.405  18.607  0.00  0.00    +0.000 OA
ENDROOT
BRANCH   1   9
ATOM      8  N   UNL     1      -1.304  12.259  21.067  0.00  0.00    +0.000 N 
ATOM      9  C   UNL     1       0.081  12.047  20.859  0.00  0.00    +0.000 C 
ATOM     10  O   UNL     1       0.788  11.733  21.817  0.00  0.00    +0.000 OA
ATOM     11  H   UNL     1      -1.922  12.484  20.285  0.00  0.00    +0.000 HD
BRANCH   8  12
ATOM     12  S   UNL     1      -2.027  12.503  22.601  0.00  0.00    +0.000 S 
ATOM     13  O   UNL     1      -1.425  13.719  23.111  0.00  0.00    +0.000 OA
ATOM     14  O   UNL     1      -1.932  11.269  23.348  0.00  0.00    +0.000 OA
BRANCH  12  21
ATOM     15  C   UNL     1      -4.609  12.547  24.784  0.00  0.00    +0.000 C 
ATOM     16  C   UNL     1      -4.792  12.769  23.302  0.00  0.00    +0.000 A 
ATOM     17  C   UNL     1      -6.133  12.921  22.874  0.00  0.00    +0.000 A 
ATOM     18  C   UNL     1      -6.436  13.274  21.562  0.00  0.00    +0.000 A 
ATOM     19  C   UNL     1      -5.408  13.533  20.665  0.00  0.00    +0.000 A 
ATOM     20  C   UNL     1      -4.084  13.347  21.046  0.00  0.00    +0.000 A 
ATOM     21  C   UNL     1      -3.763  12.889  22.333  0.00  0.00    +0.000 A 
ENDBRANCH  12  21
ENDBRANCH   8  12
ENDBRANCH   1   9
BRANCH   6  22
ATOM     22  C   UNL     1       2.334   9.074  17.851  0.00  0.00    +0.000 C 
BRANCH  22  23
ATOM     23  C   UNL     1       2.267   7.636  18.354  0.00  0.00    +0.000 A 
ATOM     24  C   UNL     1       2.140   7.397  19.710  0.00  0.00    +0.000 A 
ATOM     25  C   UNL     1       2.127   6.098  20.233  0.00  0.00    +0.000 A 
ATOM     26  C   UNL     1       2.199   4.957  19.425  0.00  0.00    +0.000 A 
ATOM     27  C   UNL     1       2.296   5.201  18.040  0.00  0.00    +0.000 A 
ATOM     28  C   UNL     1       2.327   6.509  17.514  0.00  0.00    +0.000 A 
BRANCH  26  29
ATOM     29  C   UNL     1       2.257   3.553  20.070  0.00  0.00    +0.000 C 
ATOM     30  C   UNL     1       1.077   2.651  19.615  0.00  0.00    +0.000 C 
ATOM     31  C   UNL     1       3.537   2.751  19.749  0.00  0.00    +0.000 C 
ATOM     32  C   UNL     1       2.166   3.705  21.604  0.00  0.00    +0.000 C 
ENDBRANCH  26  29
ENDBRANCH  22  23
ENDBRANCH   6  22
TORSDOF 6
ENDMDL
MODEL 3
REMARK VINA RESULT:      -8.6      0.851      1.263
REMARK  Name = 
REMARK  11 active torsions:
REMARK  status: ('A' for Active; 'I' for Inactive)
REMARK    1  A    between atoms: C_1  and  C_2
REMARK    2  A    between atoms: C_7  and  S_8
REMARK    3  A    between atoms: S_8  and  N_11
REMARK    4  A    between atoms: C_12  and  C_14
REMARK    5  A    between atoms: C_14  and  C_15
REMARK    6  A    between atoms: C_19  and  C_21
REMARK    7  A    between atoms: C_21  and  C_22
REMARK    8  A    between atoms: C_25  and  C_26
REMARK    9  A    between atoms: C_26  and  C_27
REMARK   10  A    between atoms: C_26  and  C_28
REMARK   11  A    between atoms: C_26  and  C_29
REMARK                            x       y       z     vdW  Elec       q    Type
REMARK                         _______ _______ _______ _____ _____    ______ ____
ROOT
ATOM      1  C   UNL     1       3.781   4.043  18.509  0.00  0.00    +0.000 C 
ATOM      2  C   UNL     1       3.054   3.360  17.341  0.00  0.00    +0.000 C 
ATOM      3  C   UNL     1       3.731   3.108  19.778  0.00  0.00    +0.000 C 
ATOM      4  C   UNL     1       2.441   3.811  20.198  0.00  0.00    +0.000 C 
ATOM      5  N   UNL     1       2.865   4.886  19.317  0.00  0.00    +0.000 N 
ATOM      6  C   UNL     1       2.577   6.217  19.352  0.00  0.00    +0.000 C 
ATOM      7  O   UNL     1       2.919   6.967  18.438  0.00  0.00    +0.000 OA
ENDROOT
BRANCH   1   9
ATOM      8  N   UNL     1       5.556   5.098  16.884  0.00  0.00    +0.000 N 
ATOM      9  C   UNL     1       5.314   4.473  18.131  0.00  0.00    +0.000 C 
ATOM     10  O   UNL     1       6.267   4.233  18.874  0.00  0.00    +0.000 OA
ATOM     11  H   UNL     1       4.782   5.344  16.263  0.00  0.00    +0.000 HD
BRANCH   8  12
ATOM     12  S   UNL     1       7.093   5.202  16.134  0.00  0.00    +0.000 S 
ATOM     13  O   UNL     1       7.902   4.197  16.793  0.00  0.00    +0.000 OA
ATOM     14  O   UNL     1       7.503   6.588  16.133  0.00  0.00    +0.000 OA
BRANCH  12  21
ATOM     15  C   UNL     1       9.022   5.819  13.426  0.00  0.00    +0.000 C 
ATOM     16  C   UNL     1       7.721   5.058  13.342  0.00  0.00    +0.000 A 
ATOM     17  C   UNL     1       7.321   4.685  12.036  0.00  0.00    +0.000 A 
ATOM     18  C   UNL     1       6.220   3.860  11.827  0.00  0.00    +0.000 A 
ATOM     19  C   UNL     1       5.528   3.348  12.917  0.00  0.00    +0.000 A 
ATOM     20  C   UNL     1       5.871   3.734  14.207  0.00  0.00    +0.000 A 
ATOM     21  C   UNL     1       6.911   4.649  14.432  0.00  0.00    +0.000 A 
ENDBRANCH  12  21
ENDBRANCH   8  12
ENDBRANCH   1   9
BRANCH   6  22
ATOM     22  C   UNL     1       1.926   6.720  20.666  0.00  0.00    +0.000 C 
BRANCH  22  23
ATOM     23  C   UNL     1       1.424   8.155  20.529  0.00  0.00    +0.000 A 
ATOM     24  C   UNL     1       1.038   8.850  21.659  0.00  0.00    +0.000 A 
ATOM     25  C   UNL     1       0.522  10.149  21.588  0.00  0.00    +0.000 A 
ATOM     26  C   UNL     1       0.399  10.848  20.380  0.00  0.00    +0.000 A 
ATOM     27  C   UNL     1       0.822  10.150  19.231  0.00  0.00    +0.000 A 
ATOM     28  C   UNL     1       1.326   8.835  19.301  0.00  0.00    +0.000 A 
BRANCH  26  29
ATOM     29  C   UNL     1      -0.251  12.251  20.360  0.00  0.00    +0.000 C 
ATOM     30  C   UNL     1      -0.419  12.797  18.915  0.00  0.00    +0.000 C 
ATOM     31  C   UNL     1      -1.659  12.316  20.992  0.00  0.00    +0.000 C 
ATOM     32  C   UNL     1       0.658  13.233  21.130  0.00  0.00    +0.000 C 
ENDBRANCH  26  29
ENDBRANCH  22  23
ENDBRANCH   6  22
TORSDOF 6
ENDMDL
MODEL 4
REMARK VINA RESULT:      -8.5      5.393     11.289
REMARK  Name = 
REMARK  11 active torsions:
REMARK  status: ('A' for Active; 'I' for Inactive)
REMARK    1  A    between atoms: C_1  and  C_2
REMARK    2  A    between atoms: C_7  and  S_8
REMARK    3  A    between atoms: S_8  and  N_11
REMARK    4  A    between atoms: C_12  and  C_14
REMARK    5  A    between atoms: C_14  and  C_15
REMARK    6  A    between atoms: C_19  and  C_21
REMARK    7  A    between atoms: C_21  and  C_22
REMARK    8  A    between atoms: C_25  and  C_26
REMARK    9  A    between atoms: C_26  and  C_27
REMARK   10  A    between atoms: C_26  and  C_28
REMARK   11  A    between atoms: C_26  and  C_29
REMARK                            x       y       z     vdW  Elec       q    Type
REMARK                         _______ _______ _______ _____ _____    ______ ____
ROOT
ATOM      1  C   UNL     1       0.505  12.429  19.298  0.00  0.00    +0.000 C 
ATOM      2  C   UNL     1      -0.365  13.129  18.243  0.00  0.00    +0.000 C 
ATOM      3  C   UNL     1       1.904  13.153  19.389  0.00  0.00    +0.000 C 
ATOM      4  C   UNL     1       2.434  12.180  18.337  0.00  0.00    +0.000 C 
ATOM      5  N   UNL     1       1.314  11.332  18.712  0.00  0.00    +0.000 N 
ATOM      6  C   UNL     1       1.171   9.979  18.635  0.00  0.00    +0.000 C 
ATOM      7  O   UNL     1       0.092   9.438  18.876  0.00  0.00    +0.000 OA
ENDROOT
BRANCH   1   9
ATOM      8  N   UNL     1      -1.642  12.380  20.812  0.00  0.00    +0.000 N 
ATOM      9  C   UNL     1      -0.228  12.338  20.758  0.00  0.00    +0.000 C 
ATOM     10  O   UNL     1       0.409  12.277  21.811  0.00  0.00    +0.000 OA
ATOM     11  H   UNL     1      -2.198  12.393  19.953  0.00  0.00    +0.000 HD
BRANCH   8  12
ATOM     12  S   UNL     1      -2.548  12.748  22.218  0.00  0.00    +0.000 S 
ATOM     13  O   UNL     1      -2.227  14.128  22.522  0.00  0.00    +0.000 OA
ATOM     14  O   UNL     1      -2.312  11.708  23.194  0.00  0.00    +0.000 OA
BRANCH  12  21
ATOM     15  C   UNL     1      -5.290  13.339  24.107  0.00  0.00    +0.000 C 
ATOM     16  C   UNL     1      -5.374  12.890  22.667  0.00  0.00    +0.000 A 
ATOM     17  C   UNL     1      -6.683  12.658  22.181  0.00  0.00    +0.000 A 
ATOM     18  C   UNL     1      -6.916  12.381  20.837  0.00  0.00    +0.000 A 
ATOM     19  C   UNL     1      -5.854  12.382  19.942  0.00  0.00    +0.000 A 
ATOM     20  C   UNL     1      -4.553  12.561  20.400  0.00  0.00    +0.000 A 
ATOM     21  C   UNL     1      -4.289  12.737  21.767  0.00  0.00    +0.000 A 
ENDBRANCH  12  21
ENDBRANCH   8  12
ENDBRANCH   1   9
BRANCH   6  22
ATOM     22  C   UNL     1       2.477   9.188  18.366  0.00  0.00    +0.000 C 
BRANCH  22  23
ATOM     23  C   UNL     1       2.302   7.701  18.660  0.00  0.00    +0.000 A 
ATOM     24  C   UNL     1       2.152   7.282  19.968  0.00  0.00    +0.000 A 
ATOM     25  C   UNL     1       2.040   5.926  20.301  0.00  0.00    +0.000 A 
ATOM     26  C   UNL     1       2.030   4.910  19.338  0.00  0.00    +0.000 A 
ATOM     27  C   UNL     1       2.151   5.341  18.001  0.00  0.00    +0.000 A 
ATOM     28  C   UNL     1       2.282   6.704  17.667  0.00  0.00    +0.000 A 
BRANCH  26  29
ATOM     29  C   UNL     1       1.981   3.428  19.776  0.00  0.00    +0.000 C 
ATOM     30  C   UNL     1       3.401   2.824  19.957  0.00  0.00    +0.000 C 
ATOM     31  C   UNL     1       1.252   3.178  21.115  0.00  0.00    +0.000 C 
ATOM     32  C   UNL     1       1.259   2.608  18.684  0.00  0.00    +0.000 C 
ENDBRANCH  26  29
ENDBRANCH  22  23
ENDBRANCH   6  22
TORSDOF 6
ENDMDL
MODEL 5
REMARK VINA RESULT:      -8.4      5.394     11.426
REMARK  Name = 
REMARK  11 active torsions:
REMARK  status: ('A' for Active; 'I' for Inactive)
REMARK    1  A    between atoms: C_1  and  C_2
REMARK    2  A    between atoms: C_7  and  S_8
REMARK    3  A    between atoms: S_8  and  N_11
REMARK    4  A    between atoms: C_12  and  C_14
REMARK    5  A    between atoms: C_14  and  C_15
REMARK    6  A    between atoms: C_19  and  C_21
REMARK    7  A    between atoms: C_21  and  C_22
REMARK    8  A    between atoms: C_25  and  C_26
REMARK    9  A    between atoms: C_26  and  C_27
REMARK   10  A    between atoms: C_26  and  C_28
REMARK   11  A    between atoms: C_26  and  C_29
REMARK                            x       y       z     vdW  Elec       q    Type
REMARK                         _______ _______ _______ _____ _____    ______ ____
ROOT
ATOM      1  C   UNL     1      -0.642  11.276  19.472  0.00  0.00    +0.000 C 
ATOM      2  C   UNL     1      -1.648  10.875  18.383  0.00  0.00    +0.000 C 
ATOM      3  C   UNL     1       0.643  11.895  18.798  0.00  0.00    +0.000 C 
ATOM      4  C   UNL     1       1.258  10.497  18.774  0.00  0.00    +0.000 C 
ATOM      5  N   UNL     1       0.288  10.169  19.806  0.00  0.00    +0.000 N 
ATOM      6  C   UNL     1       0.334   9.228  20.789  0.00  0.00    +0.000 C 
ATOM      7  O   UNL     1      -0.645   8.998  21.498  0.00  0.00    +0.000 OA
ENDROOT
BRANCH   1   9
ATOM      8  N   UNL     1      -2.049  11.730  21.644  0.00  0.00    +0.000 N 
ATOM      9  C   UNL     1      -1.289  12.285  20.586  0.00  0.00    +0.000 C 
ATOM     10  O   UNL     1      -1.174  13.509  20.511  0.00  0.00    +0.000 OA
ATOM     11  H   UNL     1      -2.131  10.716  21.754  0.00  0.00    +0.000 HD
BRANCH   8  12
ATOM     12  S   UNL     1      -3.152  12.614  22.613  0.00  0.00    +0.000 S 
ATOM     13  O   UNL     1      -2.611  13.956  22.669  0.00  0.00    +0.000 OA
ATOM     14  O   UNL     1      -3.387  11.866  23.828  0.00  0.00    +0.000 OA
BRANCH  12  21
ATOM     15  C   UNL     1      -6.264  13.361  23.704  0.00  0.00    +0.000 C 
ATOM     16  C   UNL     1      -5.977  12.957  22.278  0.00  0.00    +0.000 A 
ATOM     17  C   UNL     1      -7.113  12.836  21.442  0.00  0.00    +0.000 A 
ATOM     18  C   UNL     1      -6.983  12.611  20.075  0.00  0.00    +0.000 A 
ATOM     19  C   UNL     1      -5.717  12.554  19.505  0.00  0.00    +0.000 A 
ATOM     20  C   UNL     1      -4.585  12.624  20.309  0.00  0.00    +0.000 A 
ATOM     21  C   UNL     1      -4.698  12.745  21.702  0.00  0.00    +0.000 A 
ENDBRANCH  12  21
ENDBRANCH   8  12
ENDBRANCH   1   9
BRANCH   6  22
ATOM     22  C   UNL     1       1.726   8.588  21.030  0.00  0.00    +0.000 C 
BRANCH  22  23
ATOM     23  C   UNL     1       1.846   7.233  20.338  0.00  0.00    +0.000 A 
ATOM     24  C   UNL     1       1.382   6.100  20.981  0.00  0.00    +0.000 A 
ATOM     25  C   UNL     1       1.514   4.825  20.417  0.00  0.00    +0.000 A 
ATOM     26  C   UNL     1       2.082   4.612  19.155  0.00  0.00    +0.000 A 
ATOM     27  C   UNL     1       2.526   5.770  18.487  0.00  0.00    +0.000 A 
ATOM     28  C   UNL     1       2.410   7.053  19.062  0.00  0.00    +0.000 A 
BRANCH  26  29
ATOM     29  C   UNL     1       2.267   3.172  18.623  0.00  0.00    +0.000 C 
ATOM     30  C   UNL     1       2.649   3.150  17.117  0.00  0.00    +0.000 C 
ATOM     31  C   UNL     1       3.368   2.359  19.339  0.00  0.00    +0.000 C 
ATOM     32  C   UNL     1       0.936   2.406  18.781  0.00  0.00    +0.000 C 
ENDBRANCH  26  29
ENDBRANCH  22  23
ENDBRANCH   6  22
TORSDOF 6
ENDMDL
MODEL 6
REMARK VINA RESULT:      -8.4      5.446     11.607
REMARK  Name = 
REMARK  11 active torsions:
REMARK  status: ('A' for Active; 'I' for Inactive)
REMARK    1  A    between atoms: C_1  and  C_2
REMARK    2  A    between atoms: C_7  and  S_8
REMARK    3  A    between atoms: S_8  and  N_11
REMARK    4  A    between atoms: C_12  and  C_14
REMARK    5  A    between atoms: C_14  and  C_15
REMARK    6  A    between atoms: C_19  and  C_21
REMARK    7  A    between atoms: C_21  and  C_22
REMARK    8  A    between atoms: C_25  and  C_26
REMARK    9  A    between atoms: C_26  and  C_27
REMARK   10  A    between atoms: C_26  and  C_28
REMARK   11  A    between atoms: C_26  and  C_29
REMARK                            x       y       z     vdW  Elec       q    Type
REMARK                         _______ _______ _______ _____ _____    ______ ____
ROOT
ATOM      1  C   UNL     1       0.329  12.351  19.522  0.00  0.00    +0.000 C 
ATOM      2  C   UNL     1      -0.512  13.285  18.639  0.00  0.00    +0.000 C 
ATOM      3  C   UNL     1       1.759  12.980  19.739  0.00  0.00    +0.000 C 
ATOM      4  C   UNL     1       2.241  12.214  18.507  0.00  0.00    +0.000 C 
ATOM      5  N   UNL     1       1.085  11.358  18.719  0.00  0.00    +0.000 N 
ATOM      6  C   UNL     1       0.880  10.056  18.375  0.00  0.00    +0.000 C 
ATOM      7  O   UNL     1      -0.221   9.525  18.517  0.00  0.00    +0.000 OA
ENDROOT
BRANCH   1   9
ATOM      8  N   UNL     1      -1.385  12.893  21.439  0.00  0.00    +0.000 N 
ATOM      9  C   UNL     1      -0.403  12.001  20.943  0.00  0.00    +0.000 C 
ATOM     10  O   UNL     1      -0.099  11.015  21.615  0.00  0.00    +0.000 OA
ATOM     11  H   UNL     1      -1.685  13.701  20.887  0.00  0.00    +0.000 HD
BRANCH   8  12
ATOM     12  S   UNL     1      -1.914  12.944  23.068  0.00  0.00    +0.000 S 
ATOM     13  O   UNL     1      -0.875  13.662  23.778  0.00  0.00    +0.000 OA
ATOM     14  O   UNL     1      -2.284  11.605  23.466  0.00  0.00    +0.000 OA
BRANCH  12  21
ATOM     15  C   UNL     1      -4.830  12.734  21.368  0.00  0.00    +0.000 C 
ATOM     16  C   UNL     1      -4.509  13.882  22.295  0.00  0.00    +0.000 A 
ATOM     17  C   UNL     1      -5.482  14.909  22.346  0.00  0.00    +0.000 A 
ATOM     18  C   UNL     1      -5.383  15.953  23.261  0.00  0.00    +0.000 A 
ATOM     19  C   UNL     1      -4.340  15.965  24.179  0.00  0.00    +0.000 A 
ATOM     20  C   UNL     1      -3.346  14.995  24.121  0.00  0.00    +0.000 A 
ATOM     21  C   UNL     1      -3.373  13.995  23.137  0.00  0.00    +0.000 A 
ENDBRANCH  12  21
ENDBRANCH   8  12
ENDBRANCH   1   9
BRANCH   6  22
ATOM     22  C   UNL     1       2.148   9.279  17.937  0.00  0.00    +0.000 C 
BRANCH  22  23
ATOM     23  C   UNL     1       2.184   7.879  18.544  0.00  0.00    +0.000 A 
ATOM     24  C   UNL     1       2.396   6.789  17.721  0.00  0.00    +0.000 A 
ATOM     25  C   UNL     1       2.387   5.478  18.214  0.00  0.00    +0.000 A 
ATOM     26  C   UNL     1       2.206   5.183  19.571  0.00  0.00    +0.000 A 
ATOM     27  C   UNL     1       2.021   6.297  20.414  0.00  0.00    +0.000 A 
ATOM     28  C   UNL     1       2.013   7.616  19.915  0.00  0.00    +0.000 A 
BRANCH  26  29
ATOM     29  C   UNL     1       2.129   3.711  20.040  0.00  0.00    +0.000 C 
ATOM     30  C   UNL     1       0.834   3.008  19.548  0.00  0.00    +0.000 C 
ATOM     31  C   UNL     1       3.293   2.821  19.553  0.00  0.00    +0.000 C 
ATOM     32  C   UNL     1       2.123   3.679  21.584  0.00  0.00    +0.000 C 
ENDBRANCH  26  29
ENDBRANCH  22  23
ENDBRANCH   6  22
TORSDOF 6
ENDMDL
MODEL 7
REMARK VINA RESULT:      -8.4      5.396     11.524
REMARK  Name = 
REMARK  11 active torsions:
REMARK  status: ('A' for Active; 'I' for Inactive)
REMARK    1  A    between atoms: C_1  and  C_2
REMARK    2  A    between atoms: C_7  and  S_8
REMARK    3  A    between atoms: S_8  and  N_11
REMARK    4  A    between atoms: C_12  and  C_14
REMARK    5  A    between atoms: C_14  and  C_15
REMARK    6  A    between atoms: C_19  and  C_21
REMARK    7  A    between atoms: C_21  and  C_22
REMARK    8  A    between atoms: C_25  and  C_26
REMARK    9  A    between atoms: C_26  and  C_27
REMARK   10  A    between atoms: C_26  and  C_28
REMARK   11  A    between atoms: C_26  and  C_29
REMARK                            x       y       z     vdW  Elec       q    Type
REMARK                         _______ _______ _______ _____ _____    ______ ____
ROOT
ATOM      1  C   UNL     1       0.558  12.422  19.517  0.00  0.00    +0.000 C 
ATOM      2  C   UNL     1      -0.367  13.299  18.658  0.00  0.00    +0.000 C 
ATOM      3  C   UNL     1       1.993  13.073  19.576  0.00  0.00    +0.000 C 
ATOM      4  C   UNL     1       2.378  12.242  18.353  0.00  0.00    +0.000 C 
ATOM      5  N   UNL     1       1.255  11.391  18.710  0.00  0.00    +0.000 N 
ATOM      6  C   UNL     1       1.038  10.070  18.459  0.00  0.00    +0.000 C 
ATOM      7  O   UNL     1      -0.041   9.540  18.723  0.00  0.00    +0.000 OA
ENDROOT
BRANCH   1   9
ATOM      8  N   UNL     1      -1.273  12.758  21.372  0.00  0.00    +0.000 N 
ATOM      9  C   UNL     1      -0.046  12.149  21.014  0.00  0.00    +0.000 C 
ATOM     10  O   UNL     1       0.549  11.468  21.850  0.00  0.00    +0.000 OA
ATOM     11  H   UNL     1      -1.809  13.298  20.689  0.00  0.00    +0.000 HD
BRANCH   8  12
ATOM     12  S   UNL     1      -1.820  12.962  22.983  0.00  0.00    +0.000 S 
ATOM     13  O   UNL     1      -0.794  13.754  23.631  0.00  0.00    +0.000 OA
ATOM     14  O   UNL     1      -2.183  11.664  23.506  0.00  0.00    +0.000 OA
BRANCH  12  21
ATOM     15  C   UNL     1      -2.292  15.999  21.572  0.00  0.00    +0.000 C 
ATOM     16  C   UNL     1      -3.348  15.317  22.409  0.00  0.00    +0.000 A 
ATOM     17  C   UNL     1      -4.526  16.071  22.629  0.00  0.00    +0.000 A 
ATOM     18  C   UNL     1      -5.633  15.512  23.259  0.00  0.00    +0.000 A 
ATOM     19  C   UNL     1      -5.607  14.175  23.635  0.00  0.00    +0.000 A 
ATOM     20  C   UNL     1      -4.449  13.425  23.473  0.00  0.00    +0.000 A 
ATOM     21  C   UNL     1      -3.287  14.002  22.936  0.00  0.00    +0.000 A 
ENDBRANCH  12  21
ENDBRANCH   8  12
ENDBRANCH   1   9
BRANCH   6  22
ATOM     22  C   UNL     1       2.273   9.278  17.958  0.00  0.00    +0.000 C 
BRANCH  22  23
ATOM     23  C   UNL     1       2.262   7.841  18.470  0.00  0.00    +0.000 A 
ATOM     24  C   UNL     1       2.387   6.800  17.570  0.00  0.00    +0.000 A 
ATOM     25  C   UNL     1       2.331   5.461  17.977  0.00  0.00    +0.000 A 
ATOM     26  C   UNL     1       2.187   5.084  19.318  0.00  0.00    +0.000 A 
ATOM     27  C   UNL     1       2.092   6.146  20.239  0.00  0.00    +0.000 A 
ATOM     28  C   UNL     1       2.131   7.495  19.828  0.00  0.00    +0.000 A 
BRANCH  26  29
ATOM     29  C   UNL     1       2.055   3.590  19.692  0.00  0.00    +0.000 C 
ATOM     30  C   UNL     1       1.181   3.380  20.959  0.00  0.00    +0.000 C 
ATOM     31  C   UNL     1       1.414   2.708  18.598  0.00  0.00    +0.000 C 
ATOM     32  C   UNL     1       3.460   3.024  19.993  0.00  0.00    +0.000 C 
ENDBRANCH  26  29
ENDBRANCH  22  23
ENDBRANCH   6  22
TORSDOF 6
ENDMDL
MODEL 8
REMARK VINA RESULT:      -8.3      5.391     11.794
REMARK  Name = 
REMARK  11 active torsions:
REMARK  status: ('A' for Active; 'I' for Inactive)
REMARK    1  A    between atoms: C_1  and  C_2
REMARK    2  A    between atoms: C_7  and  S_8
REMARK    3  A    between atoms: S_8  and  N_11
REMARK    4  A    between atoms: C_12  and  C_14
REMARK    5  A    between atoms: C_14  and  C_15
REMARK    6  A    between atoms: C_19  and  C_21
REMARK    7  A    between atoms: C_21  and  C_22
REMARK    8  A    between atoms: C_25  and  C_26
REMARK    9  A    between atoms: C_26  and  C_27
REMARK   10  A    between atoms: C_26  and  C_28
REMARK   11  A    between atoms: C_26  and  C_29
REMARK                            x       y       z     vdW  Elec       q    Type
REMARK                         _______ _______ _______ _____ _____    ______ ____
ROOT
ATOM      1  C   UNL     1      -0.906  11.073  19.589  0.00  0.00    +0.000 C 
ATOM      2  C   UNL     1      -1.925  10.644  18.522  0.00  0.00    +0.000 C 
ATOM      3  C   UNL     1       0.276  11.858  18.901  0.00  0.00    +0.000 C 
ATOM      4  C   UNL     1       1.021  10.532  18.755  0.00  0.00    +0.000 C 
ATOM      5  N   UNL     1       0.141  10.045  19.804  0.00  0.00    +0.000 N 
ATOM      6  C   UNL     1       0.329   9.053  20.719  0.00  0.00    +0.000 C 
ATOM      7  O   UNL     1      -0.586   8.683  21.454  0.00  0.00    +0.000 OA
ENDROOT
BRANCH   1   9
ATOM      8  N   UNL     1      -2.943  12.335  20.669  0.00  0.00    +0.000 N 
ATOM      9  C   UNL     1      -1.589  11.941  20.797  0.00  0.00    +0.000 C 
ATOM     10  O   UNL     1      -0.955  12.297  21.791  0.00  0.00    +0.000 OA
ATOM     11  H   UNL     1      -3.506  12.024  19.874  0.00  0.00    +0.000 HD
BRANCH   8  12
ATOM     12  S   UNL     1      -3.677  13.591  21.575  0.00  0.00    +0.000 S 
ATOM     13  O   UNL     1      -3.975  14.627  20.608  0.00  0.00    +0.000 OA
ATOM     14  O   UNL     1      -2.839  13.873  22.719  0.00  0.00    +0.000 OA
BRANCH  12  21
ATOM     15  C   UNL     1      -6.146  12.002  19.897  0.00  0.00    +0.000 C 
ATOM     16  C   UNL     1      -6.286  12.429  21.338  0.00  0.00    +0.000 A 
ATOM     17  C   UNL     1      -7.553  12.189  21.921  0.00  0.00    +0.000 A 
ATOM     18  C   UNL     1      -7.776  12.401  23.278  0.00  0.00    +0.000 A 
ATOM     19  C   UNL     1      -6.726  12.807  24.091  0.00  0.00    +0.000 A 
ATOM     20  C   UNL     1      -5.483  13.094  23.538  0.00  0.00    +0.000 A 
ATOM     21  C   UNL     1      -5.269  12.988  22.155  0.00  0.00    +0.000 A 
ENDBRANCH  12  21
ENDBRANCH   8  12
ENDBRANCH   1   9
BRANCH   6  22
ATOM     22  C   UNL     1       1.786   8.540  20.852  0.00  0.00    +0.000 C 
BRANCH  22  23
ATOM     23  C   UNL     1       1.926   7.112  20.333  0.00  0.00    +0.000 A 
ATOM     24  C   UNL     1       2.524   6.892  19.106  0.00  0.00    +0.000 A 
ATOM     25  C   UNL     1       2.633   5.608  18.557  0.00  0.00    +0.000 A 
ATOM     26  C   UNL     1       2.186   4.461  19.224  0.00  0.00    +0.000 A 
ATOM     27  C   UNL     1       1.606   4.683  20.489  0.00  0.00    +0.000 A 
ATOM     28  C   UNL     1       1.480   5.977  21.034  0.00  0.00    +0.000 A 
BRANCH  26  29
ATOM     29  C   UNL     1       2.265   3.082  18.530  0.00  0.00    +0.000 C 
ATOM     30  C   UNL     1       3.405   2.200  19.110  0.00  0.00    +0.000 C 
ATOM     31  C   UNL     1       0.983   2.228  18.647  0.00  0.00    +0.000 C 
ATOM     32  C   UNL     1       2.556   3.294  17.028  0.00  0.00    +0.000 C 
ENDBRANCH  26  29
ENDBRANCH  22  23
ENDBRANCH   6  22
TORSDOF 6
ENDMDL
MODEL 9
REMARK VINA RESULT:      -8.2      0.744      1.464
REMARK  Name = 
REMARK  11 active torsions:
REMARK  status: ('A' for Active; 'I' for Inactive)
REMARK    1  A    between atoms: C_1  and  C_2
REMARK    2  A    between atoms: C_7  and  S_8
REMARK    3  A    between atoms: S_8  and  N_11
REMARK    4  A    between atoms: C_12  and  C_14
REMARK    5  A    between atoms: C_14  and  C_15
REMARK    6  A    between atoms: C_19  and  C_21
REMARK    7  A    between atoms: C_21  and  C_22
REMARK    8  A    between atoms: C_25  and  C_26
REMARK    9  A    between atoms: C_26  and  C_27
REMARK   10  A    between atoms: C_26  and  C_28
REMARK   11  A    between atoms: C_26  and  C_29
REMARK                            x       y       z     vdW  Elec       q    Type
REMARK                         _______ _______ _______ _____ _____    ______ ____
ROOT
ATOM      1  C   UNL     1       3.581   4.622  18.751  0.00  0.00    +0.000 C 
ATOM      2  C   UNL     1       2.866   3.950  17.569  0.00  0.00    +0.000 C 
ATOM      3  C   UNL     1       3.431   3.721  20.037  0.00  0.00    +0.000 C 
ATOM      4  C   UNL     1       2.165   4.501  20.388  0.00  0.00    +0.000 C 
ATOM      5  N   UNL     1       2.681   5.531  19.502  0.00  0.00    +0.000 N 
ATOM      6  C   UNL     1       2.464   6.875  19.496  0.00  0.00    +0.000 C 
ATOM      7  O   UNL     1       2.882   7.584  18.581  0.00  0.00    +0.000 OA
ENDROOT
BRANCH   1   9
ATOM      8  N   UNL     1       5.484   5.471  17.149  0.00  0.00    +0.000 N 
ATOM      9  C   UNL     1       5.149   4.960  18.427  0.00  0.00    +0.000 C 
ATOM     10  O   UNL     1       6.050   4.746  19.239  0.00  0.00    +0.000 OA
ATOM     11  H   UNL     1       4.755   5.694  16.467  0.00  0.00    +0.000 HD
BRANCH   8  12
ATOM     12  S   UNL     1       7.062   5.454  16.481  0.00  0.00    +0.000 S 
ATOM     13  O   UNL     1       7.744   4.370  17.156  0.00  0.00    +0.000 OA
ATOM     14  O   UNL     1       7.589   6.799  16.533  0.00  0.00    +0.000 OA
BRANCH  12  21
ATOM     15  C   UNL     1       4.915   3.294  15.012  0.00  0.00    +0.000 C 
ATOM     16  C   UNL     1       6.052   3.947  14.263  0.00  0.00    +0.000 A 
ATOM     17  C   UNL     1       6.207   3.534  12.918  0.00  0.00    +0.000 A 
ATOM     18  C   UNL     1       7.120   4.157  12.073  0.00  0.00    +0.000 A 
ATOM     19  C   UNL     1       7.859   5.239  12.536  0.00  0.00    +0.000 A 
ATOM     20  C   UNL     1       7.759   5.636  13.865  0.00  0.00    +0.000 A 
ATOM     21  C   UNL     1       6.922   4.951  14.760  0.00  0.00    +0.000 A 
ENDBRANCH  12  21
ENDBRANCH   8  12
ENDBRANCH   1   9
BRANCH   6  22
ATOM     22  C   UNL     1       1.789   7.444  20.771  0.00  0.00    +0.000 C 
BRANCH  22  23
ATOM     23  C   UNL     1       1.090   8.771  20.490  0.00  0.00    +0.000 A 
ATOM     24  C   UNL     1       0.693   9.566  21.548  0.00  0.00    +0.000 A 
ATOM     25  C   UNL     1       0.002  10.767  21.351  0.00  0.00    +0.000 A 
ATOM     26  C   UNL     1      -0.298  11.267  20.078  0.00  0.00    +0.000 A 
ATOM     27  C   UNL     1       0.135  10.471  18.998  0.00  0.00    +0.000 A 
ATOM     28  C   UNL     1       0.816   9.253  19.196  0.00  0.00    +0.000 A 
BRANCH  26  29
ATOM     29  C   UNL     1      -1.131  12.561  19.930  0.00  0.00    +0.000 C 
ATOM     30  C   UNL     1      -1.325  13.290  21.288  0.00  0.00    +0.000 C 
ATOM     31  C   UNL     1      -0.520  13.614  18.980  0.00  0.00    +0.000 C 
ATOM     32  C   UNL     1      -2.531  12.194  19.391  0.00  0.00    +0.000 C 
ENDBRANCH  26  29
ENDBRANCH  22  23
ENDBRANCH   6  22
TORSDOF 6
ENDMDL
