MODEL 1
REMARK VINA RESULT:      -7.7      0.000      0.000
REMARK  Name = 
REMARK  8 active torsions:
REMARK  status: ('A' for Active; 'I' for Inactive)
REMARK    1  A    between atoms: C_1  and  O_2
REMARK    2  A    between atoms: O_2  and  C_3
REMARK    3  A    between atoms: C_8  and  O_9
REMARK    4  A    between atoms: O_9  and  C_10
REMARK    5  A    between atoms: C_13  and  O_14
REMARK    6  A    between atoms: O_14  and  C_15
REMARK    7  A    between atoms: C_19  and  C_20
REMARK    8  A    between atoms: C_20  and  N_21
REMARK                            x       y       z     vdW  Elec       q    Type
REMARK                         _______ _______ _______ _____ _____    ______ ____
ROOT
ATOM      1  C   UNL     1      -1.131  11.295  19.058  0.00  0.00    +0.000 A 
ATOM      2  C   UNL     1      -0.307  10.240  18.624  0.00  0.00    +0.000 A 
ATOM      3  C   UNL     1       0.430   9.535  19.568  0.00  0.00    +0.000 A 
ATOM      4  C   UNL     1       0.354   9.892  20.903  0.00  0.00    +0.000 A 
ATOM      5  C   UNL     1      -0.447  10.923  21.372  0.00  0.00    +0.000 A 
ATOM      6  C   UNL     1      -1.213  11.625  20.438  0.00  0.00    +0.000 A 
ATOM      7  C   UNL     1       1.287   9.062  21.650  0.00  0.00    +0.000 C 
ATOM      8  O   UNL     1       1.631   9.325  22.792  0.00  0.00    +0.000 OA
ATOM      9  C   UNL     1       1.793   7.915  20.761  0.00  0.00    +0.000 C 
ATOM     10  C   UNL     1       1.417   8.433  19.334  0.00  0.00    +0.000 C 
ENDROOT
BRANCH   1  12
ATOM     11  C   UNL     1      -2.423  11.496  17.058  0.00  0.00    +0.000 C 
ATOM     12  O   UNL     1      -1.855  12.099  18.211  0.00  0.00    +0.000 OA
ENDBRANCH   1  12
BRANCH   6  13
ATOM     13  O   UNL     1      -2.059  12.662  20.753  0.00  0.00    +0.000 OA
ATOM     14  C   UNL     1      -1.517  13.756  21.480  0.00  0.00    +0.000 C 
ENDBRANCH   6  13
BRANCH   9  15
ATOM     15  O   UNL     1       1.210   6.626  20.835  0.00  0.00    +0.000 OA
BRANCH  15  16
ATOM     16  C   UNL     1       1.882   5.476  20.579  0.00  0.00    +0.000 A 
ATOM     17  C   UNL     1       1.509   4.176  20.885  0.00  0.00    +0.000 A 
ATOM     18  C   UNL     1       2.280   3.101  20.426  0.00  0.00    +0.000 A 
ATOM     19  C   UNL     1       3.435   3.318  19.665  0.00  0.00    +0.000 A 
ATOM     20  C   UNL     1       3.863   4.620  19.401  0.00  0.00    +0.000 A 
ATOM     21  C   UNL     1       3.084   5.682  19.891  0.00  0.00    +0.000 A 
BRANCH  20  22
ATOM     22  C   UNL     1       5.134   4.896  18.612  0.00  0.00    +0.000 C 
BRANCH  22  23
ATOM     23  N   UNL     1       4.945   5.610  17.329  0.00  0.00    +0.000 NA
ATOM     24  C   UNL     1       5.395   4.776  16.185  0.00  0.00    +0.000 C 
ATOM     25  C   UNL     1       6.929   4.643  16.047  0.00  0.00    +0.000 C 
ATOM     26  O   UNL     1       7.593   5.914  16.056  0.00  0.00    +0.000 OA
ATOM     27  C   UNL     1       7.206   6.707  17.183  0.00  0.00    +0.000 C 
ATOM     28  C   UNL     1       5.681   6.886  17.232  0.00  0.00    +0.000 C 
ENDBRANCH  22  23
ENDBRANCH  20  22
ENDBRANCH  15  16
ENDBRANCH   9  15
TORSDOF 6
ENDMDL
MODEL 2
REMARK VINA RESULT:      -7.5      0.875      1.223
REMARK  Name = 
REMARK  8 active torsions:
REMARK  status: ('A' for Active; 'I' for Inactive)
REMARK    1  A    between atoms: C_1  and  O_2
REMARK    2  A    between atoms: O_2  and  C_3
REMARK    3  A    between atoms: C_8  and  O_9
REMARK    4  A    between atoms: O_9  and  C_10
REMARK    5  A    between atoms: C_13  and  O_14
REMARK    6  A    between atoms: O_14  and  C_15
REMARK    7  A    between atoms: C_19  and  C_20
REMARK    8  A    between atoms: C_20  and  N_21
REMARK                            x       y       z     vdW  Elec       q    Type
REMARK                         _______ _______ _______ _____ _____    ______ ____
ROOT
ATOM      1  C   UNL     1      -1.295  11.274  18.619  0.00  0.00    +0.000 A 
ATOM      2  C   UNL     1      -0.392  10.227  18.356  0.00  0.00    +0.000 A 
ATOM      3  C   UNL     1       0.315   9.672  19.416  0.00  0.00    +0.000 A 
ATOM      4  C   UNL     1       0.134  10.167  20.696  0.00  0.00    +0.000 A 
ATOM      5  C   UNL     1      -0.748  11.195  20.997  0.00  0.00    +0.000 A 
ATOM      6  C   UNL     1      -1.484  11.748  19.945  0.00  0.00    +0.000 A 
ATOM      7  C   UNL     1       1.056   9.477  21.586  0.00  0.00    +0.000 C 
ATOM      8  O   UNL     1       1.310   9.882  22.709  0.00  0.00    +0.000 OA
ATOM      9  C   UNL     1       1.675   8.271  20.862  0.00  0.00    +0.000 C 
ATOM     10  C   UNL     1       1.370   8.609  19.366  0.00  0.00    +0.000 C 
ENDROOT
BRANCH   1  12
ATOM     11  C   UNL     1      -2.647  11.157  16.652  0.00  0.00    +0.000 C 
ATOM     12  O   UNL     1      -2.000  11.940  17.645  0.00  0.00    +0.000 OA
ENDBRANCH   1  12
BRANCH   6  13
ATOM     13  O   UNL     1      -2.399  12.762  20.090  0.00  0.00    +0.000 OA
ATOM     14  C   UNL     1      -3.405  12.605  21.082  0.00  0.00    +0.000 C 
ENDBRANCH   6  13
BRANCH   9  15
ATOM     15  O   UNL     1       1.154   6.967  21.044  0.00  0.00    +0.000 OA
BRANCH  15  16
ATOM     16  C   UNL     1       1.643   5.863  20.425  0.00  0.00    +0.000 A 
ATOM     17  C   UNL     1       1.227   4.547  20.559  0.00  0.00    +0.000 A 
ATOM     18  C   UNL     1       1.774   3.555  19.737  0.00  0.00    +0.000 A 
ATOM     19  C   UNL     1       2.748   3.869  18.781  0.00  0.00    +0.000 A 
ATOM     20  C   UNL     1       3.225   5.175  18.674  0.00  0.00    +0.000 A 
ATOM     21  C   UNL     1       2.677   6.149  19.525  0.00  0.00    +0.000 A 
BRANCH  20  22
ATOM     22  C   UNL     1       4.311   5.548  17.675  0.00  0.00    +0.000 C 
BRANCH  22  23
ATOM     23  N   UNL     1       5.490   4.653  17.654  0.00  0.00    +0.000 NA
ATOM     24  C   UNL     1       6.703   5.359  18.139  0.00  0.00    +0.000 C 
ATOM     25  C   UNL     1       7.291   6.390  17.147  0.00  0.00    +0.000 C 
ATOM     26  O   UNL     1       7.500   5.837  15.841  0.00  0.00    +0.000 OA
ATOM     27  C   UNL     1       6.321   5.197  15.340  0.00  0.00    +0.000 C 
ATOM     28  C   UNL     1       5.822   4.121  16.317  0.00  0.00    +0.000 C 
ENDBRANCH  22  23
ENDBRANCH  20  22
ENDBRANCH  15  16
ENDBRANCH   9  15
TORSDOF 6
ENDMDL
MODEL 3
REMARK VINA RESULT:      -7.4      3.998      8.603
REMARK  Name = 
REMARK  8 active torsions:
REMARK  status: ('A' for Active; 'I' for Inactive)
REMARK    1  A    between atoms: C_1  and  O_2
REMARK    2  A    between atoms: O_2  and  C_3
REMARK    3  A    between atoms: C_8  and  O_9
REMARK    4  A    between atoms: O_9  and  C_10
REMARK    5  A    between atoms: C_13  and  O_14
REMARK    6  A    between atoms: O_14  and  C_15
REMARK    7  A    between atoms: C_19  and  C_20
REMARK    8  A    between atoms: C_20  and  N_21
REMARK                            x       y       z     vdW  Elec       q    Type
REMARK                         _______ _______ _______ _____ _____    ______ ____
ROOT
ATOM      1  C   UNL     1       1.880   3.614  19.597  0.00  0.00    +0.000 A 
ATOM      2  C   UNL     1       1.740   4.949  20.020  0.00  0.00    +0.000 A 
ATOM      3  C   UNL     1       2.307   5.958  19.250  0.00  0.00    +0.000 A 
ATOM      4  C   UNL     1       3.006   5.633  18.100  0.00  0.00    +0.000 A 
ATOM      5  C   UNL     1       3.165   4.330  17.648  0.00  0.00    +0.000 A 
ATOM      6  C   UNL     1       2.580   3.307  18.399  0.00  0.00    +0.000 A 
ATOM      7  C   UNL     1       3.566   6.856  17.546  0.00  0.00    +0.000 C 
ATOM      8  O   UNL     1       4.442   6.850  16.695  0.00  0.00    +0.000 OA
ATOM      9  C   UNL     1       2.951   8.076  18.248  0.00  0.00    +0.000 C 
ATOM     10  C   UNL     1       2.346   7.428  19.536  0.00  0.00    +0.000 C 
ENDROOT
BRANCH   1  12
ATOM     11  C   UNL     1       1.404   2.637  21.725  0.00  0.00    +0.000 C 
ATOM     12  O   UNL     1       1.418   2.534  20.309  0.00  0.00    +0.000 OA
ENDBRANCH   1  12
BRANCH   6  13
ATOM     13  O   UNL     1       2.644   1.974  18.073  0.00  0.00    +0.000 OA
ATOM     14  C   UNL     1       3.828   1.267  18.417  0.00  0.00    +0.000 C 
ENDBRANCH   6  13
BRANCH   9  15
ATOM     15  O   UNL     1       1.869   8.782  17.666  0.00  0.00    +0.000 OA
BRANCH  15  16
ATOM     16  C   UNL     1       1.336   9.915  18.189  0.00  0.00    +0.000 A 
ATOM     17  C   UNL     1       0.162  10.059  18.912  0.00  0.00    +0.000 A 
ATOM     18  C   UNL     1      -0.162  11.296  19.480  0.00  0.00    +0.000 A 
ATOM     19  C   UNL     1       0.681  12.403  19.322  0.00  0.00    +0.000 A 
ATOM     20  C   UNL     1       1.835  12.296  18.545  0.00  0.00    +0.000 A 
ATOM     21  C   UNL     1       2.127  11.049  17.967  0.00  0.00    +0.000 A 
BRANCH  20  22
ATOM     22  C   UNL     1       2.756  13.486  18.317  0.00  0.00    +0.000 C 
BRANCH  22  23
ATOM     23  N   UNL     1       2.722  14.527  19.368  0.00  0.00    +0.000 NA
ATOM     24  C   UNL     1       2.010  15.740  18.893  0.00  0.00    +0.000 C 
ATOM     25  C   UNL     1       2.797  16.595  17.874  0.00  0.00    +0.000 C 
ATOM     26  O   UNL     1       4.118  16.915  18.330  0.00  0.00    +0.000 OA
ATOM     27  C   UNL     1       4.835  15.746  18.743  0.00  0.00    +0.000 C 
ATOM     28  C   UNL     1       4.055  14.975  19.819  0.00  0.00    +0.000 C 
ENDBRANCH  22  23
ENDBRANCH  20  22
ENDBRANCH  15  16
ENDBRANCH   9  15
TORSDOF 6
ENDMDL
MODEL 4
REMARK VINA RESULT:      -7.4      3.769      8.432
REMARK  Name = 
REMARK  8 active torsions:
REMARK  status: ('A' for Active; 'I' for Inactive)
REMARK    1  A    between atoms: C_1  and  O_2
REMARK    2  A    between atoms: O_2  and  C_3
REMARK    3  A    between atoms: C_8  and  O_9
REMARK    4  A    between atoms: O_9  and  C_10
REMARK    5  A    between atoms: C_13  and  O_14
REMARK    6  A    between atoms: O_14  and  C_15
REMARK    7  A    between atoms: C_19  and  C_20
REMARK    8  A    between atoms: C_20  and  N_21
REMARK                            x       y       z     vdW  Elec       q    Type
REMARK                         _______ _______ _______ _____ _____    ______ ____
ROOT
ATOM      1  C   UNL     1       1.635   3.803  19.594  0.00  0.00    +0.000 A 
ATOM      2  C   UNL     1       1.538   5.169  19.921  0.00  0.00    +0.000 A 
ATOM      3  C   UNL     1       2.213   6.094  19.134  0.00  0.00    +0.000 A 
ATOM      4  C   UNL     1       2.975   5.658  18.064  0.00  0.00    +0.000 A 
ATOM      5  C   UNL     1       3.095   4.322  17.707  0.00  0.00    +0.000 A 
ATOM      6  C   UNL     1       2.402   3.382  18.475  0.00  0.00    +0.000 A 
ATOM      7  C   UNL     1       3.640   6.812  17.478  0.00  0.00    +0.000 C 
ATOM      8  O   UNL     1       4.573   6.706  16.698  0.00  0.00    +0.000 OA
ATOM      9  C   UNL     1       3.043   8.106  18.053  0.00  0.00    +0.000 C 
ATOM     10  C   UNL     1       2.312   7.576  19.329  0.00  0.00    +0.000 C 
ENDROOT
BRANCH   1  12
ATOM     11  C   UNL     1       1.568   2.577  21.645  0.00  0.00    +0.000 C 
ATOM     12  O   UNL     1       1.064   2.797  20.336  0.00  0.00    +0.000 OA
ENDBRANCH   1  12
BRANCH   6  13
ATOM     13  O   UNL     1       2.416   2.028  18.238  0.00  0.00    +0.000 OA
ATOM     14  C   UNL     1       3.638   1.334  18.454  0.00  0.00    +0.000 C 
ENDBRANCH   6  13
BRANCH   9  15
ATOM     15  O   UNL     1       2.047   8.824  17.347  0.00  0.00    +0.000 OA
BRANCH  15  16
ATOM     16  C   UNL     1       1.269   9.785  17.905  0.00  0.00    +0.000 A 
ATOM     17  C   UNL     1      -0.098   9.758  18.137  0.00  0.00    +0.000 A 
ATOM     18  C   UNL     1      -0.708  10.801  18.843  0.00  0.00    +0.000 A 
ATOM     19  C   UNL     1       0.042  11.885  19.315  0.00  0.00    +0.000 A 
ATOM     20  C   UNL     1       1.407  11.963  19.038  0.00  0.00    +0.000 A 
ATOM     21  C   UNL     1       1.992  10.914  18.309  0.00  0.00    +0.000 A 
BRANCH  20  22
ATOM     22  C   UNL     1       2.248  13.145  19.499  0.00  0.00    +0.000 C 
BRANCH  22  23
ATOM     23  N   UNL     1       2.478  14.197  18.483  0.00  0.00    +0.000 NA
ATOM     24  C   UNL     1       3.928  14.373  18.219  0.00  0.00    +0.000 C 
ATOM     25  C   UNL     1       4.708  15.092  19.345  0.00  0.00    +0.000 C 
ATOM     26  O   UNL     1       4.096  16.330  19.732  0.00  0.00    +0.000 OA
ATOM     27  C   UNL     1       2.708  16.163  20.039  0.00  0.00    +0.000 C 
ATOM     28  C   UNL     1       1.956  15.526  18.860  0.00  0.00    +0.000 C 
ENDBRANCH  22  23
ENDBRANCH  20  22
ENDBRANCH  15  16
ENDBRANCH   9  15
TORSDOF 6
ENDMDL
MODEL 5
REMARK VINA RESULT:      -7.3      1.804      2.824
REMARK  Name = 
REMARK  8 active torsions:
REMARK  status: ('A' for Active; 'I' for Inactive)
REMARK    1  A    between atoms: C_1  and  O_2
REMARK    2  A    between atoms: O_2  and  C_3
REMARK    3  A    between atoms: C_8  and  O_9
REMARK    4  A    between atoms: O_9  and  C_10
REMARK    5  A    between atoms: C_13  and  O_14
REMARK    6  A    between atoms: O_14  and  C_15
REMARK    7  A    between atoms: C_19  and  C_20
REMARK    8  A    between atoms: C_20  and  N_21
REMARK                            x       y       z     vdW  Elec       q    Type
REMARK                         _______ _______ _______ _____ _____    ______ ____
ROOT
ATOM      1  C   UNL     1      -0.494  12.620  22.355  0.00  0.00    +0.000 A 
ATOM      2  C   UNL     1      -0.682  11.231  22.228  0.00  0.00    +0.000 A 
ATOM      3  C   UNL     1      -0.029  10.559  21.202  0.00  0.00    +0.000 A 
ATOM      4  C   UNL     1       0.772  11.263  20.320  0.00  0.00    +0.000 A 
ATOM      5  C   UNL     1       0.985  12.631  20.412  0.00  0.00    +0.000 A 
ATOM      6  C   UNL     1       0.355  13.318  21.454  0.00  0.00    +0.000 A 
ATOM      7  C   UNL     1       1.250  10.341  19.302  0.00  0.00    +0.000 C 
ATOM      8  O   UNL     1       1.752  10.721  18.256  0.00  0.00    +0.000 OA
ATOM      9  C   UNL     1       0.947   8.895  19.723  0.00  0.00    +0.000 C 
ATOM     10  C   UNL     1      -0.133   9.109  20.833  0.00  0.00    +0.000 C 
ENDROOT
BRANCH   1  12
ATOM     11  C   UNL     1      -2.549  13.491  23.208  0.00  0.00    +0.000 C 
ATOM     12  O   UNL     1      -1.135  13.396  23.290  0.00  0.00    +0.000 OA
ENDBRANCH   1  12
BRANCH   6  13
ATOM     13  O   UNL     1       0.478  14.668  21.678  0.00  0.00    +0.000 OA
ATOM     14  C   UNL     1       1.781  15.179  21.925  0.00  0.00    +0.000 C 
ENDBRANCH   6  13
BRANCH   9  15
ATOM     15  O   UNL     1       1.937   8.095  20.343  0.00  0.00    +0.000 OA
BRANCH  15  16
ATOM     16  C   UNL     1       2.155   6.790  20.040  0.00  0.00    +0.000 A 
ATOM     17  C   UNL     1       1.645   5.665  20.669  0.00  0.00    +0.000 A 
ATOM     18  C   UNL     1       1.885   4.395  20.131  0.00  0.00    +0.000 A 
ATOM     19  C   UNL     1       2.644   4.239  18.964  0.00  0.00    +0.000 A 
ATOM     20  C   UNL     1       3.219   5.353  18.352  0.00  0.00    +0.000 A 
ATOM     21  C   UNL     1       2.982   6.615  18.924  0.00  0.00    +0.000 A 
BRANCH  20  22
ATOM     22  C   UNL     1       4.084   5.221  17.107  0.00  0.00    +0.000 C 
BRANCH  22  23
ATOM     23  N   UNL     1       5.301   4.394  17.263  0.00  0.00    +0.000 NA
ATOM     24  C   UNL     1       6.368   5.144  17.973  0.00  0.00    +0.000 C 
ATOM     25  C   UNL     1       7.053   6.246  17.130  0.00  0.00    +0.000 C 
ATOM     26  O   UNL     1       7.516   5.759  15.864  0.00  0.00    +0.000 OA
ATOM     27  C   UNL     1       6.481   5.078  15.146  0.00  0.00    +0.000 C 
ATOM     28  C   UNL     1       5.889   3.936  15.988  0.00  0.00    +0.000 C 
ENDBRANCH  22  23
ENDBRANCH  20  22
ENDBRANCH  15  16
ENDBRANCH   9  15
TORSDOF 6
ENDMDL
MODEL 6
REMARK VINA RESULT:      -7.1      1.828      2.693
REMARK  Name = 
REMARK  8 active torsions:
REMARK  status: ('A' for Active; 'I' for Inactive)
REMARK    1  A    between atoms: C_1  and  O_2
REMARK    2  A    between atoms: O_2  and  C_3
REMARK    3  A    between atoms: C_8  and  O_9
REMARK    4  A    between atoms: O_9  and  C_10
REMARK    5  A    between atoms: C_13  and  O_14
REMARK    6  A    between atoms: O_14  and  C_15
REMARK    7  A    between atoms: C_19  and  C_20
REMARK    8  A    between atoms: C_20  and  N_21
REMARK                            x       y       z     vdW  Elec       q    Type
REMARK                         _______ _______ _______ _____ _____    ______ ____
ROOT
ATOM      1  C   UNL     1      -0.835  12.478  22.480  0.00  0.00    +0.000 A 
ATOM      2  C   UNL     1      -0.941  11.098  22.225  0.00  0.00    +0.000 A 
ATOM      3  C   UNL     1      -0.192  10.550  21.190  0.00  0.00    +0.000 A 
ATOM      4  C   UNL     1       0.621  11.367  20.424  0.00  0.00    +0.000 A 
ATOM      5  C   UNL     1       0.755  12.731  20.644  0.00  0.00    +0.000 A 
ATOM      6  C   UNL     1       0.027  13.292  21.697  0.00  0.00    +0.000 A 
ATOM      7  C   UNL     1       1.209  10.561  19.365  0.00  0.00    +0.000 C 
ATOM      8  O   UNL     1       1.751  11.055  18.389  0.00  0.00    +0.000 OA
ATOM      9  C   UNL     1       0.958   9.070  19.643  0.00  0.00    +0.000 C 
ATOM     10  C   UNL     1      -0.196   9.135  20.696  0.00  0.00    +0.000 C 
ENDROOT
BRANCH   1  12
ATOM     11  C   UNL     1      -2.914  12.721  23.632  0.00  0.00    +0.000 C 
ATOM     12  O   UNL     1      -1.572  13.139  23.433  0.00  0.00    +0.000 OA
ENDBRANCH   1  12
BRANCH   6  13
ATOM     13  O   UNL     1       0.064  14.622  22.040  0.00  0.00    +0.000 OA
ATOM     14  C   UNL     1      -0.377  15.565  21.073  0.00  0.00    +0.000 C 
ENDBRANCH   6  13
BRANCH   9  15
ATOM     15  O   UNL     1       1.951   8.268  20.256  0.00  0.00    +0.000 OA
BRANCH  15  16
ATOM     16  C   UNL     1       2.088   6.936  20.039  0.00  0.00    +0.000 A 
ATOM     17  C   UNL     1       1.481   5.888  20.714  0.00  0.00    +0.000 A 
ATOM     18  C   UNL     1       1.650   4.574  20.262  0.00  0.00    +0.000 A 
ATOM     19  C   UNL     1       2.434   4.296  19.136  0.00  0.00    +0.000 A 
ATOM     20  C   UNL     1       3.105   5.330  18.480  0.00  0.00    +0.000 A 
ATOM     21  C   UNL     1       2.937   6.637  18.967  0.00  0.00    +0.000 A 
BRANCH  20  22
ATOM     22  C   UNL     1       3.998   5.063  17.277  0.00  0.00    +0.000 C 
BRANCH  22  23
ATOM     23  N   UNL     1       5.048   6.076  17.028  0.00  0.00    +0.000 NA
ATOM     24  C   UNL     1       5.460   6.076  15.601  0.00  0.00    +0.000 C 
ATOM     25  C   UNL     1       6.328   4.867  15.180  0.00  0.00    +0.000 C 
ATOM     26  O   UNL     1       7.454   4.672  16.046  0.00  0.00    +0.000 OA
ATOM     27  C   UNL     1       7.063   4.619  17.422  0.00  0.00    +0.000 C 
ATOM     28  C   UNL     1       6.279   5.879  17.819  0.00  0.00    +0.000 C 
ENDBRANCH  22  23
ENDBRANCH  20  22
ENDBRANCH  15  16
ENDBRANCH   9  15
TORSDOF 6
ENDMDL
MODEL 7
REMARK VINA RESULT:      -7.1      2.477      3.244
REMARK  Name = 
REMARK  8 active torsions:
REMARK  status: ('A' for Active; 'I' for Inactive)
REMARK    1  A    between atoms: C_1  and  O_2
REMARK    2  A    between atoms: O_2  and  C_3
REMARK    3  A    between atoms: C_8  and  O_9
REMARK    4  A    between atoms: O_9  and  C_10
REMARK    5  A    between atoms: C_13  and  O_14
REMARK    6  A    between atoms: O_14  and  C_15
REMARK    7  A    between atoms: C_19  and  C_20
REMARK    8  A    between atoms: C_20  and  N_21
REMARK                            x       y       z     vdW  Elec       q    Type
REMARK                         _______ _______ _______ _____ _____    ______ ____
ROOT
ATOM      1  C   UNL     1       1.297  13.584  20.494  0.00  0.00    +0.000 A 
ATOM      2  C   UNL     1       0.755  12.404  21.038  0.00  0.00    +0.000 A 
ATOM      3  C   UNL     1       0.868  11.222  20.316  0.00  0.00    +0.000 A 
ATOM      4  C   UNL     1       1.489  11.230  19.079  0.00  0.00    +0.000 A 
ATOM      5  C   UNL     1       2.037  12.370  18.509  0.00  0.00    +0.000 A 
ATOM      6  C   UNL     1       1.953  13.562  19.234  0.00  0.00    +0.000 A 
ATOM      7  C   UNL     1       1.385   9.895  18.509  0.00  0.00    +0.000 C 
ATOM      8  O   UNL     1       1.602   9.667  17.329  0.00  0.00    +0.000 OA
ATOM      9  C   UNL     1       0.899   8.906  19.580  0.00  0.00    +0.000 C 
ATOM     10  C   UNL     1       0.313   9.873  20.660  0.00  0.00    +0.000 C 
ENDROOT
BRANCH   1  12
ATOM     11  C   UNL     1      -0.069  15.177  21.637  0.00  0.00    +0.000 C 
ATOM     12  O   UNL     1       1.190  14.819  21.087  0.00  0.00    +0.000 OA
ENDBRANCH   1  12
BRANCH   6  13
ATOM     13  O   UNL     1       2.457  14.766  18.805  0.00  0.00    +0.000 OA
ATOM     14  C   UNL     1       3.869  14.896  18.716  0.00  0.00    +0.000 C 
ENDBRANCH   6  13
BRANCH   9  15
ATOM     15  O   UNL     1       1.818   8.096  20.292  0.00  0.00    +0.000 OA
BRANCH  15  16
ATOM     16  C   UNL     1       2.113   6.814  19.957  0.00  0.00    +0.000 A 
ATOM     17  C   UNL     1       1.649   5.645  20.538  0.00  0.00    +0.000 A 
ATOM     18  C   UNL     1       1.971   4.406  19.970  0.00  0.00    +0.000 A 
ATOM     19  C   UNL     1       2.767   4.327  18.821  0.00  0.00    +0.000 A 
ATOM     20  C   UNL     1       3.296   5.489  18.257  0.00  0.00    +0.000 A 
ATOM     21  C   UNL     1       2.977   6.718  18.858  0.00  0.00    +0.000 A 
BRANCH  20  22
ATOM     22  C   UNL     1       4.198   5.441  17.032  0.00  0.00    +0.000 C 
BRANCH  22  23
ATOM     23  N   UNL     1       5.273   4.424  17.073  0.00  0.00    +0.000 NA
ATOM     24  C   UNL     1       6.499   4.971  17.708  0.00  0.00    +0.000 C 
ATOM     25  C   UNL     1       7.287   5.974  16.834  0.00  0.00    +0.000 C 
ATOM     26  O   UNL     1       7.565   5.461  15.524  0.00  0.00    +0.000 OA
ATOM     27  C   UNL     1       6.381   4.977  14.881  0.00  0.00    +0.000 C 
ATOM     28  C   UNL     1       5.678   3.919  15.746  0.00  0.00    +0.000 C 
ENDBRANCH  22  23
ENDBRANCH  20  22
ENDBRANCH  15  16
ENDBRANCH   9  15
TORSDOF 6
ENDMDL
MODEL 8
REMARK VINA RESULT:      -7.0      3.382      9.427
REMARK  Name = 
REMARK  8 active torsions:
REMARK  status: ('A' for Active; 'I' for Inactive)
REMARK    1  A    between atoms: C_1  and  O_2
REMARK    2  A    between atoms: O_2  and  C_3
REMARK    3  A    between atoms: C_8  and  O_9
REMARK    4  A    between atoms: O_9  and  C_10
REMARK    5  A    between atoms: C_13  and  O_14
REMARK    6  A    between atoms: O_14  and  C_15
REMARK    7  A    between atoms: C_19  and  C_20
REMARK    8  A    between atoms: C_20  and  N_21
REMARK                            x       y       z     vdW  Elec       q    Type
REMARK                         _______ _______ _______ _____ _____    ______ ____
ROOT
ATOM      1  C   UNL     1       1.735   3.836  19.892  0.00  0.00    +0.000 A 
ATOM      2  C   UNL     1       1.562   5.049  20.585  0.00  0.00    +0.000 A 
ATOM      3  C   UNL     1       1.846   6.240  19.929  0.00  0.00    +0.000 A 
ATOM      4  C   UNL     1       2.306   6.212  18.624  0.00  0.00    +0.000 A 
ATOM      5  C   UNL     1       2.487   5.039  17.905  0.00  0.00    +0.000 A 
ATOM      6  C   UNL     1       2.183   3.833  18.544  0.00  0.00    +0.000 A 
ATOM      7  C   UNL     1       2.611   7.576  18.218  0.00  0.00    +0.000 C 
ATOM      8  O   UNL     1       3.276   7.833  17.227  0.00  0.00    +0.000 OA
ATOM      9  C   UNL     1       2.049   8.565  19.251  0.00  0.00    +0.000 C 
ATOM     10  C   UNL     1       1.805   7.633  20.482  0.00  0.00    +0.000 C 
ENDROOT
BRANCH   1  12
ATOM     11  C   UNL     1       1.648   2.498  21.870  0.00  0.00    +0.000 C 
ATOM     12  O   UNL     1       1.545   2.598  20.458  0.00  0.00    +0.000 OA
ENDBRANCH   1  12
BRANCH   6  13
ATOM     13  O   UNL     1       2.302   2.596  17.958  0.00  0.00    +0.000 OA
ATOM     14  C   UNL     1       3.596   2.010  17.914  0.00  0.00    +0.000 C 
ENDBRANCH   6  13
BRANCH   9  15
ATOM     15  O   UNL     1       0.803   9.206  19.041  0.00  0.00    +0.000 OA
BRANCH  15  16
ATOM     16  C   UNL     1       0.632  10.552  19.063  0.00  0.00    +0.000 A 
ATOM     17  C   UNL     1       1.526  11.539  18.679  0.00  0.00    +0.000 A 
ATOM     18  C   UNL     1       1.121  12.879  18.655  0.00  0.00    +0.000 A 
ATOM     19  C   UNL     1      -0.180  13.243  19.024  0.00  0.00    +0.000 A 
ATOM     20  C   UNL     1      -1.075  12.273  19.474  0.00  0.00    +0.000 A 
ATOM     21  C   UNL     1      -0.638  10.938  19.510  0.00  0.00    +0.000 A 
BRANCH  20  22
ATOM     22  C   UNL     1      -2.484  12.635  19.922  0.00  0.00    +0.000 C 
BRANCH  22  23
ATOM     23  N   UNL     1      -2.568  13.630  21.014  0.00  0.00    +0.000 NA
ATOM     24  C   UNL     1      -1.875  13.143  22.233  0.00  0.00    +0.000 C 
ATOM     25  C   UNL     1      -2.623  12.028  23.001  0.00  0.00    +0.000 C 
ATOM     26  O   UNL     1      -3.985  12.375  23.283  0.00  0.00    +0.000 OA
ATOM     27  C   UNL     1      -4.680  12.798  22.105  0.00  0.00    +0.000 C 
ATOM     28  C   UNL     1      -3.947  13.964  21.423  0.00  0.00    +0.000 C 
ENDBRANCH  22  23
ENDBRANCH  20  22
ENDBRANCH  15  16
ENDBRANCH   9  15
TORSDOF 6
ENDMDL
MODEL 9
REMARK VINA RESULT:      -7.0      0.940      1.355
REMARK  Name = 
REMARK  8 active torsions:
REMARK  status: ('A' for Active; 'I' for Inactive)
REMARK    1  A    between atoms: C_1  and  O_2
REMARK    2  A    between atoms: O_2  and  C_3
REMARK    3  A    between atoms: C_8  and  O_9
REMARK    4  A    between atoms: O_9  and  C_10
REMARK    5  A    between atoms: C_13  and  O_14
REMARK    6  A    between atoms: O_14  and  C_15
REMARK    7  A    between atoms: C_19  and  C_20
REMARK    8  A    between atoms: C_20  and  N_21
REMARK                            x       y       z     vdW  Elec       q    Type
REMARK                         _______ _______ _______ _____ _____    ______ ____
ROOT
ATOM      1  C   UNL     1      -0.810  11.524  19.446  0.00  0.00    +0.000 A 
ATOM      2  C   UNL     1       0.014  10.506  18.930  0.00  0.00    +0.000 A 
ATOM      3  C   UNL     1       0.650   9.647  19.819  0.00  0.00    +0.000 A 
ATOM      4  C   UNL     1       0.477   9.817  21.181  0.00  0.00    +0.000 A 
ATOM      5  C   UNL     1      -0.328  10.806  21.729  0.00  0.00    +0.000 A 
ATOM      6  C   UNL     1      -0.993  11.663  20.848  0.00  0.00    +0.000 A 
ATOM      7  C   UNL     1       1.320   8.853  21.872  0.00  0.00    +0.000 C 
ATOM      8  O   UNL     1       1.578   8.941  23.062  0.00  0.00    +0.000 OA
ATOM      9  C   UNL     1       1.860   7.821  20.870  0.00  0.00    +0.000 C 
ATOM     10  C   UNL     1       1.618   8.546  19.507  0.00  0.00    +0.000 C 
ENDROOT
BRANCH   1  12
ATOM     11  C   UNL     1      -0.643  13.525  18.149  0.00  0.00    +0.000 C 
ATOM     12  O   UNL     1      -1.437  12.468  18.668  0.00  0.00    +0.000 OA
ENDBRANCH   1  12
BRANCH   6  13
ATOM     13  O   UNL     1      -1.829  12.681  21.241  0.00  0.00    +0.000 OA
ATOM     14  C   UNL     1      -1.277  13.712  22.048  0.00  0.00    +0.000 C 
ENDBRANCH   6  13
BRANCH   9  15
ATOM     15  O   UNL     1       1.233   6.560  20.716  0.00  0.00    +0.000 OA
BRANCH  15  16
ATOM     16  C   UNL     1       1.905   5.403  20.487  0.00  0.00    +0.000 A 
ATOM     17  C   UNL     1       2.042   4.308  21.326  0.00  0.00    +0.000 A 
ATOM     18  C   UNL     1       2.672   3.147  20.862  0.00  0.00    +0.000 A 
ATOM     19  C   UNL     1       3.179   3.076  19.559  0.00  0.00    +0.000 A 
ATOM     20  C   UNL     1       3.109   4.189  18.721  0.00  0.00    +0.000 A 
ATOM     21  C   UNL     1       2.491   5.349  19.217  0.00  0.00    +0.000 A 
BRANCH  20  22
ATOM     22  C   UNL     1       3.684   4.164  17.312  0.00  0.00    +0.000 C 
BRANCH  22  23
ATOM     23  N   UNL     1       5.154   4.006  17.228  0.00  0.00    +0.000 NA
ATOM     24  C   UNL     1       5.849   5.080  17.982  0.00  0.00    +0.000 C 
ATOM     25  C   UNL     1       5.818   6.469  17.303  0.00  0.00    +0.000 C 
ATOM     26  O   UNL     1       6.258   6.423  15.939  0.00  0.00    +0.000 OA
ATOM     27  C   UNL     1       5.558   5.425  15.188  0.00  0.00    +0.000 C 
ATOM     28  C   UNL     1       5.689   4.046  15.853  0.00  0.00    +0.000 C 
ENDBRANCH  22  23
ENDBRANCH  20  22
ENDBRANCH  15  16
ENDBRANCH   9  15
TORSDOF 6
ENDMDL
