MODEL 1
REMARK VINA RESULT:      -7.7      0.000      0.000
REMARK  Name = 
REMARK  20 active torsions:
REMARK  status: ('A' for Active; 'I' for Inactive)
REMARK    1  A    between atoms: C_1  and  O_2
REMARK    2  A    between atoms: O_2  and  C_3
REMARK    3  A    between atoms: C_5  and  C_6
REMARK    4  A    between atoms: C_7  and  C_8
REMARK    5  A    between atoms: C_8  and  C_10
REMARK    6  A    between atoms: C_10  and  C_11
REMARK    7  A    between atoms: C_10  and  C_12
REMARK    8  A    between atoms: C_10  and  C_13
REMARK    9  A    between atoms: C_13  and  C_15
REMARK   10  A    between atoms: C_16  and  C_17
REMARK   11  A    between atoms: C_19  and  O_20
REMARK   12  A    between atoms: O_20  and  C_21
REMARK   13  A    between atoms: C_22  and  O_23
REMARK   14  A    between atoms: O_23  and  C_24
REMARK   15  A    between atoms: C_25  and  O_26
REMARK   16  A    between atoms: O_26  and  C_27
REMARK   17  A    between atoms: C_30  and  O_31
REMARK   18  A    between atoms: O_31  and  C_32
REMARK   19  A    between atoms: C_33  and  O_34
REMARK   20  A    between atoms: O_34  and  C_35
REMARK                            x       y       z     vdW  Elec       q    Type
REMARK                         _______ _______ _______ _____ _____    ______ ____
ROOT
ATOM      1  C   UNL     1       1.822   3.658  19.234  0.00  0.00    +0.000 C 
ATOM      2  C   UNL     1       1.428   4.416  17.952  0.00  0.00    +0.000 C 
ATOM      3  C   UNL     1       0.701   2.652  19.545  0.00  0.00    +0.000 C 
ENDROOT
BRANCH   1   4
ATOM      4  C   UNL     1       3.125   2.887  19.003  0.00  0.00    +0.000 C 
ATOM      5  O   UNL     1       3.270   1.727  19.391  0.00  0.00    +0.000 OA
BRANCH   4   7
ATOM      6  C   UNL     1       4.352   3.322  16.928  0.00  0.00    +0.000 C 
ATOM      7  C   UNL     1       4.217   3.564  18.240  0.00  0.00    +0.000 C 
BRANCH   6  10
ATOM      8  C   UNL     1       7.112   5.621  15.816  0.00  0.00    +0.000 A 
ATOM      9  C   UNL     1       6.036   5.078  16.541  0.00  0.00    +0.000 A 
ATOM     10  C   UNL     1       5.279   4.026  16.033  0.00  0.00    +0.000 A 
ATOM     11  C   UNL     1       5.549   3.583  14.741  0.00  0.00    +0.000 A 
ATOM     12  C   UNL     1       6.566   4.158  13.961  0.00  0.00    +0.000 A 
ATOM     13  C   UNL     1       7.374   5.184  14.497  0.00  0.00    +0.000 A 
BRANCH   8  15
ATOM     14  C   UNL     1       7.496   7.045  17.680  0.00  0.00    +0.000 C 
ATOM     15  O   UNL     1       7.888   6.603  16.378  0.00  0.00    +0.000 OA
ENDBRANCH   8  15
BRANCH  12  16
ATOM     16  O   UNL     1       6.631   3.557  12.727  0.00  0.00    +0.000 OA
ATOM     17  C   UNL     1       5.437   3.191  12.057  0.00  0.00    +0.000 C 
ENDBRANCH  12  16
BRANCH  13  18
ATOM     18  O   UNL     1       8.346   5.678  13.670  0.00  0.00    +0.000 OA
ATOM     19  C   UNL     1       8.071   5.930  12.302  0.00  0.00    +0.000 C 
ENDBRANCH  13  18
ENDBRANCH   6  10
ENDBRANCH   4   7
ENDBRANCH   1   4
BRANCH   1  20
ATOM     20  C   UNL     1       1.968   4.657  20.387  0.00  0.00    +0.000 C 
ATOM     21  O   UNL     1       2.224   4.304  21.536  0.00  0.00    +0.000 OA
BRANCH  20  22
ATOM     22  C   UNL     1       1.793   6.109  20.087  0.00  0.00    +0.000 C 
ATOM     23  C   UNL     1       1.434   6.964  21.058  0.00  0.00    +0.000 C 
BRANCH  23  24
ATOM     24  C   UNL     1       1.141   8.387  20.816  0.00  0.00    +0.000 A 
ATOM     25  C   UNL     1       1.398   8.966  19.570  0.00  0.00    +0.000 A 
ATOM     26  C   UNL     1       1.095  10.305  19.320  0.00  0.00    +0.000 A 
ATOM     27  C   UNL     1       0.531  11.103  20.337  0.00  0.00    +0.000 A 
ATOM     28  C   UNL     1       0.251  10.528  21.595  0.00  0.00    +0.000 A 
ATOM     29  C   UNL     1       0.546   9.169  21.812  0.00  0.00    +0.000 A 
BRANCH  26  30
ATOM     30  O   UNL     1       1.342  10.906  18.104  0.00  0.00    +0.000 OA
ATOM     31  C   UNL     1       2.384  11.878  18.086  0.00  0.00    +0.000 C 
ENDBRANCH  26  30
BRANCH  27  32
ATOM     32  O   UNL     1       0.356  12.430  20.009  0.00  0.00    +0.000 OA
ATOM     33  C   UNL     1      -0.968  12.863  19.738  0.00  0.00    +0.000 C 
ENDBRANCH  27  32
BRANCH  28  34
ATOM     34  O   UNL     1      -0.261  11.344  22.571  0.00  0.00    +0.000 OA
ATOM     35  C   UNL     1      -1.411  10.911  23.285  0.00  0.00    +0.000 C 
ENDBRANCH  28  34
ENDBRANCH  23  24
ENDBRANCH  20  22
ENDBRANCH   1  20
TORSDOF 12
ENDMDL
MODEL 2
REMARK VINA RESULT:      -7.7      1.319      2.400
REMARK  Name = 
REMARK  20 active torsions:
REMARK  status: ('A' for Active; 'I' for Inactive)
REMARK    1  A    between atoms: C_1  and  O_2
REMARK    2  A    between atoms: O_2  and  C_3
REMARK    3  A    between atoms: C_5  and  C_6
REMARK    4  A    between atoms: C_7  and  C_8
REMARK    5  A    between atoms: C_8  and  C_10
REMARK    6  A    between atoms: C_10  and  C_11
REMARK    7  A    between atoms: C_10  and  C_12
REMARK    8  A    between atoms: C_10  and  C_13
REMARK    9  A    between atoms: C_13  and  C_15
REMARK   10  A    between atoms: C_16  and  C_17
REMARK   11  A    between atoms: C_19  and  O_20
REMARK   12  A    between atoms: O_20  and  C_21
REMARK   13  A    between atoms: C_22  and  O_23
REMARK   14  A    between atoms: O_23  and  C_24
REMARK   15  A    between atoms: C_25  and  O_26
REMARK   16  A    between atoms: O_26  and  C_27
REMARK   17  A    between atoms: C_30  and  O_31
REMARK   18  A    between atoms: O_31  and  C_32
REMARK   19  A    between atoms: C_33  and  O_34
REMARK   20  A    between atoms: O_34  and  C_35
REMARK                            x       y       z     vdW  Elec       q    Type
REMARK                         _______ _______ _______ _____ _____    ______ ____
ROOT
ATOM      1  C   UNL     1       2.532   3.369  19.905  0.00  0.00    +0.000 C 
ATOM      2  C   UNL     1       1.312   3.112  20.811  0.00  0.00    +0.000 C 
ATOM      3  C   UNL     1       3.611   2.335  20.270  0.00  0.00    +0.000 C 
ENDROOT
BRANCH   1   4
ATOM      4  C   UNL     1       2.142   3.175  18.438  0.00  0.00    +0.000 C 
ATOM      5  O   UNL     1       0.980   2.949  18.099  0.00  0.00    +0.000 OA
BRANCH   4   7
ATOM      6  C   UNL     1       3.643   4.546  17.070  0.00  0.00    +0.000 C 
ATOM      7  C   UNL     1       3.210   3.321  17.401  0.00  0.00    +0.000 C 
BRANCH   6  10
ATOM      8  C   UNL     1       6.951   5.904  15.909  0.00  0.00    +0.000 A 
ATOM      9  C   UNL     1       5.722   5.774  16.579  0.00  0.00    +0.000 A 
ATOM     10  C   UNL     1       4.781   4.826  16.185  0.00  0.00    +0.000 A 
ATOM     11  C   UNL     1       5.043   4.070  15.045  0.00  0.00    +0.000 A 
ATOM     12  C   UNL     1       6.227   4.233  14.309  0.00  0.00    +0.000 A 
ATOM     13  C   UNL     1       7.209   5.150  14.741  0.00  0.00    +0.000 A 
BRANCH   8  15
ATOM     14  C   UNL     1       7.498   7.597  17.485  0.00  0.00    +0.000 C 
ATOM     15  O   UNL     1       7.890   6.794  16.370  0.00  0.00    +0.000 OA
ENDBRANCH   8  15
BRANCH  12  16
ATOM     16  O   UNL     1       6.249   3.383  13.229  0.00  0.00    +0.000 OA
ATOM     17  C   UNL     1       5.249   3.486  12.231  0.00  0.00    +0.000 C 
ENDBRANCH  12  16
BRANCH  13  18
ATOM     18  O   UNL     1       8.335   5.235  13.967  0.00  0.00    +0.000 OA
ATOM     19  C   UNL     1       8.279   5.806  12.670  0.00  0.00    +0.000 C 
ENDBRANCH  13  18
ENDBRANCH   6  10
ENDBRANCH   4   7
ENDBRANCH   1   4
BRANCH   1  20
ATOM     20  C   UNL     1       3.056   4.788  20.156  0.00  0.00    +0.000 C 
ATOM     21  O   UNL     1       4.256   5.052  20.172  0.00  0.00    +0.000 OA
BRANCH  20  22
ATOM     22  C   UNL     1       2.061   5.876  20.384  0.00  0.00    +0.000 C 
ATOM     23  C   UNL     1       2.252   7.093  19.849  0.00  0.00    +0.000 C 
BRANCH  23  24
ATOM     24  C   UNL     1       1.370   8.241  20.116  0.00  0.00    +0.000 A 
ATOM     25  C   UNL     1       0.710   8.365  21.342  0.00  0.00    +0.000 A 
ATOM     26  C   UNL     1      -0.104   9.465  21.617  0.00  0.00    +0.000 A 
ATOM     27  C   UNL     1      -0.282  10.471  20.644  0.00  0.00    +0.000 A 
ATOM     28  C   UNL     1       0.390  10.368  19.408  0.00  0.00    +0.000 A 
ATOM     29  C   UNL     1       1.222   9.259  19.166  0.00  0.00    +0.000 A 
BRANCH  26  30
ATOM     30  O   UNL     1      -0.771   9.613  22.814  0.00  0.00    +0.000 OA
ATOM     31  C   UNL     1       0.035   9.580  23.989  0.00  0.00    +0.000 C 
ENDBRANCH  26  30
BRANCH  27  32
ATOM     32  O   UNL     1      -1.174  11.463  20.988  0.00  0.00    +0.000 OA
ATOM     33  C   UNL     1      -0.636  12.672  21.500  0.00  0.00    +0.000 C 
ENDBRANCH  27  32
BRANCH  28  34
ATOM     34  O   UNL     1       0.161  11.344  18.473  0.00  0.00    +0.000 OA
ATOM     35  C   UNL     1      -1.110  11.394  17.839  0.00  0.00    +0.000 C 
ENDBRANCH  28  34
ENDBRANCH  23  24
ENDBRANCH  20  22
ENDBRANCH   1  20
TORSDOF 12
ENDMDL
MODEL 3
REMARK VINA RESULT:      -7.5      0.916      3.187
REMARK  Name = 
REMARK  20 active torsions:
REMARK  status: ('A' for Active; 'I' for Inactive)
REMARK    1  A    between atoms: C_1  and  O_2
REMARK    2  A    between atoms: O_2  and  C_3
REMARK    3  A    between atoms: C_5  and  C_6
REMARK    4  A    between atoms: C_7  and  C_8
REMARK    5  A    between atoms: C_8  and  C_10
REMARK    6  A    between atoms: C_10  and  C_11
REMARK    7  A    between atoms: C_10  and  C_12
REMARK    8  A    between atoms: C_10  and  C_13
REMARK    9  A    between atoms: C_13  and  C_15
REMARK   10  A    between atoms: C_16  and  C_17
REMARK   11  A    between atoms: C_19  and  O_20
REMARK   12  A    between atoms: O_20  and  C_21
REMARK   13  A    between atoms: C_22  and  O_23
REMARK   14  A    between atoms: O_23  and  C_24
REMARK   15  A    between atoms: C_25  and  O_26
REMARK   16  A    between atoms: O_26  and  C_27
REMARK   17  A    between atoms: C_30  and  O_31
REMARK   18  A    between atoms: O_31  and  C_32
REMARK   19  A    between atoms: C_33  and  O_34
REMARK   20  A    between atoms: O_34  and  C_35
REMARK                            x       y       z     vdW  Elec       q    Type
REMARK                         _______ _______ _______ _____ _____    ______ ____
ROOT
ATOM      1  C   UNL     1       1.849   3.359  19.918  0.00  0.00    +0.000 C 
ATOM      2  C   UNL     1       0.403   2.882  20.154  0.00  0.00    +0.000 C 
ATOM      3  C   UNL     1       2.789   2.193  20.267  0.00  0.00    +0.000 C 
ENDROOT
BRANCH   1   4
ATOM      4  C   UNL     1       2.044   3.724  18.444  0.00  0.00    +0.000 C 
ATOM      5  O   UNL     1       1.089   3.918  17.692  0.00  0.00    +0.000 OA
BRANCH   4   7
ATOM      6  C   UNL     1       3.660   3.978  16.620  0.00  0.00    +0.000 C 
ATOM      7  C   UNL     1       3.442   3.893  17.940  0.00  0.00    +0.000 C 
BRANCH   6  10
ATOM      8  C   UNL     1       6.373   4.137  14.022  0.00  0.00    +0.000 A 
ATOM      9  C   UNL     1       5.279   3.692  14.784  0.00  0.00    +0.000 A 
ATOM     10  C   UNL     1       4.953   4.291  15.999  0.00  0.00    +0.000 A 
ATOM     11  C   UNL     1       5.797   5.283  16.493  0.00  0.00    +0.000 A 
ATOM     12  C   UNL     1       6.942   5.693  15.791  0.00  0.00    +0.000 A 
ATOM     13  C   UNL     1       7.241   5.130  14.531  0.00  0.00    +0.000 A 
BRANCH   8  15
ATOM     14  C   UNL     1       5.470   3.253  12.008  0.00  0.00    +0.000 C 
ATOM     15  O   UNL     1       6.620   3.578  12.792  0.00  0.00    +0.000 OA
ENDBRANCH   8  15
BRANCH  12  16
ATOM     16  O   UNL     1       7.611   6.673  16.484  0.00  0.00    +0.000 OA
ATOM     17  C   UNL     1       7.503   6.738  17.895  0.00  0.00    +0.000 C 
ENDBRANCH  12  16
BRANCH  13  18
ATOM     18  O   UNL     1       8.370   5.597  13.916  0.00  0.00    +0.000 OA
ATOM     19  C   UNL     1       8.381   5.846  12.520  0.00  0.00    +0.000 C 
ENDBRANCH  13  18
ENDBRANCH   6  10
ENDBRANCH   4   7
ENDBRANCH   1   4
BRANCH   1  20
ATOM     20  C   UNL     1       2.140   4.559  20.828  0.00  0.00    +0.000 C 
ATOM     21  O   UNL     1       2.596   4.430  21.961  0.00  0.00    +0.000 OA
BRANCH  20  22
ATOM     22  C   UNL     1       1.856   5.926  20.301  0.00  0.00    +0.000 C 
ATOM     23  C   UNL     1       1.347   6.871  21.108  0.00  0.00    +0.000 C 
BRANCH  23  24
ATOM     24  C   UNL     1       0.945   8.207  20.636  0.00  0.00    +0.000 A 
ATOM     25  C   UNL     1      -0.008   8.954  21.334  0.00  0.00    +0.000 A 
ATOM     26  C   UNL     1      -0.373  10.234  20.913  0.00  0.00    +0.000 A 
ATOM     27  C   UNL     1       0.214  10.790  19.757  0.00  0.00    +0.000 A 
ATOM     28  C   UNL     1       1.188  10.054  19.051  0.00  0.00    +0.000 A 
ATOM     29  C   UNL     1       1.554   8.776  19.511  0.00  0.00    +0.000 A 
BRANCH  26  30
ATOM     30  O   UNL     1      -1.313  10.993  21.577  0.00  0.00    +0.000 OA
ATOM     31  C   UNL     1      -0.918  11.510  22.845  0.00  0.00    +0.000 C 
ENDBRANCH  26  30
BRANCH  27  32
ATOM     32  O   UNL     1      -0.285  12.019  19.384  0.00  0.00    +0.000 OA
ATOM     33  C   UNL     1      -1.333  12.031  18.426  0.00  0.00    +0.000 C 
ENDBRANCH  27  32
BRANCH  28  34
ATOM     34  O   UNL     1       1.707  10.611  17.910  0.00  0.00    +0.000 OA
ATOM     35  C   UNL     1       2.520  11.771  18.029  0.00  0.00    +0.000 C 
ENDBRANCH  28  34
ENDBRANCH  23  24
ENDBRANCH  20  22
ENDBRANCH   1  20
TORSDOF 12
ENDMDL
MODEL 4
REMARK VINA RESULT:      -7.4      3.459     12.058
REMARK  Name = 
REMARK  20 active torsions:
REMARK  status: ('A' for Active; 'I' for Inactive)
REMARK    1  A    between atoms: C_1  and  O_2
REMARK    2  A    between atoms: O_2  and  C_3
REMARK    3  A    between atoms: C_5  and  C_6
REMARK    4  A    between atoms: C_7  and  C_8
REMARK    5  A    between atoms: C_8  and  C_10
REMARK    6  A    between atoms: C_10  and  C_11
REMARK    7  A    between atoms: C_10  and  C_12
REMARK    8  A    between atoms: C_10  and  C_13
REMARK    9  A    between atoms: C_13  and  C_15
REMARK   10  A    between atoms: C_16  and  C_17
REMARK   11  A    between atoms: C_19  and  O_20
REMARK   12  A    between atoms: O_20  and  C_21
REMARK   13  A    between atoms: C_22  and  O_23
REMARK   14  A    between atoms: O_23  and  C_24
REMARK   15  A    between atoms: C_25  and  O_26
REMARK   16  A    between atoms: O_26  and  C_27
REMARK   17  A    between atoms: C_30  and  O_31
REMARK   18  A    between atoms: O_31  and  C_32
REMARK   19  A    between atoms: C_33  and  O_34
REMARK   20  A    between atoms: O_34  and  C_35
REMARK                            x       y       z     vdW  Elec       q    Type
REMARK                         _______ _______ _______ _____ _____    ______ ____
ROOT
ATOM      1  C   UNL     1       0.527  12.080  19.588  0.00  0.00    +0.000 C 
ATOM      2  C   UNL     1       1.956  12.456  19.151  0.00  0.00    +0.000 C 
ATOM      3  C   UNL     1       0.540  11.884  21.113  0.00  0.00    +0.000 C 
ENDROOT
BRANCH   1   4
ATOM      4  C   UNL     1      -0.439  13.219  19.247  0.00  0.00    +0.000 C 
ATOM      5  O   UNL     1      -0.386  13.814  18.171  0.00  0.00    +0.000 OA
BRANCH   4   7
ATOM      6  C   UNL     1      -2.724  13.037  20.110  0.00  0.00    +0.000 C 
ATOM      7  C   UNL     1      -1.498  13.564  20.244  0.00  0.00    +0.000 C 
BRANCH   6  10
ATOM      8  C   UNL     1      -5.965  12.357  21.891  0.00  0.00    +0.000 A 
ATOM      9  C   UNL     1      -4.997  12.473  20.879  0.00  0.00    +0.000 A 
ATOM     10  C   UNL     1      -3.809  13.170  21.091  0.00  0.00    +0.000 A 
ATOM     11  C   UNL     1      -3.642  13.837  22.302  0.00  0.00    +0.000 A 
ATOM     12  C   UNL     1      -4.627  13.805  23.303  0.00  0.00    +0.000 A 
ATOM     13  C   UNL     1      -5.805  13.050  23.114  0.00  0.00    +0.000 A 
BRANCH   8  15
ATOM     14  C   UNL     1      -7.362  11.250  20.319  0.00  0.00    +0.000 C 
ATOM     15  O   UNL     1      -7.088  11.598  21.678  0.00  0.00    +0.000 OA
ENDBRANCH   8  15
BRANCH  12  16
ATOM     16  O   UNL     1      -4.234  14.541  24.394  0.00  0.00    +0.000 OA
ATOM     17  C   UNL     1      -2.867  14.871  24.567  0.00  0.00    +0.000 C 
ENDBRANCH  12  16
BRANCH  13  18
ATOM     18  O   UNL     1      -6.703  13.068  24.146  0.00  0.00    +0.000 OA
ATOM     19  C   UNL     1      -7.752  14.023  24.174  0.00  0.00    +0.000 C 
ENDBRANCH  13  18
ENDBRANCH   6  10
ENDBRANCH   4   7
ENDBRANCH   1   4
BRANCH   1  20
ATOM     20  C   UNL     1       0.113  10.777  18.894  0.00  0.00    +0.000 C 
ATOM     21  O   UNL     1      -0.820  10.725  18.095  0.00  0.00    +0.000 OA
BRANCH  20  22
ATOM     22  C   UNL     1       0.882   9.538  19.208  0.00  0.00    +0.000 C 
ATOM     23  C   UNL     1       1.695   8.993  18.288  0.00  0.00    +0.000 C 
BRANCH  23  24
ATOM     24  C   UNL     1       2.403   7.717  18.489  0.00  0.00    +0.000 A 
ATOM     25  C   UNL     1       3.394   7.303  17.595  0.00  0.00    +0.000 A 
ATOM     26  C   UNL     1       4.094   6.111  17.793  0.00  0.00    +0.000 A 
ATOM     27  C   UNL     1       3.796   5.295  18.905  0.00  0.00    +0.000 A 
ATOM     28  C   UNL     1       2.809   5.709  19.825  0.00  0.00    +0.000 A 
ATOM     29  C   UNL     1       2.135   6.925  19.612  0.00  0.00    +0.000 A 
BRANCH  26  30
ATOM     30  O   UNL     1       5.072   5.673  16.927  0.00  0.00    +0.000 OA
ATOM     31  C   UNL     1       5.253   6.446  15.744  0.00  0.00    +0.000 C 
ENDBRANCH  26  30
BRANCH  27  32
ATOM     32  O   UNL     1       4.483   4.102  18.953  0.00  0.00    +0.000 OA
ATOM     33  C   UNL     1       3.890   2.985  18.307  0.00  0.00    +0.000 C 
ENDBRANCH  27  32
BRANCH  28  34
ATOM     34  O   UNL     1       2.519   4.870  20.871  0.00  0.00    +0.000 OA
ATOM     35  C   UNL     1       1.391   4.013  20.762  0.00  0.00    +0.000 C 
ENDBRANCH  28  34
ENDBRANCH  23  24
ENDBRANCH  20  22
ENDBRANCH   1  20
TORSDOF 12
ENDMDL
MODEL 5
REMARK VINA RESULT:      -7.4      3.493     11.832
REMARK  Name = 
REMARK  20 active torsions:
REMARK  status: ('A' for Active; 'I' for Inactive)
REMARK    1  A    between atoms: C_1  and  O_2
REMARK    2  A    between atoms: O_2  and  C_3
REMARK    3  A    between atoms: C_5  and  C_6
REMARK    4  A    between atoms: C_7  and  C_8
REMARK    5  A    between atoms: C_8  and  C_10
REMARK    6  A    between atoms: C_10  and  C_11
REMARK    7  A    between atoms: C_10  and  C_12
REMARK    8  A    between atoms: C_10  and  C_13
REMARK    9  A    between atoms: C_13  and  C_15
REMARK   10  A    between atoms: C_16  and  C_17
REMARK   11  A    between atoms: C_19  and  O_20
REMARK   12  A    between atoms: O_20  and  C_21
REMARK   13  A    between atoms: C_22  and  O_23
REMARK   14  A    between atoms: O_23  and  C_24
REMARK   15  A    between atoms: C_25  and  O_26
REMARK   16  A    between atoms: O_26  and  C_27
REMARK   17  A    between atoms: C_30  and  O_31
REMARK   18  A    between atoms: O_31  and  C_32
REMARK   19  A    between atoms: C_33  and  O_34
REMARK   20  A    between atoms: O_34  and  C_35
REMARK                            x       y       z     vdW  Elec       q    Type
REMARK                         _______ _______ _______ _____ _____    ______ ____
ROOT
ATOM      1  C   UNL     1       0.645  10.984  19.104  0.00  0.00    +0.000 C 
ATOM      2  C   UNL     1       0.934  12.497  19.106  0.00  0.00    +0.000 C 
ATOM      3  C   UNL     1       0.739  10.488  20.557  0.00  0.00    +0.000 C 
ENDROOT
BRANCH   1   4
ATOM      4  C   UNL     1      -0.772  10.724  18.587  0.00  0.00    +0.000 C 
ATOM      5  O   UNL     1      -0.978  10.229  17.479  0.00  0.00    +0.000 OA
BRANCH   4   7
ATOM      6  C   UNL     1      -2.386  12.298  19.546  0.00  0.00    +0.000 C 
ATOM      7  C   UNL     1      -1.919  11.042  19.492  0.00  0.00    +0.000 C 
BRANCH   6  10
ATOM      8  C   UNL     1      -5.996  12.450  20.587  0.00  0.00    +0.000 A 
ATOM      9  C   UNL     1      -4.837  12.299  19.806  0.00  0.00    +0.000 A 
ATOM     10  C   UNL     1      -3.592  12.717  20.272  0.00  0.00    +0.000 A 
ATOM     11  C   UNL     1      -3.534  13.379  21.496  0.00  0.00    +0.000 A 
ATOM     12  C   UNL     1      -4.687  13.614  22.262  0.00  0.00    +0.000 A 
ATOM     13  C   UNL     1      -5.941  13.139  21.820  0.00  0.00    +0.000 A 
BRANCH   8  15
ATOM     14  C   UNL     1      -7.458  10.583  20.421  0.00  0.00    +0.000 C 
ATOM     15  O   UNL     1      -7.194  11.957  20.132  0.00  0.00    +0.000 OA
ENDBRANCH   8  15
BRANCH  12  16
ATOM     16  O   UNL     1      -4.373  14.288  23.418  0.00  0.00    +0.000 OA
ATOM     17  C   UNL     1      -4.473  15.701  23.460  0.00  0.00    +0.000 C 
ENDBRANCH  12  16
BRANCH  13  18
ATOM     18  O   UNL     1      -7.007  13.406  22.636  0.00  0.00    +0.000 OA
ATOM     19  C   UNL     1      -7.368  12.505  23.670  0.00  0.00    +0.000 C 
ENDBRANCH  13  18
ENDBRANCH   6  10
ENDBRANCH   4   7
ENDBRANCH   1   4
BRANCH   1  20
ATOM     20  C   UNL     1       1.690  10.272  18.237  0.00  0.00    +0.000 C 
ATOM     21  O   UNL     1       2.286  10.840  17.324  0.00  0.00    +0.000 OA
BRANCH  20  22
ATOM     22  C   UNL     1       1.985   8.838  18.526  0.00  0.00    +0.000 C 
ATOM     23  C   UNL     1       2.906   8.176  17.806  0.00  0.00    +0.000 C 
BRANCH  23  24
ATOM     24  C   UNL     1       3.175   6.737  17.965  0.00  0.00    +0.000 A 
ATOM     25  C   UNL     1       4.467   6.230  17.800  0.00  0.00    +0.000 A 
ATOM     26  C   UNL     1       4.739   4.872  17.979  0.00  0.00    +0.000 A 
ATOM     27  C   UNL     1       3.698   3.983  18.320  0.00  0.00    +0.000 A 
ATOM     28  C   UNL     1       2.391   4.483  18.504  0.00  0.00    +0.000 A 
ATOM     29  C   UNL     1       2.150   5.860  18.339  0.00  0.00    +0.000 A 
BRANCH  26  30
ATOM     30  O   UNL     1       6.001   4.342  17.820  0.00  0.00    +0.000 OA
ATOM     31  C   UNL     1       6.556   4.428  16.510  0.00  0.00    +0.000 C 
ENDBRANCH  26  30
BRANCH  27  32
ATOM     32  O   UNL     1       4.061   2.656  18.383  0.00  0.00    +0.000 OA
ATOM     33  C   UNL     1       4.308   2.111  19.670  0.00  0.00    +0.000 C 
ENDBRANCH  27  32
BRANCH  28  34
ATOM     34  O   UNL     1       1.398   3.584  18.795  0.00  0.00    +0.000 OA
ATOM     35  C   UNL     1       0.858   3.569  20.109  0.00  0.00    +0.000 C 
ENDBRANCH  28  34
ENDBRANCH  23  24
ENDBRANCH  20  22
ENDBRANCH   1  20
TORSDOF 12
ENDMDL
MODEL 6
REMARK VINA RESULT:      -7.4      3.296     11.954
REMARK  Name = 
REMARK  20 active torsions:
REMARK  status: ('A' for Active; 'I' for Inactive)
REMARK    1  A    between atoms: C_1  and  O_2
REMARK    2  A    between atoms: O_2  and  C_3
REMARK    3  A    between atoms: C_5  and  C_6
REMARK    4  A    between atoms: C_7  and  C_8
REMARK    5  A    between atoms: C_8  and  C_10
REMARK    6  A    between atoms: C_10  and  C_11
REMARK    7  A    between atoms: C_10  and  C_12
REMARK    8  A    between atoms: C_10  and  C_13
REMARK    9  A    between atoms: C_13  and  C_15
REMARK   10  A    between atoms: C_16  and  C_17
REMARK   11  A    between atoms: C_19  and  O_20
REMARK   12  A    between atoms: O_20  and  C_21
REMARK   13  A    between atoms: C_22  and  O_23
REMARK   14  A    between atoms: O_23  and  C_24
REMARK   15  A    between atoms: C_25  and  O_26
REMARK   16  A    between atoms: O_26  and  C_27
REMARK   17  A    between atoms: C_30  and  O_31
REMARK   18  A    between atoms: O_31  and  C_32
REMARK   19  A    between atoms: C_33  and  O_34
REMARK   20  A    between atoms: O_34  and  C_35
REMARK                            x       y       z     vdW  Elec       q    Type
REMARK                         _______ _______ _______ _____ _____    ______ ____
ROOT
ATOM      1  C   UNL     1       0.219  11.065  19.197  0.00  0.00    +0.000 C 
ATOM      2  C   UNL     1      -0.946  10.086  18.955  0.00  0.00    +0.000 C 
ATOM      3  C   UNL     1      -0.147  12.402  18.531  0.00  0.00    +0.000 C 
ENDROOT
BRANCH   1   4
ATOM      4  C   UNL     1       0.400  11.297  20.700  0.00  0.00    +0.000 C 
ATOM      5  O   UNL     1       1.515  11.368  21.216  0.00  0.00    +0.000 OA
BRANCH   4   7
ATOM      6  C   UNL     1      -1.254  12.735  21.794  0.00  0.00    +0.000 C 
ATOM      7  C   UNL     1      -0.826  11.492  21.533  0.00  0.00    +0.000 C 
BRANCH   6  10
ATOM      8  C   UNL     1      -3.656  14.443  24.129  0.00  0.00    +0.000 A 
ATOM      9  C   UNL     1      -2.481  13.888  23.595  0.00  0.00    +0.000 A 
ATOM     10  C   UNL     1      -2.515  13.067  22.469  0.00  0.00    +0.000 A 
ATOM     11  C   UNL     1      -3.757  12.728  21.938  0.00  0.00    +0.000 A 
ATOM     12  C   UNL     1      -4.954  13.204  22.499  0.00  0.00    +0.000 A 
ATOM     13  C   UNL     1      -4.918  14.084  23.602  0.00  0.00    +0.000 A 
BRANCH   8  15
ATOM     14  C   UNL     1      -2.283  15.488  25.765  0.00  0.00    +0.000 C 
ATOM     15  O   UNL     1      -3.580  15.310  25.191  0.00  0.00    +0.000 OA
ENDBRANCH   8  15
BRANCH  12  16
ATOM     16  O   UNL     1      -6.039  12.727  21.805  0.00  0.00    +0.000 OA
ATOM     17  C   UNL     1      -5.864  12.193  20.504  0.00  0.00    +0.000 C 
ENDBRANCH  12  16
BRANCH  13  18
ATOM     18  O   UNL     1      -6.131  14.505  24.076  0.00  0.00    +0.000 OA
ATOM     19  C   UNL     1      -6.700  15.722  23.624  0.00  0.00    +0.000 C 
ENDBRANCH  13  18
ENDBRANCH   6  10
ENDBRANCH   4   7
ENDBRANCH   1   4
BRANCH   1  20
ATOM     20  C   UNL     1       1.496  10.495  18.568  0.00  0.00    +0.000 C 
ATOM     21  O   UNL     1       2.306  11.200  17.970  0.00  0.00    +0.000 OA
BRANCH  20  22
ATOM     22  C   UNL     1       1.751   9.030  18.698  0.00  0.00    +0.000 C 
ATOM     23  C   UNL     1       2.717   8.444  17.972  0.00  0.00    +0.000 C 
BRANCH  23  24
ATOM     24  C   UNL     1       2.956   6.990  17.969  0.00  0.00    +0.000 A 
ATOM     25  C   UNL     1       1.976   6.105  18.424  0.00  0.00    +0.000 A 
ATOM     26  C   UNL     1       2.180   4.724  18.396  0.00  0.00    +0.000 A 
ATOM     27  C   UNL     1       3.399   4.201  17.914  0.00  0.00    +0.000 A 
ATOM     28  C   UNL     1       4.392   5.083  17.438  0.00  0.00    +0.000 A 
ATOM     29  C   UNL     1       4.150   6.468  17.457  0.00  0.00    +0.000 A 
BRANCH  26  30
ATOM     30  O   UNL     1       1.235   3.825  18.842  0.00  0.00    +0.000 OA
ATOM     31  C   UNL     1       0.907   3.896  20.226  0.00  0.00    +0.000 C 
ENDBRANCH  26  30
BRANCH  27  32
ATOM     32  O   UNL     1       3.527   2.833  18.016  0.00  0.00    +0.000 OA
ATOM     33  C   UNL     1       4.114   2.322  19.204  0.00  0.00    +0.000 C 
ENDBRANCH  27  32
BRANCH  28  34
ATOM     34  O   UNL     1       5.578   4.540  17.015  0.00  0.00    +0.000 OA
ATOM     35  C   UNL     1       6.726   4.691  17.839  0.00  0.00    +0.000 C 
ENDBRANCH  28  34
ENDBRANCH  23  24
ENDBRANCH  20  22
ENDBRANCH   1  20
TORSDOF 12
ENDMDL
MODEL 7
REMARK VINA RESULT:      -7.4      3.383      6.803
REMARK  Name = 
REMARK  20 active torsions:
REMARK  status: ('A' for Active; 'I' for Inactive)
REMARK    1  A    between atoms: C_1  and  O_2
REMARK    2  A    between atoms: O_2  and  C_3
REMARK    3  A    between atoms: C_5  and  C_6
REMARK    4  A    between atoms: C_7  and  C_8
REMARK    5  A    between atoms: C_8  and  C_10
REMARK    6  A    between atoms: C_10  and  C_11
REMARK    7  A    between atoms: C_10  and  C_12
REMARK    8  A    between atoms: C_10  and  C_13
REMARK    9  A    between atoms: C_13  and  C_15
REMARK   10  A    between atoms: C_16  and  C_17
REMARK   11  A    between atoms: C_19  and  O_20
REMARK   12  A    between atoms: O_20  and  C_21
REMARK   13  A    between atoms: C_22  and  O_23
REMARK   14  A    between atoms: O_23  and  C_24
REMARK   15  A    between atoms: C_25  and  O_26
REMARK   16  A    between atoms: O_26  and  C_27
REMARK   17  A    between atoms: C_30  and  O_31
REMARK   18  A    between atoms: O_31  and  C_32
REMARK   19  A    between atoms: C_33  and  O_34
REMARK   20  A    between atoms: O_34  and  C_35
REMARK                            x       y       z     vdW  Elec       q    Type
REMARK                         _______ _______ _______ _____ _____    ______ ____
ROOT
ATOM      1  C   UNL     1       0.530  10.581  19.303  0.00  0.00    +0.000 C 
ATOM      2  C   UNL     1       0.401   9.845  20.651  0.00  0.00    +0.000 C 
ATOM      3  C   UNL     1       1.021  12.009  19.596  0.00  0.00    +0.000 C 
ENDROOT
BRANCH   1   4
ATOM      4  C   UNL     1       1.564   9.877  18.421  0.00  0.00    +0.000 C 
ATOM      5  O   UNL     1       2.261  10.496  17.617  0.00  0.00    +0.000 OA
BRANCH   4   7
ATOM      6  C   UNL     1       2.676   7.766  17.866  0.00  0.00    +0.000 C 
ATOM      7  C   UNL     1       1.751   8.403  18.596  0.00  0.00    +0.000 C 
BRANCH   6  10
ATOM      8  C   UNL     1       4.874   4.728  18.147  0.00  0.00    +0.000 A 
ATOM      9  C   UNL     1       4.378   5.986  17.764  0.00  0.00    +0.000 A 
ATOM     10  C   UNL     1       3.065   6.360  18.040  0.00  0.00    +0.000 A 
ATOM     11  C   UNL     1       2.219   5.419  18.620  0.00  0.00    +0.000 A 
ATOM     12  C   UNL     1       2.664   4.126  18.942  0.00  0.00    +0.000 A 
ATOM     13  C   UNL     1       4.010   3.766  18.720  0.00  0.00    +0.000 A 
BRANCH   8  15
ATOM     14  C   UNL     1       7.146   5.380  18.394  0.00  0.00    +0.000 C 
ATOM     15  O   UNL     1       6.194   4.420  17.932  0.00  0.00    +0.000 OA
ENDBRANCH   8  15
BRANCH  12  16
ATOM     16  O   UNL     1       1.647   3.386  19.495  0.00  0.00    +0.000 OA
ATOM     17  C   UNL     1       0.887   2.513  18.677  0.00  0.00    +0.000 C 
ENDBRANCH  12  16
BRANCH  13  18
ATOM     18  O   UNL     1       4.358   2.490  19.073  0.00  0.00    +0.000 OA
ATOM     19  C   UNL     1       4.554   2.145  20.434  0.00  0.00    +0.000 C 
ENDBRANCH  13  18
ENDBRANCH   6  10
ENDBRANCH   4   7
ENDBRANCH   1   4
BRANCH   1  20
ATOM     20  C   UNL     1      -0.841  10.627  18.619  0.00  0.00    +0.000 C 
ATOM     21  O   UNL     1      -0.990  10.375  17.426  0.00  0.00    +0.000 OA
BRANCH  20  22
ATOM     22  C   UNL     1      -2.029  10.988  19.448  0.00  0.00    +0.000 C 
ATOM     23  C   UNL     1      -2.439  12.265  19.524  0.00  0.00    +0.000 C 
BRANCH  23  24
ATOM     24  C   UNL     1      -3.535  12.710  20.401  0.00  0.00    +0.000 A 
ATOM     25  C   UNL     1      -3.275  13.508  21.519  0.00  0.00    +0.000 A 
ATOM     26  C   UNL     1      -4.310  13.963  22.339  0.00  0.00    +0.000 A 
ATOM     27  C   UNL     1      -5.645  13.607  22.052  0.00  0.00    +0.000 A 
ATOM     28  C   UNL     1      -5.924  12.815  20.918  0.00  0.00    +0.000 A 
ATOM     29  C   UNL     1      -4.864  12.390  20.097  0.00  0.00    +0.000 A 
BRANCH  26  30
ATOM     30  O   UNL     1      -4.085  14.746  23.450  0.00  0.00    +0.000 OA
ATOM     31  C   UNL     1      -3.279  14.167  24.472  0.00  0.00    +0.000 C 
ENDBRANCH  26  30
BRANCH  27  32
ATOM     32  O   UNL     1      -6.573  14.035  22.976  0.00  0.00    +0.000 OA
ATOM     33  C   UNL     1      -6.949  13.118  23.992  0.00  0.00    +0.000 C 
ENDBRANCH  27  32
BRANCH  28  34
ATOM     34  O   UNL     1      -7.228  12.457  20.695  0.00  0.00    +0.000 OA
ATOM     35  C   UNL     1      -7.528  11.086  20.473  0.00  0.00    +0.000 C 
ENDBRANCH  28  34
ENDBRANCH  23  24
ENDBRANCH  20  22
ENDBRANCH   1  20
TORSDOF 12
ENDMDL
MODEL 8
REMARK VINA RESULT:      -7.4      3.731      7.327
REMARK  Name = 
REMARK  20 active torsions:
REMARK  status: ('A' for Active; 'I' for Inactive)
REMARK    1  A    between atoms: C_1  and  O_2
REMARK    2  A    between atoms: O_2  and  C_3
REMARK    3  A    between atoms: C_5  and  C_6
REMARK    4  A    between atoms: C_7  and  C_8
REMARK    5  A    between atoms: C_8  and  C_10
REMARK    6  A    between atoms: C_10  and  C_11
REMARK    7  A    between atoms: C_10  and  C_12
REMARK    8  A    between atoms: C_10  and  C_13
REMARK    9  A    between atoms: C_13  and  C_15
REMARK   10  A    between atoms: C_16  and  C_17
REMARK   11  A    between atoms: C_19  and  O_20
REMARK   12  A    between atoms: O_20  and  C_21
REMARK   13  A    between atoms: C_22  and  O_23
REMARK   14  A    between atoms: O_23  and  C_24
REMARK   15  A    between atoms: C_25  and  O_26
REMARK   16  A    between atoms: O_26  and  C_27
REMARK   17  A    between atoms: C_30  and  O_31
REMARK   18  A    between atoms: O_31  and  C_32
REMARK   19  A    between atoms: C_33  and  O_34
REMARK   20  A    between atoms: O_34  and  C_35
REMARK                            x       y       z     vdW  Elec       q    Type
REMARK                         _______ _______ _______ _____ _____    ______ ____
ROOT
ATOM      1  C   UNL     1       0.242  10.479  21.485  0.00  0.00    +0.000 C 
ATOM      2  C   UNL     1       0.998  11.796  21.223  0.00  0.00    +0.000 C 
ATOM      3  C   UNL     1      -0.547  10.132  20.212  0.00  0.00    +0.000 C 
ENDROOT
BRANCH   1   4
ATOM      4  C   UNL     1       1.239   9.353  21.769  0.00  0.00    +0.000 C 
ATOM      5  O   UNL     1       2.146   9.480  22.591  0.00  0.00    +0.000 OA
BRANCH   4   7
ATOM      6  C   UNL     1       2.038   7.587  20.270  0.00  0.00    +0.000 C 
ATOM      7  C   UNL     1       1.053   8.053  21.052  0.00  0.00    +0.000 C 
BRANCH   6  10
ATOM      8  C   UNL     1       3.055   4.802  17.958  0.00  0.00    +0.000 A 
ATOM      9  C   UNL     1       2.799   6.086  18.471  0.00  0.00    +0.000 A 
ATOM     10  C   UNL     1       2.050   6.265  19.631  0.00  0.00    +0.000 A 
ATOM     11  C   UNL     1       1.474   5.144  20.223  0.00  0.00    +0.000 A 
ATOM     12  C   UNL     1       1.646   3.857  19.689  0.00  0.00    +0.000 A 
ATOM     13  C   UNL     1       2.455   3.666  18.548  0.00  0.00    +0.000 A 
BRANCH   8  15
ATOM     14  C   UNL     1       5.265   4.813  17.083  0.00  0.00    +0.000 C 
ATOM     15  O   UNL     1       3.863   4.655  16.858  0.00  0.00    +0.000 OA
ENDBRANCH   8  15
BRANCH  12  16
ATOM     16  O   UNL     1       0.977   2.924  20.444  0.00  0.00    +0.000 OA
ATOM     17  C   UNL     1       1.487   2.546  21.712  0.00  0.00    +0.000 C 
ENDBRANCH  12  16
BRANCH  13  18
ATOM     18  O   UNL     1       2.574   2.377  18.104  0.00  0.00    +0.000 OA
ATOM     19  C   UNL     1       3.630   1.549  18.564  0.00  0.00    +0.000 C 
ENDBRANCH  13  18
ENDBRANCH   6  10
ENDBRANCH   4   7
ENDBRANCH   1   4
BRANCH   1  20
ATOM     20  C   UNL     1      -0.721  10.676  22.663  0.00  0.00    +0.000 C 
ATOM     21  O   UNL     1      -1.002   9.768  23.442  0.00  0.00    +0.000 OA
BRANCH  20  22
ATOM     22  C   UNL     1      -1.327  12.026  22.858  0.00  0.00    +0.000 C 
ATOM     23  C   UNL     1      -2.597  12.144  23.278  0.00  0.00    +0.000 C 
BRANCH  23  24
ATOM     24  C   UNL     1      -3.293  13.437  23.393  0.00  0.00    +0.000 A 
ATOM     25  C   UNL     1      -2.587  14.639  23.297  0.00  0.00    +0.000 A 
ATOM     26  C   UNL     1      -3.242  15.870  23.373  0.00  0.00    +0.000 A 
ATOM     27  C   UNL     1      -4.639  15.915  23.561  0.00  0.00    +0.000 A 
ATOM     28  C   UNL     1      -5.367  14.709  23.643  0.00  0.00    +0.000 A 
ATOM     29  C   UNL     1      -4.685  13.483  23.541  0.00  0.00    +0.000 A 
BRANCH  26  30
ATOM     30  O   UNL     1      -2.573  17.072  23.287  0.00  0.00    +0.000 OA
ATOM     31  C   UNL     1      -1.911  17.334  22.053  0.00  0.00    +0.000 C 
ENDBRANCH  26  30
BRANCH  27  32
ATOM     32  O   UNL     1      -5.167  17.179  23.711  0.00  0.00    +0.000 OA
ATOM     33  C   UNL     1      -5.315  17.667  25.035  0.00  0.00    +0.000 C 
ENDBRANCH  27  32
BRANCH  28  34
ATOM     34  O   UNL     1      -6.718  14.793  23.866  0.00  0.00    +0.000 OA
ATOM     35  C   UNL     1      -7.421  13.613  24.230  0.00  0.00    +0.000 C 
ENDBRANCH  28  34
ENDBRANCH  23  24
ENDBRANCH  20  22
ENDBRANCH   1  20
TORSDOF 12
ENDMDL
MODEL 9
REMARK VINA RESULT:      -7.3      3.300     11.834
REMARK  Name = 
REMARK  20 active torsions:
REMARK  status: ('A' for Active; 'I' for Inactive)
REMARK    1  A    between atoms: C_1  and  O_2
REMARK    2  A    between atoms: O_2  and  C_3
REMARK    3  A    between atoms: C_5  and  C_6
REMARK    4  A    between atoms: C_7  and  C_8
REMARK    5  A    between atoms: C_8  and  C_10
REMARK    6  A    between atoms: C_10  and  C_11
REMARK    7  A    between atoms: C_10  and  C_12
REMARK    8  A    between atoms: C_10  and  C_13
REMARK    9  A    between atoms: C_13  and  C_15
REMARK   10  A    between atoms: C_16  and  C_17
REMARK   11  A    between atoms: C_19  and  O_20
REMARK   12  A    between atoms: O_20  and  C_21
REMARK   13  A    between atoms: C_22  and  O_23
REMARK   14  A    between atoms: O_23  and  C_24
REMARK   15  A    between atoms: C_25  and  O_26
REMARK   16  A    between atoms: O_26  and  C_27
REMARK   17  A    between atoms: C_30  and  O_31
REMARK   18  A    between atoms: O_31  and  C_32
REMARK   19  A    between atoms: C_33  and  O_34
REMARK   20  A    between atoms: O_34  and  C_35
REMARK                            x       y       z     vdW  Elec       q    Type
REMARK                         _______ _______ _______ _____ _____    ______ ____
ROOT
ATOM      1  C   UNL     1       0.499  10.246  19.626  0.00  0.00    +0.000 C 
ATOM      2  C   UNL     1      -0.895  10.078  18.993  0.00  0.00    +0.000 C 
ATOM      3  C   UNL     1       1.473  10.658  18.509  0.00  0.00    +0.000 C 
ENDROOT
BRANCH   1   4
ATOM      4  C   UNL     1       0.463  11.355  20.680  0.00  0.00    +0.000 C 
ATOM      5  O   UNL     1       1.487  11.762  21.229  0.00  0.00    +0.000 OA
BRANCH   4   7
ATOM      6  C   UNL     1      -1.348  11.885  22.243  0.00  0.00    +0.000 C 
ATOM      7  C   UNL     1      -0.858  11.980  20.998  0.00  0.00    +0.000 C 
BRANCH   6  10
ATOM      8  C   UNL     1      -3.497  14.242  24.234  0.00  0.00    +0.000 A 
ATOM      9  C   UNL     1      -2.459  13.367  23.868  0.00  0.00    +0.000 A 
ATOM     10  C   UNL     1      -2.552  12.572  22.727  0.00  0.00    +0.000 A 
ATOM     11  C   UNL     1      -3.742  12.591  22.005  0.00  0.00    +0.000 A 
ATOM     12  C   UNL     1      -4.826  13.396  22.391  0.00  0.00    +0.000 A 
ATOM     13  C   UNL     1      -4.713  14.247  23.512  0.00  0.00    +0.000 A 
BRANCH   8  15
ATOM     14  C   UNL     1      -2.791  16.360  25.050  0.00  0.00    +0.000 C 
ATOM     15  O   UNL     1      -3.342  15.069  25.319  0.00  0.00    +0.000 OA
ENDBRANCH   8  15
BRANCH  12  16
ATOM     16  O   UNL     1      -5.883  13.235  21.528  0.00  0.00    +0.000 OA
ATOM     17  C   UNL     1      -6.965  12.393  21.888  0.00  0.00    +0.000 C 
ENDBRANCH  12  16
BRANCH  13  18
ATOM     18  O   UNL     1      -5.815  15.003  23.808  0.00  0.00    +0.000 OA
ATOM     19  C   UNL     1      -6.041  16.239  23.151  0.00  0.00    +0.000 C 
ENDBRANCH  13  18
ENDBRANCH   6  10
ENDBRANCH   4   7
ENDBRANCH   1   4
BRANCH   1  20
ATOM     20  C   UNL     1       0.939   8.912  20.240  0.00  0.00    +0.000 C 
ATOM     21  O   UNL     1       0.383   8.425  21.222  0.00  0.00    +0.000 OA
BRANCH  20  22
ATOM     22  C   UNL     1       2.082   8.190  19.610  0.00  0.00    +0.000 C 
ATOM     23  C   UNL     1       1.864   7.302  18.626  0.00  0.00    +0.000 C 
BRANCH  23  24
ATOM     24  C   UNL     1       2.929   6.477  18.030  0.00  0.00    +0.000 A 
ATOM     25  C   UNL     1       4.089   7.068  17.523  0.00  0.00    +0.000 A 
ATOM     26  C   UNL     1       5.119   6.293  16.985  0.00  0.00    +0.000 A 
ATOM     27  C   UNL     1       4.992   4.889  16.935  0.00  0.00    +0.000 A 
ATOM     28  C   UNL     1       3.833   4.277  17.458  0.00  0.00    +0.000 A 
ATOM     29  C   UNL     1       2.821   5.081  18.014  0.00  0.00    +0.000 A 
BRANCH  26  30
ATOM     30  O   UNL     1       6.272   6.846  16.472  0.00  0.00    +0.000 OA
ATOM     31  C   UNL     1       7.217   7.321  17.427  0.00  0.00    +0.000 C 
ENDBRANCH  26  30
BRANCH  27  32
ATOM     32  O   UNL     1       6.026   4.232  16.303  0.00  0.00    +0.000 OA
ATOM     33  C   UNL     1       5.900   4.016  14.906  0.00  0.00    +0.000 C 
ENDBRANCH  27  32
BRANCH  28  34
ATOM     34  O   UNL     1       3.729   2.914  17.355  0.00  0.00    +0.000 OA
ATOM     35  C   UNL     1       2.620   2.269  17.968  0.00  0.00    +0.000 C 
ENDBRANCH  28  34
ENDBRANCH  23  24
ENDBRANCH  20  22
ENDBRANCH   1  20
TORSDOF 12
ENDMDL
