MODEL 1
REMARK VINA RESULT:      -7.5      0.000      0.000
REMARK  Name = 
REMARK  9 active torsions:
REMARK  status: ('A' for Active; 'I' for Inactive)
REMARK    1  A    between atoms: C_1  and  C_2
REMARK    2  A    between atoms: C_2  and  O_3
REMARK    3  A    between atoms: O_3  and  C_4
REMARK    4  A    between atoms: C_6  and  C_7
REMARK    5  A    between atoms: N_8  and  N_9
REMARK    6  A    between atoms: C_10  and  C_12
REMARK    7  A    between atoms: C_15  and  N_16
REMARK    8  A    between atoms: C_17  and  C_19
REMARK    9  A    between atoms: C_26  and  O_27
REMARK                            x       y       z     vdW  Elec       q    Type
REMARK                         _______ _______ _______ _____ _____    ______ ____
ROOT
ATOM      1  N   UNL     1       1.263   7.522  21.170  0.00  0.00    +0.000 N 
ATOM      2  C   UNL     1       1.086   8.717  20.477  0.00  0.00    +0.000 C 
ATOM      3  O   UNL     1       1.484   8.947  19.339  0.00  0.00    +0.000 OA
ATOM      4  H   UNL     1       0.821   7.360  22.069  0.00  0.00    +0.000 HD
ENDROOT
BRANCH   2   5
ATOM      5  C   UNL     1       0.319   9.773  21.193  0.00  0.00    +0.000 A 
ATOM      6  C   UNL     1       0.120  11.028  20.627  0.00  0.00    +0.000 A 
ATOM      7  C   UNL     1      -0.593  12.008  21.324  0.00  0.00    +0.000 A 
ATOM      8  C   UNL     1      -1.135  11.760  22.592  0.00  0.00    +0.000 A 
ATOM      9  C   UNL     1      -0.964  10.482  23.143  0.00  0.00    +0.000 A 
ATOM     10  C   UNL     1      -0.248   9.493  22.444  0.00  0.00    +0.000 A 
BRANCH   8  11
ATOM     11  N   UNL     1      -1.851  12.741  23.326  0.00  0.00    +0.000 N 
ATOM     12  C   UNL     1      -3.222  12.934  23.302  0.00  0.00    +0.000 C 
ATOM     13  O   UNL     1      -4.030  12.299  22.635  0.00  0.00    +0.000 OA
ATOM     14  H   UNL     1      -1.306  13.359  23.913  0.00  0.00    +0.000 HD
BRANCH  12  15
ATOM     15  C   UNL     1      -3.795  14.015  24.157  0.00  0.00    +0.000 C 
ATOM     16  C   UNL     1      -3.750  15.476  23.795  0.00  0.00    +0.000 C 
ATOM     17  C   UNL     1      -5.069  14.752  23.840  0.00  0.00    +0.000 C 
ENDBRANCH  12  15
ENDBRANCH   8  11
ENDBRANCH   2   5
BRANCH   1  19
ATOM     18  C   UNL     1       1.451   5.326  20.618  0.00  0.00    +0.000 C 
ATOM     19  N   UNL     1       1.963   6.515  20.582  0.00  0.00    +0.000 NA
BRANCH  18  22
ATOM     20  C   UNL     1       4.228   3.187  19.192  0.00  0.00    +0.000 A 
ATOM     21  C   UNL     1       3.527   4.276  19.722  0.00  0.00    +0.000 A 
ATOM     22  C   UNL     1       2.161   4.180  20.012  0.00  0.00    +0.000 A 
ATOM     23  C   UNL     1       1.474   2.995  19.746  0.00  0.00    +0.000 A 
ATOM     24  C   UNL     1       2.163   1.908  19.198  0.00  0.00    +0.000 A 
ATOM     25  C   UNL     1       3.532   2.005  18.919  0.00  0.00    +0.000 A 
BRANCH  25  26
ATOM     26  O   UNL     1       4.163   0.930  18.356  0.00  0.00    +0.000 OA
ATOM     27  H   UNL     1       4.846   0.603  18.962  0.00  0.00    +0.000 HD
ENDBRANCH  25  26
BRANCH  20  28
ATOM     28  O   UNL     1       5.553   3.449  18.971  0.00  0.00    +0.000 OA
BRANCH  28  30
ATOM     29  C   UNL     1       5.557   4.171  16.701  0.00  0.00    +0.000 C 
ATOM     30  C   UNL     1       5.871   4.561  18.137  0.00  0.00    +0.000 C 
ENDBRANCH  28  30
ENDBRANCH  20  28
ENDBRANCH  18  22
ENDBRANCH   1  19
TORSDOF 8
ENDMDL
MODEL 2
REMARK VINA RESULT:      -7.5      3.788      4.595
REMARK  Name = 
REMARK  9 active torsions:
REMARK  status: ('A' for Active; 'I' for Inactive)
REMARK    1  A    between atoms: C_1  and  C_2
REMARK    2  A    between atoms: C_2  and  O_3
REMARK    3  A    between atoms: O_3  and  C_4
REMARK    4  A    between atoms: C_6  and  C_7
REMARK    5  A    between atoms: N_8  and  N_9
REMARK    6  A    between atoms: C_10  and  C_12
REMARK    7  A    between atoms: C_15  and  N_16
REMARK    8  A    between atoms: C_17  and  C_19
REMARK    9  A    between atoms: C_26  and  O_27
REMARK                            x       y       z     vdW  Elec       q    Type
REMARK                         _______ _______ _______ _____ _____    ______ ____
ROOT
ATOM      1  N   UNL     1       1.295   9.104  17.532  0.00  0.00    +0.000 N 
ATOM      2  C   UNL     1       0.587   9.589  18.628  0.00  0.00    +0.000 C 
ATOM      3  O   UNL     1       0.967   9.554  19.795  0.00  0.00    +0.000 OA
ATOM      4  H   UNL     1       0.972   9.256  16.582  0.00  0.00    +0.000 HD
ENDROOT
BRANCH   2   5
ATOM      5  C   UNL     1      -0.723  10.226  18.322  0.00  0.00    +0.000 A 
ATOM      6  C   UNL     1      -1.460   9.858  17.201  0.00  0.00    +0.000 A 
ATOM      7  C   UNL     1      -2.682  10.479  16.928  0.00  0.00    +0.000 A 
ATOM      8  C   UNL     1      -3.206  11.471  17.766  0.00  0.00    +0.000 A 
ATOM      9  C   UNL     1      -2.479  11.813  18.916  0.00  0.00    +0.000 A 
ATOM     10  C   UNL     1      -1.249  11.189  19.194  0.00  0.00    +0.000 A 
BRANCH   8  11
ATOM     11  N   UNL     1      -4.437  12.127  17.504  0.00  0.00    +0.000 N 
ATOM     12  C   UNL     1      -5.688  11.703  17.920  0.00  0.00    +0.000 C 
ATOM     13  O   UNL     1      -5.931  10.691  18.566  0.00  0.00    +0.000 OA
ATOM     14  H   UNL     1      -4.393  12.976  16.958  0.00  0.00    +0.000 HD
BRANCH  12  15
ATOM     15  C   UNL     1      -6.870  12.537  17.555  0.00  0.00    +0.000 C 
ATOM     16  C   UNL     1      -7.261  13.795  18.286  0.00  0.00    +0.000 C 
ATOM     17  C   UNL     1      -6.779  13.870  16.862  0.00  0.00    +0.000 C 
ENDBRANCH  12  15
ENDBRANCH   8  11
ENDBRANCH   2   5
BRANCH   1  19
ATOM     18  C   UNL     1       2.546   7.210  17.630  0.00  0.00    +0.000 C 
ATOM     19  N   UNL     1       2.496   8.500  17.736  0.00  0.00    +0.000 NA
BRANCH  18  22
ATOM     20  C   UNL     1       5.006   4.576  18.785  0.00  0.00    +0.000 A 
ATOM     21  C   UNL     1       3.824   5.303  18.603  0.00  0.00    +0.000 A 
ATOM     22  C   UNL     1       3.814   6.484  17.852  0.00  0.00    +0.000 A 
ATOM     23  C   UNL     1       5.000   6.965  17.295  0.00  0.00    +0.000 A 
ATOM     24  C   UNL     1       6.190   6.255  17.488  0.00  0.00    +0.000 A 
ATOM     25  C   UNL     1       6.193   5.068  18.233  0.00  0.00    +0.000 A 
BRANCH  25  26
ATOM     26  O   UNL     1       7.381   4.419  18.424  0.00  0.00    +0.000 OA
ATOM     27  H   UNL     1       7.209   3.517  18.737  0.00  0.00    +0.000 HD
ENDBRANCH  25  26
BRANCH  20  28
ATOM     28  O   UNL     1       4.839   3.448  19.541  0.00  0.00    +0.000 OA
BRANCH  28  30
ATOM     29  C   UNL     1       3.573   1.676  18.575  0.00  0.00    +0.000 C 
ATOM     30  C   UNL     1       3.546   2.847  19.544  0.00  0.00    +0.000 C 
ENDBRANCH  28  30
ENDBRANCH  20  28
ENDBRANCH  18  22
ENDBRANCH   1  19
TORSDOF 8
ENDMDL
MODEL 3
REMARK VINA RESULT:      -7.4      4.103      4.792
REMARK  Name = 
REMARK  9 active torsions:
REMARK  status: ('A' for Active; 'I' for Inactive)
REMARK    1  A    between atoms: C_1  and  C_2
REMARK    2  A    between atoms: C_2  and  O_3
REMARK    3  A    between atoms: O_3  and  C_4
REMARK    4  A    between atoms: C_6  and  C_7
REMARK    5  A    between atoms: N_8  and  N_9
REMARK    6  A    between atoms: C_10  and  C_12
REMARK    7  A    between atoms: C_15  and  N_16
REMARK    8  A    between atoms: C_17  and  C_19
REMARK    9  A    between atoms: C_26  and  O_27
REMARK                            x       y       z     vdW  Elec       q    Type
REMARK                         _______ _______ _______ _____ _____    ______ ____
ROOT
ATOM      1  N   UNL     1       1.281   9.003  17.865  0.00  0.00    +0.000 N 
ATOM      2  C   UNL     1       0.637   9.756  18.845  0.00  0.00    +0.000 C 
ATOM      3  O   UNL     1       1.077   9.989  19.967  0.00  0.00    +0.000 OA
ATOM      4  H   UNL     1       0.911   8.934  16.923  0.00  0.00    +0.000 HD
ENDROOT
BRANCH   2   5
ATOM      5  C   UNL     1      -0.676  10.338  18.457  0.00  0.00    +0.000 A 
ATOM      6  C   UNL     1      -1.363   9.883  17.336  0.00  0.00    +0.000 A 
ATOM      7  C   UNL     1      -2.590  10.454  16.984  0.00  0.00    +0.000 A 
ATOM      8  C   UNL     1      -3.167  11.479  17.743  0.00  0.00    +0.000 A 
ATOM      9  C   UNL     1      -2.491  11.910  18.893  0.00  0.00    +0.000 A 
ATOM     10  C   UNL     1      -1.256  11.336  19.251  0.00  0.00    +0.000 A 
BRANCH   8  11
ATOM     11  N   UNL     1      -4.404  12.085  17.400  0.00  0.00    +0.000 N 
ATOM     12  C   UNL     1      -5.661  11.622  17.751  0.00  0.00    +0.000 C 
ATOM     13  O   UNL     1      -5.904  10.612  18.401  0.00  0.00    +0.000 OA
ATOM     14  H   UNL     1      -4.360  12.927  16.841  0.00  0.00    +0.000 HD
BRANCH  12  15
ATOM     15  C   UNL     1      -6.850  12.406  17.305  0.00  0.00    +0.000 C 
ATOM     16  C   UNL     1      -7.560  13.410  18.174  0.00  0.00    +0.000 C 
ATOM     17  C   UNL     1      -6.810  13.869  16.952  0.00  0.00    +0.000 C 
ENDBRANCH  12  15
ENDBRANCH   8  11
ENDBRANCH   2   5
BRANCH   1  19
ATOM     18  C   UNL     1       2.744   7.284  17.614  0.00  0.00    +0.000 C 
ATOM     19  N   UNL     1       2.480   8.432  18.152  0.00  0.00    +0.000 NA
BRANCH  18  22
ATOM     20  C   UNL     1       6.442   6.484  17.641  0.00  0.00    +0.000 A 
ATOM     21  C   UNL     1       5.216   7.092  17.352  0.00  0.00    +0.000 A 
ATOM     22  C   UNL     1       4.023   6.597  17.891  0.00  0.00    +0.000 A 
ATOM     23  C   UNL     1       4.044   5.465  18.707  0.00  0.00    +0.000 A 
ATOM     24  C   UNL     1       5.263   4.839  18.985  0.00  0.00    +0.000 A 
ATOM     25  C   UNL     1       6.456   5.344  18.452  0.00  0.00    +0.000 A 
BRANCH  25  26
ATOM     26  O   UNL     1       7.624   4.687  18.723  0.00  0.00    +0.000 OA
ATOM     27  H   UNL     1       8.244   5.295  19.156  0.00  0.00    +0.000 HD
ENDBRANCH  25  26
BRANCH  20  28
ATOM     28  O   UNL     1       7.507   7.094  17.037  0.00  0.00    +0.000 OA
BRANCH  28  30
ATOM     29  C   UNL     1       8.623   8.475  18.626  0.00  0.00    +0.000 C 
ATOM     30  C   UNL     1       7.759   8.457  17.374  0.00  0.00    +0.000 C 
ENDBRANCH  28  30
ENDBRANCH  20  28
ENDBRANCH  18  22
ENDBRANCH   1  19
TORSDOF 8
ENDMDL
MODEL 4
REMARK VINA RESULT:      -7.4      0.443      1.038
REMARK  Name = 
REMARK  9 active torsions:
REMARK  status: ('A' for Active; 'I' for Inactive)
REMARK    1  A    between atoms: C_1  and  C_2
REMARK    2  A    between atoms: C_2  and  O_3
REMARK    3  A    between atoms: O_3  and  C_4
REMARK    4  A    between atoms: C_6  and  C_7
REMARK    5  A    between atoms: N_8  and  N_9
REMARK    6  A    between atoms: C_10  and  C_12
REMARK    7  A    between atoms: C_15  and  N_16
REMARK    8  A    between atoms: C_17  and  C_19
REMARK    9  A    between atoms: C_26  and  O_27
REMARK                            x       y       z     vdW  Elec       q    Type
REMARK                         _______ _______ _______ _____ _____    ______ ____
ROOT
ATOM      1  N   UNL     1       1.357   7.597  21.151  0.00  0.00    +0.000 N 
ATOM      2  C   UNL     1       1.080   8.790  20.487  0.00  0.00    +0.000 C 
ATOM      3  O   UNL     1       1.371   9.041  19.321  0.00  0.00    +0.000 OA
ATOM      4  H   UNL     1       0.999   7.414  22.082  0.00  0.00    +0.000 HD
ENDROOT
BRANCH   2   5
ATOM      5  C   UNL     1       0.341   9.814  21.275  0.00  0.00    +0.000 A 
ATOM      6  C   UNL     1      -0.287   9.487  22.473  0.00  0.00    +0.000 A 
ATOM      7  C   UNL     1      -0.986  10.463  23.189  0.00  0.00    +0.000 A 
ATOM      8  C   UNL     1      -1.067  11.786  22.740  0.00  0.00    +0.000 A 
ATOM      9  C   UNL     1      -0.402  12.121  21.552  0.00  0.00    +0.000 A 
ATOM     10  C   UNL     1       0.303  11.142  20.829  0.00  0.00    +0.000 A 
BRANCH   8  11
ATOM     11  N   UNL     1      -1.782  12.793  23.441  0.00  0.00    +0.000 N 
ATOM     12  C   UNL     1      -3.156  12.961  23.443  0.00  0.00    +0.000 C 
ATOM     13  O   UNL     1      -3.970  12.279  22.832  0.00  0.00    +0.000 OA
ATOM     14  H   UNL     1      -1.234  13.449  23.980  0.00  0.00    +0.000 HD
BRANCH  12  15
ATOM     15  C   UNL     1      -3.727  14.076  24.255  0.00  0.00    +0.000 C 
ATOM     16  C   UNL     1      -3.615  15.528  23.873  0.00  0.00    +0.000 C 
ATOM     17  C   UNL     1      -4.959  14.851  23.872  0.00  0.00    +0.000 C 
ENDBRANCH  12  15
ENDBRANCH   8  11
ENDBRANCH   2   5
BRANCH   1  19
ATOM     18  C   UNL     1       1.526   5.430  20.490  0.00  0.00    +0.000 C 
ATOM     19  N   UNL     1       2.038   6.620  20.496  0.00  0.00    +0.000 NA
BRANCH  18  22
ATOM     20  C   UNL     1       4.144   3.477  18.580  0.00  0.00    +0.000 A 
ATOM     21  C   UNL     1       3.452   4.530  19.188  0.00  0.00    +0.000 A 
ATOM     22  C   UNL     1       2.217   4.315  19.811  0.00  0.00    +0.000 A 
ATOM     23  C   UNL     1       1.647   3.041  19.806  0.00  0.00    +0.000 A 
ATOM     24  C   UNL     1       2.323   1.986  19.183  0.00  0.00    +0.000 A 
ATOM     25  C   UNL     1       3.564   2.205  18.570  0.00  0.00    +0.000 A 
BRANCH  25  26
ATOM     26  O   UNL     1       4.180   1.155  17.947  0.00  0.00    +0.000 OA
ATOM     27  H   UNL     1       4.955   0.883  18.462  0.00  0.00    +0.000 HD
ENDBRANCH  25  26
BRANCH  20  28
ATOM     28  O   UNL     1       5.334   3.859  18.023  0.00  0.00    +0.000 OA
BRANCH  28  30
ATOM     29  C   UNL     1       5.862   3.859  15.700  0.00  0.00    +0.000 C 
ATOM     30  C   UNL     1       5.279   4.666  16.849  0.00  0.00    +0.000 C 
ENDBRANCH  28  30
ENDBRANCH  20  28
ENDBRANCH  18  22
ENDBRANCH   1  19
TORSDOF 8
ENDMDL
MODEL 5
REMARK VINA RESULT:      -7.3      7.000      9.655
REMARK  Name = 
REMARK  9 active torsions:
REMARK  status: ('A' for Active; 'I' for Inactive)
REMARK    1  A    between atoms: C_1  and  C_2
REMARK    2  A    between atoms: C_2  and  O_3
REMARK    3  A    between atoms: O_3  and  C_4
REMARK    4  A    between atoms: C_6  and  C_7
REMARK    5  A    between atoms: N_8  and  N_9
REMARK    6  A    between atoms: C_10  and  C_12
REMARK    7  A    between atoms: C_15  and  N_16
REMARK    8  A    between atoms: C_17  and  C_19
REMARK    9  A    between atoms: C_26  and  O_27
REMARK                            x       y       z     vdW  Elec       q    Type
REMARK                         _______ _______ _______ _____ _____    ______ ____
ROOT
ATOM      1  N   UNL     1       6.800   8.156  17.347  0.00  0.00    +0.000 N 
ATOM      2  C   UNL     1       7.921   8.319  18.157  0.00  0.00    +0.000 C 
ATOM      3  O   UNL     1       8.466   7.431  18.808  0.00  0.00    +0.000 OA
ATOM      4  H   UNL     1       6.461   8.906  16.755  0.00  0.00    +0.000 HD
ENDROOT
BRANCH   2   5
ATOM      5  C   UNL     1       8.503   9.688  18.190  0.00  0.00    +0.000 A 
ATOM      6  C   UNL     1       7.922  10.736  17.482  0.00  0.00    +0.000 A 
ATOM      7  C   UNL     1       8.494  12.010  17.518  0.00  0.00    +0.000 A 
ATOM      8  C   UNL     1       9.648  12.277  18.265  0.00  0.00    +0.000 A 
ATOM      9  C   UNL     1      10.210  11.228  19.007  0.00  0.00    +0.000 A 
ATOM     10  C   UNL     1       9.636   9.944  18.974  0.00  0.00    +0.000 A 
BRANCH   8  11
ATOM     11  N   UNL     1      10.257  13.559  18.308  0.00  0.00    +0.000 N 
ATOM     12  C   UNL     1      11.119  14.081  17.358  0.00  0.00    +0.000 C 
ATOM     13  O   UNL     1      11.502  13.516  16.341  0.00  0.00    +0.000 OA
ATOM     14  H   UNL     1      10.045  14.137  19.110  0.00  0.00    +0.000 HD
BRANCH  12  15
ATOM     15  C   UNL     1      11.651  15.458  17.572  0.00  0.00    +0.000 C 
ATOM     16  C   UNL     1      10.997  16.699  17.024  0.00  0.00    +0.000 C 
ATOM     17  C   UNL     1      11.036  16.462  18.510  0.00  0.00    +0.000 C 
ENDBRANCH  12  15
ENDBRANCH   8  11
ENDBRANCH   2   5
BRANCH   1  19
ATOM     18  C   UNL     1       4.958   6.851  17.604  0.00  0.00    +0.000 C 
ATOM     19  N   UNL     1       6.209   6.934  17.276  0.00  0.00    +0.000 NA
BRANCH  18  22
ATOM     20  C   UNL     1       2.341   4.182  18.194  0.00  0.00    +0.000 A 
ATOM     21  C   UNL     1       3.048   5.388  18.257  0.00  0.00    +0.000 A 
ATOM     22  C   UNL     1       4.252   5.553  17.564  0.00  0.00    +0.000 A 
ATOM     23  C   UNL     1       4.777   4.497  16.819  0.00  0.00    +0.000 A 
ATOM     24  C   UNL     1       4.087   3.281  16.765  0.00  0.00    +0.000 A 
ATOM     25  C   UNL     1       2.876   3.124  17.453  0.00  0.00    +0.000 A 
BRANCH  25  26
ATOM     26  O   UNL     1       2.246   1.911  17.400  0.00  0.00    +0.000 OA
ATOM     27  H   UNL     1       2.897   1.218  17.209  0.00  0.00    +0.000 HD
ENDBRANCH  25  26
BRANCH  20  28
ATOM     28  O   UNL     1       1.185   4.191  18.926  0.00  0.00    +0.000 OA
BRANCH  28  30
ATOM     29  C   UNL     1       1.340   2.942  20.948  0.00  0.00    +0.000 C 
ATOM     30  C   UNL     1       1.305   4.335  20.339  0.00  0.00    +0.000 C 
ENDBRANCH  28  30
ENDBRANCH  20  28
ENDBRANCH  18  22
ENDBRANCH   1  19
TORSDOF 8
ENDMDL
MODEL 6
REMARK VINA RESULT:      -7.3      2.729     11.483
REMARK  Name = 
REMARK  9 active torsions:
REMARK  status: ('A' for Active; 'I' for Inactive)
REMARK    1  A    between atoms: C_1  and  C_2
REMARK    2  A    between atoms: C_2  and  O_3
REMARK    3  A    between atoms: O_3  and  C_4
REMARK    4  A    between atoms: C_6  and  C_7
REMARK    5  A    between atoms: N_8  and  N_9
REMARK    6  A    between atoms: C_10  and  C_12
REMARK    7  A    between atoms: C_15  and  N_16
REMARK    8  A    between atoms: C_17  and  C_19
REMARK    9  A    between atoms: C_26  and  O_27
REMARK                            x       y       z     vdW  Elec       q    Type
REMARK                         _______ _______ _______ _____ _____    ______ ____
ROOT
ATOM      1  N   UNL     1       0.746  10.422  21.307  0.00  0.00    +0.000 N 
ATOM      2  C   UNL     1       0.650  10.240  19.929  0.00  0.00    +0.000 C 
ATOM      3  O   UNL     1       0.021  10.958  19.158  0.00  0.00    +0.000 OA
ATOM      4  H   UNL     1       1.366   9.853  21.874  0.00  0.00    +0.000 HD
ENDROOT
BRANCH   2   5
ATOM      5  C   UNL     1       1.411   9.088  19.373  0.00  0.00    +0.000 A 
ATOM      6  C   UNL     1       1.714   7.978  20.156  0.00  0.00    +0.000 A 
ATOM      7  C   UNL     1       2.440   6.914  19.615  0.00  0.00    +0.000 A 
ATOM      8  C   UNL     1       2.873   6.921  18.283  0.00  0.00    +0.000 A 
ATOM      9  C   UNL     1       2.534   8.024  17.486  0.00  0.00    +0.000 A 
ATOM     10  C   UNL     1       1.802   9.097  18.027  0.00  0.00    +0.000 A 
BRANCH   8  11
ATOM     11  N   UNL     1       3.624   5.860  17.714  0.00  0.00    +0.000 N 
ATOM     12  C   UNL     1       4.946   5.927  17.307  0.00  0.00    +0.000 C 
ATOM     13  O   UNL     1       5.671   6.914  17.362  0.00  0.00    +0.000 OA
ATOM     14  H   UNL     1       3.145   4.979  17.588  0.00  0.00    +0.000 HD
BRANCH  12  15
ATOM     15  C   UNL     1       5.571   4.697  16.739  0.00  0.00    +0.000 C 
ATOM     16  C   UNL     1       5.655   4.409  15.263  0.00  0.00    +0.000 C 
ATOM     17  C   UNL     1       6.910   4.672  16.052  0.00  0.00    +0.000 C 
ENDBRANCH  12  15
ENDBRANCH   8  11
ENDBRANCH   2   5
BRANCH   1  19
ATOM     18  C   UNL     1      -1.034  11.168  22.505  0.00  0.00    +0.000 C 
ATOM     19  N   UNL     1       0.069  11.448  21.886  0.00  0.00    +0.000 NA
BRANCH  18  22
ATOM     20  C   UNL     1      -3.919  12.977  24.155  0.00  0.00    +0.000 A 
ATOM     21  C   UNL     1      -3.162  11.996  23.504  0.00  0.00    +0.000 A 
ATOM     22  C   UNL     1      -1.830  12.235  23.147  0.00  0.00    +0.000 A 
ATOM     23  C   UNL     1      -1.248  13.474  23.415  0.00  0.00    +0.000 A 
ATOM     24  C   UNL     1      -2.003  14.467  24.049  0.00  0.00    +0.000 A 
ATOM     25  C   UNL     1      -3.333  14.221  24.413  0.00  0.00    +0.000 A 
BRANCH  25  26
ATOM     26  O   UNL     1      -4.047  15.227  25.003  0.00  0.00    +0.000 OA
ATOM     27  H   UNL     1      -3.499  15.658  25.678  0.00  0.00    +0.000 HD
ENDBRANCH  25  26
BRANCH  20  28
ATOM     28  O   UNL     1      -5.198  12.581  24.434  0.00  0.00    +0.000 OA
BRANCH  28  30
ATOM     29  C   UNL     1      -7.442  13.359  24.248  0.00  0.00    +0.000 C 
ATOM     30  C   UNL     1      -6.208  12.908  23.482  0.00  0.00    +0.000 C 
ENDBRANCH  28  30
ENDBRANCH  20  28
ENDBRANCH  18  22
ENDBRANCH   1  19
TORSDOF 8
ENDMDL
MODEL 7
REMARK VINA RESULT:      -7.2      3.506      4.035
REMARK  Name = 
REMARK  9 active torsions:
REMARK  status: ('A' for Active; 'I' for Inactive)
REMARK    1  A    between atoms: C_1  and  C_2
REMARK    2  A    between atoms: C_2  and  O_3
REMARK    3  A    between atoms: O_3  and  C_4
REMARK    4  A    between atoms: C_6  and  C_7
REMARK    5  A    between atoms: N_8  and  N_9
REMARK    6  A    between atoms: C_10  and  C_12
REMARK    7  A    between atoms: C_15  and  N_16
REMARK    8  A    between atoms: C_17  and  C_19
REMARK    9  A    between atoms: C_26  and  O_27
REMARK                            x       y       z     vdW  Elec       q    Type
REMARK                         _______ _______ _______ _____ _____    ______ ____
ROOT
ATOM      1  N   UNL     1       1.415   8.642  18.241  0.00  0.00    +0.000 N 
ATOM      2  C   UNL     1       1.288  10.027  18.177  0.00  0.00    +0.000 C 
ATOM      3  O   UNL     1       2.215  10.823  18.051  0.00  0.00    +0.000 OA
ATOM      4  H   UNL     1       0.602   8.035  18.241  0.00  0.00    +0.000 HD
ENDROOT
BRANCH   2   5
ATOM      5  C   UNL     1      -0.102  10.554  18.236  0.00  0.00    +0.000 A 
ATOM      6  C   UNL     1      -1.177   9.806  17.765  0.00  0.00    +0.000 A 
ATOM      7  C   UNL     1      -2.473  10.327  17.820  0.00  0.00    +0.000 A 
ATOM      8  C   UNL     1      -2.733  11.595  18.353  0.00  0.00    +0.000 A 
ATOM      9  C   UNL     1      -1.653  12.331  18.861  0.00  0.00    +0.000 A 
ATOM     10  C   UNL     1      -0.347  11.809  18.809  0.00  0.00    +0.000 A 
BRANCH   8  11
ATOM     11  N   UNL     1      -4.037  12.153  18.408  0.00  0.00    +0.000 N 
ATOM     12  C   UNL     1      -4.736  12.474  19.560  0.00  0.00    +0.000 C 
ATOM     13  O   UNL     1      -4.346  12.316  20.710  0.00  0.00    +0.000 OA
ATOM     14  H   UNL     1      -4.498  12.323  17.524  0.00  0.00    +0.000 HD
BRANCH  12  15
ATOM     15  C   UNL     1      -6.098  13.066  19.414  0.00  0.00    +0.000 C 
ATOM     16  C   UNL     1      -7.346  12.247  19.216  0.00  0.00    +0.000 C 
ATOM     17  C   UNL     1      -7.152  13.028  20.488  0.00  0.00    +0.000 C 
ENDBRANCH  12  15
ENDBRANCH   8  11
ENDBRANCH   2   5
BRANCH   1  19
ATOM     18  C   UNL     1       2.740   6.803  18.074  0.00  0.00    +0.000 C 
ATOM     19  N   UNL     1       2.657   8.090  18.202  0.00  0.00    +0.000 NA
BRANCH  18  22
ATOM     20  C   UNL     1       6.126   5.633  16.858  0.00  0.00    +0.000 A 
ATOM     21  C   UNL     1       4.858   6.222  16.895  0.00  0.00    +0.000 A 
ATOM     22  C   UNL     1       4.055   6.132  18.038  0.00  0.00    +0.000 A 
ATOM     23  C   UNL     1       4.508   5.424  19.152  0.00  0.00    +0.000 A 
ATOM     24  C   UNL     1       5.767   4.816  19.118  0.00  0.00    +0.000 A 
ATOM     25  C   UNL     1       6.571   4.917  17.974  0.00  0.00    +0.000 A 
BRANCH  25  26
ATOM     26  O   UNL     1       7.783   4.283  17.969  0.00  0.00    +0.000 OA
ATOM     27  H   UNL     1       7.665   3.359  18.238  0.00  0.00    +0.000 HD
ENDBRANCH  25  26
BRANCH  20  28
ATOM     28  O   UNL     1       6.777   5.818  15.669  0.00  0.00    +0.000 OA
BRANCH  28  30
ATOM     29  C   UNL     1       5.689   4.230  14.266  0.00  0.00    +0.000 C 
ATOM     30  C   UNL     1       7.017   4.664  14.867  0.00  0.00    +0.000 C 
ENDBRANCH  28  30
ENDBRANCH  20  28
ENDBRANCH  18  22
ENDBRANCH   1  19
TORSDOF 8
ENDMDL
MODEL 8
REMARK VINA RESULT:      -7.2      3.281      4.116
REMARK  Name = 
REMARK  9 active torsions:
REMARK  status: ('A' for Active; 'I' for Inactive)
REMARK    1  A    between atoms: C_1  and  C_2
REMARK    2  A    between atoms: C_2  and  O_3
REMARK    3  A    between atoms: O_3  and  C_4
REMARK    4  A    between atoms: C_6  and  C_7
REMARK    5  A    between atoms: N_8  and  N_9
REMARK    6  A    between atoms: C_10  and  C_12
REMARK    7  A    between atoms: C_15  and  N_16
REMARK    8  A    between atoms: C_17  and  C_19
REMARK    9  A    between atoms: C_26  and  O_27
REMARK                            x       y       z     vdW  Elec       q    Type
REMARK                         _______ _______ _______ _____ _____    ______ ____
ROOT
ATOM      1  N   UNL     1       1.609   9.321  17.935  0.00  0.00    +0.000 N 
ATOM      2  C   UNL     1       0.997   9.556  19.164  0.00  0.00    +0.000 C 
ATOM      3  O   UNL     1       1.418   9.178  20.253  0.00  0.00    +0.000 OA
ATOM      4  H   UNL     1       1.265   9.749  17.081  0.00  0.00    +0.000 HD
ENDROOT
BRANCH   2   5
ATOM      5  C   UNL     1      -0.252  10.364  19.121  0.00  0.00    +0.000 A 
ATOM      6  C   UNL     1      -0.605  11.201  20.175  0.00  0.00    +0.000 A 
ATOM      7  C   UNL     1      -1.790  11.940  20.118  0.00  0.00    +0.000 A 
ATOM      8  C   UNL     1      -2.644  11.876  19.010  0.00  0.00    +0.000 A 
ATOM      9  C   UNL     1      -2.266  11.061  17.933  0.00  0.00    +0.000 A 
ATOM     10  C   UNL     1      -1.074  10.315  17.987  0.00  0.00    +0.000 A 
BRANCH   8  11
ATOM     11  N   UNL     1      -3.859  12.606  18.932  0.00  0.00    +0.000 N 
ATOM     12  C   UNL     1      -5.123  12.064  18.773  0.00  0.00    +0.000 C 
ATOM     13  O   UNL     1      -5.391  10.873  18.662  0.00  0.00    +0.000 OA
ATOM     14  H   UNL     1      -3.790  13.613  18.991  0.00  0.00    +0.000 HD
BRANCH  12  15
ATOM     15  C   UNL     1      -6.287  12.996  18.725  0.00  0.00    +0.000 C 
ATOM     16  C   UNL     1      -6.694  13.761  17.493  0.00  0.00    +0.000 C 
ATOM     17  C   UNL     1      -7.590  12.683  18.040  0.00  0.00    +0.000 C 
ENDBRANCH  12  15
ENDBRANCH   8  11
ENDBRANCH   2   5
BRANCH   1  19
ATOM     18  C   UNL     1       2.638   7.297  18.024  0.00  0.00    +0.000 C 
ATOM     19  N   UNL     1       2.749   8.581  17.895  0.00  0.00    +0.000 NA
BRANCH  18  22
ATOM     20  C   UNL     1       4.980   4.415  18.751  0.00  0.00    +0.000 A 
ATOM     21  C   UNL     1       3.875   5.273  18.791  0.00  0.00    +0.000 A 
ATOM     22  C   UNL     1       3.835   6.431  18.005  0.00  0.00    +0.000 A 
ATOM     23  C   UNL     1       4.918   6.756  17.188  0.00  0.00    +0.000 A 
ATOM     24  C   UNL     1       6.035   5.914  17.156  0.00  0.00    +0.000 A 
ATOM     25  C   UNL     1       6.067   4.751  17.937  0.00  0.00    +0.000 A 
BRANCH  25  26
ATOM     26  O   UNL     1       7.188   3.970  17.901  0.00  0.00    +0.000 OA
ATOM     27  H   UNL     1       7.975   4.536  17.881  0.00  0.00    +0.000 HD
ENDBRANCH  25  26
BRANCH  20  28
ATOM     28  O   UNL     1       4.856   3.331  19.577  0.00  0.00    +0.000 OA
BRANCH  28  30
ATOM     29  C   UNL     1       3.621   1.687  18.374  0.00  0.00    +0.000 C 
ATOM     30  C   UNL     1       3.612   2.636  19.563  0.00  0.00    +0.000 C 
ENDBRANCH  28  30
ENDBRANCH  20  28
ENDBRANCH  18  22
ENDBRANCH   1  19
TORSDOF 8
ENDMDL
MODEL 9
REMARK VINA RESULT:      -7.1      4.019      4.512
REMARK  Name = 
REMARK  9 active torsions:
REMARK  status: ('A' for Active; 'I' for Inactive)
REMARK    1  A    between atoms: C_1  and  C_2
REMARK    2  A    between atoms: C_2  and  O_3
REMARK    3  A    between atoms: O_3  and  C_4
REMARK    4  A    between atoms: C_6  and  C_7
REMARK    5  A    between atoms: N_8  and  N_9
REMARK    6  A    between atoms: C_10  and  C_12
REMARK    7  A    between atoms: C_15  and  N_16
REMARK    8  A    between atoms: C_17  and  C_19
REMARK    9  A    between atoms: C_26  and  O_27
REMARK                            x       y       z     vdW  Elec       q    Type
REMARK                         _______ _______ _______ _____ _____    ______ ____
ROOT
ATOM      1  N   UNL     1       1.505   8.574  17.916  0.00  0.00    +0.000 N 
ATOM      2  C   UNL     1       1.409   9.955  18.072  0.00  0.00    +0.000 C 
ATOM      3  O   UNL     1       2.356  10.735  18.110  0.00  0.00    +0.000 OA
ATOM      4  H   UNL     1       0.680   7.997  17.790  0.00  0.00    +0.000 HD
ENDROOT
BRANCH   2   5
ATOM      5  C   UNL     1       0.029  10.501  18.167  0.00  0.00    +0.000 A 
ATOM      6  C   UNL     1      -0.207  11.788  18.643  0.00  0.00    +0.000 A 
ATOM      7  C   UNL     1      -1.514  12.275  18.734  0.00  0.00    +0.000 A 
ATOM      8  C   UNL     1      -2.615  11.502  18.345  0.00  0.00    +0.000 A 
ATOM      9  C   UNL     1      -2.372  10.221  17.831  0.00  0.00    +0.000 A 
ATOM     10  C   UNL     1      -1.058   9.727  17.736  0.00  0.00    +0.000 A 
BRANCH   8  11
ATOM     11  N   UNL     1      -3.952  11.968  18.441  0.00  0.00    +0.000 N 
ATOM     12  C   UNL     1      -4.928  11.843  17.465  0.00  0.00    +0.000 C 
ATOM     13  O   UNL     1      -4.787  11.325  16.364  0.00  0.00    +0.000 OA
ATOM     14  H   UNL     1      -4.211  12.440  19.297  0.00  0.00    +0.000 HD
BRANCH  12  15
ATOM     15  C   UNL     1      -6.286  12.388  17.756  0.00  0.00    +0.000 C 
ATOM     16  C   UNL     1      -6.527  13.706  18.442  0.00  0.00    +0.000 C 
ATOM     17  C   UNL     1      -6.916  13.527  16.999  0.00  0.00    +0.000 C 
ENDBRANCH  12  15
ENDBRANCH   8  11
ENDBRANCH   2   5
BRANCH   1  19
ATOM     18  C   UNL     1       2.842   6.753  18.158  0.00  0.00    +0.000 C 
ATOM     19  N   UNL     1       2.736   8.002  17.833  0.00  0.00    +0.000 NA
BRANCH  18  22
ATOM     20  C   UNL     1       6.017   5.204  16.801  0.00  0.00    +0.000 A 
ATOM     21  C   UNL     1       4.757   5.809  16.870  0.00  0.00    +0.000 A 
ATOM     22  C   UNL     1       4.151   6.069  18.105  0.00  0.00    +0.000 A 
ATOM     23  C   UNL     1       4.793   5.698  19.287  0.00  0.00    +0.000 A 
ATOM     24  C   UNL     1       6.044   5.076  19.227  0.00  0.00    +0.000 A 
ATOM     25  C   UNL     1       6.651   4.827  17.989  0.00  0.00    +0.000 A 
BRANCH  25  26
ATOM     26  O   UNL     1       7.861   4.190  17.970  0.00  0.00    +0.000 OA
ATOM     27  H   UNL     1       7.984   3.757  17.111  0.00  0.00    +0.000 HD
ENDBRANCH  25  26
BRANCH  20  28
ATOM     28  O   UNL     1       6.464   5.026  15.520  0.00  0.00    +0.000 OA
BRANCH  28  30
ATOM     29  C   UNL     1       6.026   3.982  13.424  0.00  0.00    +0.000 C 
ATOM     30  C   UNL     1       6.227   3.757  14.914  0.00  0.00    +0.000 C 
ENDBRANCH  28  30
ENDBRANCH  20  28
ENDBRANCH  18  22
ENDBRANCH   1  19
TORSDOF 8
ENDMDL
