MODEL 1
REMARK VINA RESULT:      -6.9      0.000      0.000
REMARK  Name = 
REMARK  8 active torsions:
REMARK  status: ('A' for Active; 'I' for Inactive)
REMARK    1  A    between atoms: C_1  and  N_2
REMARK    2  A    between atoms: N_2  and  C_3
REMARK    3  A    between atoms: C_3  and  C_4
REMARK    4  A    between atoms: C_4  and  C_5
REMARK    5  A    between atoms: C_5  and  O_6
REMARK    6  A    between atoms: O_6  and  C_7
REMARK    7  A    between atoms: C_11  and  O_12
REMARK    8  A    between atoms: O_12  and  C_13
REMARK                            x       y       z     vdW  Elec       q    Type
REMARK                         _______ _______ _______ _____ _____    ______ ____
ROOT
ATOM      1  C   UNL     1       6.174   5.389  15.875  0.00  0.00    +0.000 A 
ATOM      2  C   UNL     1       7.138   5.002  16.797  0.00  0.00    +0.000 A 
ATOM      3  C   UNL     1       6.892   5.109  18.171  0.00  0.00    +0.000 A 
ATOM      4  C   UNL     1       5.646   5.554  18.630  0.00  0.00    +0.000 A 
ATOM      5  C   UNL     1       4.669   5.927  17.716  0.00  0.00    +0.000 A 
ATOM      6  C   UNL     1       4.962   5.900  16.337  0.00  0.00    +0.000 A 
ENDROOT
BRANCH   1   7
ATOM      7  O   UNL     1       6.481   5.181  14.554  0.00  0.00    +0.000 OA
BRANCH   7   8
ATOM      8  C   UNL     1       6.337   3.839  14.088  0.00  0.00    +0.000 C 
BRANCH   8   9
ATOM      9  C   UNL     1       6.554   3.795  12.576  0.00  0.00    +0.000 C 
BRANCH   9  10
ATOM     10  C   UNL     1       5.396   3.051  11.912  0.00  0.00    +0.000 C 
BRANCH  10  12
ATOM     11  C   UNL     1       7.207   1.728  11.054  0.00  0.00    +0.000 C 
ATOM     12  N   UNL     1       5.814   1.717  11.486  0.00  0.00    +0.000 NA
ATOM     13  H   UNL     1       5.705   1.061  12.258  0.00  0.00    +0.000 HD
ENDBRANCH  10  12
ENDBRANCH   9  10
ENDBRANCH   8   9
ENDBRANCH   7   8
ENDBRANCH   1   7
BRANCH   5  14
ATOM     14  O   UNL     1       3.435   6.334  18.214  0.00  0.00    +0.000 OA
BRANCH  14  15
ATOM     15  C   UNL     1       2.589   5.362  18.731  0.00  0.00    +0.000 A 
ATOM     16  C   UNL     1       2.163   4.285  17.972  0.00  0.00    +0.000 A 
ATOM     17  C   UNL     1       1.285   3.350  18.484  0.00  0.00    +0.000 A 
ATOM     18  C   UNL     1       0.882   3.443  19.814  0.00  0.00    +0.000 A 
ATOM     19  C   UNL     1       1.343   4.498  20.609  0.00  0.00    +0.000 A 
ATOM     20  C   UNL     1       2.186   5.468  20.075  0.00  0.00    +0.000 A 
ENDBRANCH  14  15
ENDBRANCH   5  14
TORSDOF 7
ENDMDL
MODEL 2
REMARK VINA RESULT:      -6.8      0.948      1.599
REMARK  Name = 
REMARK  8 active torsions:
REMARK  status: ('A' for Active; 'I' for Inactive)
REMARK    1  A    between atoms: C_1  and  N_2
REMARK    2  A    between atoms: N_2  and  C_3
REMARK    3  A    between atoms: C_3  and  C_4
REMARK    4  A    between atoms: C_4  and  C_5
REMARK    5  A    between atoms: C_5  and  O_6
REMARK    6  A    between atoms: O_6  and  C_7
REMARK    7  A    between atoms: C_11  and  O_12
REMARK    8  A    between atoms: O_12  and  C_13
REMARK                            x       y       z     vdW  Elec       q    Type
REMARK                         _______ _______ _______ _____ _____    ______ ____
ROOT
ATOM      1  C   UNL     1       6.406   5.949  16.728  0.00  0.00    +0.000 A 
ATOM      2  C   UNL     1       7.141   5.521  17.826  0.00  0.00    +0.000 A 
ATOM      3  C   UNL     1       6.530   5.369  19.076  0.00  0.00    +0.000 A 
ATOM      4  C   UNL     1       5.155   5.595  19.219  0.00  0.00    +0.000 A 
ATOM      5  C   UNL     1       4.407   6.007  18.123  0.00  0.00    +0.000 A 
ATOM      6  C   UNL     1       5.052   6.242  16.892  0.00  0.00    +0.000 A 
ENDROOT
BRANCH   1   7
ATOM      7  O   UNL     1       7.076   5.999  15.532  0.00  0.00    +0.000 OA
BRANCH   7   8
ATOM      8  C   UNL     1       7.403   4.737  14.952  0.00  0.00    +0.000 C 
BRANCH   8   9
ATOM      9  C   UNL     1       6.167   4.150  14.271  0.00  0.00    +0.000 C 
BRANCH   9  10
ATOM     10  C   UNL     1       6.443   3.959  12.780  0.00  0.00    +0.000 C 
BRANCH  10  12
ATOM     11  C   UNL     1       4.798   2.858  11.420  0.00  0.00    +0.000 C 
ATOM     12  N   UNL     1       5.931   2.670  12.319  0.00  0.00    +0.000 NA
ATOM     13  H   UNL     1       6.669   2.164  11.831  0.00  0.00    +0.000 HD
ENDBRANCH  10  12
ENDBRANCH   9  10
ENDBRANCH   8   9
ENDBRANCH   7   8
ENDBRANCH   1   7
BRANCH   5  14
ATOM     14  O   UNL     1       3.039   6.189  18.301  0.00  0.00    +0.000 OA
BRANCH  14  15
ATOM     15  C   UNL     1       2.299   5.121  18.791  0.00  0.00    +0.000 A 
ATOM     16  C   UNL     1       1.836   5.091  20.096  0.00  0.00    +0.000 A 
ATOM     17  C   UNL     1       1.140   4.003  20.585  0.00  0.00    +0.000 A 
ATOM     18  C   UNL     1       0.825   2.949  19.730  0.00  0.00    +0.000 A 
ATOM     19  C   UNL     1       1.243   2.987  18.395  0.00  0.00    +0.000 A 
ATOM     20  C   UNL     1       1.989   4.061  17.919  0.00  0.00    +0.000 A 
ENDBRANCH  14  15
ENDBRANCH   5  14
TORSDOF 7
ENDMDL
MODEL 3
REMARK VINA RESULT:      -6.7      3.969      5.524
REMARK  Name = 
REMARK  8 active torsions:
REMARK  status: ('A' for Active; 'I' for Inactive)
REMARK    1  A    between atoms: C_1  and  N_2
REMARK    2  A    between atoms: N_2  and  C_3
REMARK    3  A    between atoms: C_3  and  C_4
REMARK    4  A    between atoms: C_4  and  C_5
REMARK    5  A    between atoms: C_5  and  O_6
REMARK    6  A    between atoms: O_6  and  C_7
REMARK    7  A    between atoms: C_11  and  O_12
REMARK    8  A    between atoms: O_12  and  C_13
REMARK                            x       y       z     vdW  Elec       q    Type
REMARK                         _______ _______ _______ _____ _____    ______ ____
ROOT
ATOM      1  C   UNL     1       6.757   5.893  16.890  0.00  0.00    +0.000 A 
ATOM      2  C   UNL     1       6.097   5.517  15.727  0.00  0.00    +0.000 A 
ATOM      3  C   UNL     1       5.147   4.489  15.748  0.00  0.00    +0.000 A 
ATOM      4  C   UNL     1       4.811   3.866  16.956  0.00  0.00    +0.000 A 
ATOM      5  C   UNL     1       5.453   4.247  18.128  0.00  0.00    +0.000 A 
ATOM      6  C   UNL     1       6.471   5.220  18.078  0.00  0.00    +0.000 A 
ENDROOT
BRANCH   1   7
ATOM      7  O   UNL     1       7.617   6.956  16.783  0.00  0.00    +0.000 OA
BRANCH   7   8
ATOM      8  C   UNL     1       7.914   7.637  18.002  0.00  0.00    +0.000 C 
BRANCH   8   9
ATOM      9  C   UNL     1       8.157   9.119  17.715  0.00  0.00    +0.000 C 
BRANCH   9  10
ATOM     10  C   UNL     1       8.970   9.737  18.852  0.00  0.00    +0.000 C 
BRANCH  10  12
ATOM     11  C   UNL     1      10.311  11.495  17.917  0.00  0.00    +0.000 C 
ATOM     12  N   UNL     1       9.102  11.181  18.670  0.00  0.00    +0.000 NA
ATOM     13  H   UNL     1       8.290  11.538  18.167  0.00  0.00    +0.000 HD
ENDBRANCH  10  12
ENDBRANCH   9  10
ENDBRANCH   8   9
ENDBRANCH   7   8
ENDBRANCH   1   7
BRANCH   5  14
ATOM     14  O   UNL     1       5.067   3.624  19.311  0.00  0.00    +0.000 OA
BRANCH  14  15
ATOM     15  C   UNL     1       3.746   3.759  19.717  0.00  0.00    +0.000 A 
ATOM     16  C   UNL     1       3.181   4.998  19.968  0.00  0.00    +0.000 A 
ATOM     17  C   UNL     1       1.880   5.117  20.415  0.00  0.00    +0.000 A 
ATOM     18  C   UNL     1       1.091   3.975  20.539  0.00  0.00    +0.000 A 
ATOM     19  C   UNL     1       1.631   2.720  20.240  0.00  0.00    +0.000 A 
ATOM     20  C   UNL     1       2.959   2.600  19.840  0.00  0.00    +0.000 A 
ENDBRANCH  14  15
ENDBRANCH   5  14
TORSDOF 7
ENDMDL
MODEL 4
REMARK VINA RESULT:      -6.7      1.396      1.553
REMARK  Name = 
REMARK  8 active torsions:
REMARK  status: ('A' for Active; 'I' for Inactive)
REMARK    1  A    between atoms: C_1  and  N_2
REMARK    2  A    between atoms: N_2  and  C_3
REMARK    3  A    between atoms: C_3  and  C_4
REMARK    4  A    between atoms: C_4  and  C_5
REMARK    5  A    between atoms: C_5  and  O_6
REMARK    6  A    between atoms: O_6  and  C_7
REMARK    7  A    between atoms: C_11  and  O_12
REMARK    8  A    between atoms: O_12  and  C_13
REMARK                            x       y       z     vdW  Elec       q    Type
REMARK                         _______ _______ _______ _____ _____    ______ ____
ROOT
ATOM      1  C   UNL     1       6.766   5.105  16.234  0.00  0.00    +0.000 A 
ATOM      2  C   UNL     1       7.376   6.218  16.798  0.00  0.00    +0.000 A 
ATOM      3  C   UNL     1       7.235   6.491  18.164  0.00  0.00    +0.000 A 
ATOM      4  C   UNL     1       6.523   5.611  18.988  0.00  0.00    +0.000 A 
ATOM      5  C   UNL     1       5.924   4.484  18.437  0.00  0.00    +0.000 A 
ATOM      6  C   UNL     1       5.998   4.270  17.046  0.00  0.00    +0.000 A 
ENDROOT
BRANCH   1   7
ATOM      7  O   UNL     1       7.020   4.883  14.904  0.00  0.00    +0.000 OA
BRANCH   7   8
ATOM      8  C   UNL     1       6.011   4.166  14.193  0.00  0.00    +0.000 C 
BRANCH   8   9
ATOM      9  C   UNL     1       6.515   3.830  12.790  0.00  0.00    +0.000 C 
BRANCH   9  10
ATOM     10  C   UNL     1       5.416   3.111  12.007  0.00  0.00    +0.000 C 
BRANCH  10  12
ATOM     11  C   UNL     1       7.203   1.794  11.092  0.00  0.00    +0.000 C 
ATOM     12  N   UNL     1       5.846   1.767  11.626  0.00  0.00    +0.000 NA
ATOM     13  H   UNL     1       5.817   1.155  12.441  0.00  0.00    +0.000 HD
ENDBRANCH  10  12
ENDBRANCH   9  10
ENDBRANCH   8   9
ENDBRANCH   7   8
ENDBRANCH   1   7
BRANCH   5  14
ATOM     14  O   UNL     1       5.253   3.620  19.296  0.00  0.00    +0.000 OA
BRANCH  14  15
ATOM     15  C   UNL     1       3.896   3.415  19.084  0.00  0.00    +0.000 A 
ATOM     16  C   UNL     1       3.410   2.230  18.558  0.00  0.00    +0.000 A 
ATOM     17  C   UNL     1       2.063   2.055  18.309  0.00  0.00    +0.000 A 
ATOM     18  C   UNL     1       1.163   3.057  18.669  0.00  0.00    +0.000 A 
ATOM     19  C   UNL     1       1.634   4.241  19.247  0.00  0.00    +0.000 A 
ATOM     20  C   UNL     1       2.998   4.434  19.449  0.00  0.00    +0.000 A 
ENDBRANCH  14  15
ENDBRANCH   5  14
TORSDOF 7
ENDMDL
MODEL 5
REMARK VINA RESULT:      -6.6      4.188      5.666
REMARK  Name = 
REMARK  8 active torsions:
REMARK  status: ('A' for Active; 'I' for Inactive)
REMARK    1  A    between atoms: C_1  and  N_2
REMARK    2  A    between atoms: N_2  and  C_3
REMARK    3  A    between atoms: C_3  and  C_4
REMARK    4  A    between atoms: C_4  and  C_5
REMARK    5  A    between atoms: C_5  and  O_6
REMARK    6  A    between atoms: O_6  and  C_7
REMARK    7  A    between atoms: C_11  and  O_12
REMARK    8  A    between atoms: O_12  and  C_13
REMARK                            x       y       z     vdW  Elec       q    Type
REMARK                         _______ _______ _______ _____ _____    ______ ____
ROOT
ATOM      1  C   UNL     1       6.533   6.918  17.429  0.00  0.00    +0.000 A 
ATOM      2  C   UNL     1       7.339   5.810  17.650  0.00  0.00    +0.000 A 
ATOM      3  C   UNL     1       6.773   4.540  17.818  0.00  0.00    +0.000 A 
ATOM      4  C   UNL     1       5.389   4.367  17.706  0.00  0.00    +0.000 A 
ATOM      5  C   UNL     1       4.574   5.467  17.467  0.00  0.00    +0.000 A 
ATOM      6  C   UNL     1       5.149   6.751  17.390  0.00  0.00    +0.000 A 
ENDROOT
BRANCH   1   7
ATOM      7  O   UNL     1       7.183   8.106  17.207  0.00  0.00    +0.000 OA
BRANCH   7   8
ATOM      8  C   UNL     1       8.305   8.365  18.050  0.00  0.00    +0.000 C 
BRANCH   8   9
ATOM      9  C   UNL     1       8.558   9.871  18.119  0.00  0.00    +0.000 C 
BRANCH   9  10
ATOM     10  C   UNL     1       9.250  10.217  19.437  0.00  0.00    +0.000 C 
BRANCH  10  12
ATOM     11  C   UNL     1      10.467  11.493  17.808  0.00  0.00    +0.000 C 
ATOM     12  N   UNL     1      10.279  11.234  19.231  0.00  0.00    +0.000 NA
ATOM     13  H   UNL     1      10.004  12.098  19.697  0.00  0.00    +0.000 HD
ENDBRANCH  10  12
ENDBRANCH   9  10
ENDBRANCH   8   9
ENDBRANCH   7   8
ENDBRANCH   1   7
BRANCH   5  14
ATOM     14  O   UNL     1       3.207   5.246  17.332  0.00  0.00    +0.000 OA
BRANCH  14  15
ATOM     15  C   UNL     1       2.521   4.728  18.422  0.00  0.00    +0.000 A 
ATOM     16  C   UNL     1       2.549   5.342  19.662  0.00  0.00    +0.000 A 
ATOM     17  C   UNL     1       1.899   4.792  20.750  0.00  0.00    +0.000 A 
ATOM     18  C   UNL     1       1.133   3.641  20.581  0.00  0.00    +0.000 A 
ATOM     19  C   UNL     1       1.053   3.035  19.323  0.00  0.00    +0.000 A 
ATOM     20  C   UNL     1       1.751   3.564  18.240  0.00  0.00    +0.000 A 
ENDBRANCH  14  15
ENDBRANCH   5  14
TORSDOF 7
ENDMDL
MODEL 6
REMARK VINA RESULT:      -6.6      3.857      5.438
REMARK  Name = 
REMARK  8 active torsions:
REMARK  status: ('A' for Active; 'I' for Inactive)
REMARK    1  A    between atoms: C_1  and  N_2
REMARK    2  A    between atoms: N_2  and  C_3
REMARK    3  A    between atoms: C_3  and  C_4
REMARK    4  A    between atoms: C_4  and  C_5
REMARK    5  A    between atoms: C_5  and  O_6
REMARK    6  A    between atoms: O_6  and  C_7
REMARK    7  A    between atoms: C_11  and  O_12
REMARK    8  A    between atoms: O_12  and  C_13
REMARK                            x       y       z     vdW  Elec       q    Type
REMARK                         _______ _______ _______ _____ _____    ______ ____
ROOT
ATOM      1  C   UNL     1       6.609   5.961  16.905  0.00  0.00    +0.000 A 
ATOM      2  C   UNL     1       6.827   4.731  16.297  0.00  0.00    +0.000 A 
ATOM      3  C   UNL     1       5.790   3.794  16.193  0.00  0.00    +0.000 A 
ATOM      4  C   UNL     1       4.506   4.113  16.651  0.00  0.00    +0.000 A 
ATOM      5  C   UNL     1       4.273   5.347  17.245  0.00  0.00    +0.000 A 
ATOM      6  C   UNL     1       5.345   6.244  17.424  0.00  0.00    +0.000 A 
ENDROOT
BRANCH   1   7
ATOM      7  O   UNL     1       7.664   6.837  16.896  0.00  0.00    +0.000 OA
BRANCH   7   8
ATOM      8  C   UNL     1       7.394   8.137  17.420  0.00  0.00    +0.000 C 
BRANCH   8   9
ATOM      9  C   UNL     1       8.468   8.512  18.440  0.00  0.00    +0.000 C 
BRANCH   9  10
ATOM     10  C   UNL     1       8.775  10.006  18.338  0.00  0.00    +0.000 C 
BRANCH  10  12
ATOM     11  C   UNL     1       9.433  11.811  19.778  0.00  0.00    +0.000 C 
ATOM     12  N   UNL     1       9.681  10.423  19.406  0.00  0.00    +0.000 NA
ATOM     13  H   UNL     1       9.545   9.826  20.222  0.00  0.00    +0.000 HD
ENDBRANCH  10  12
ENDBRANCH   9  10
ENDBRANCH   8   9
ENDBRANCH   7   8
ENDBRANCH   1   7
BRANCH   5  14
ATOM     14  O   UNL     1       2.976   5.635  17.657  0.00  0.00    +0.000 OA
BRANCH  14  15
ATOM     15  C   UNL     1       2.408   4.826  18.631  0.00  0.00    +0.000 A 
ATOM     16  C   UNL     1       1.469   3.857  18.320  0.00  0.00    +0.000 A 
ATOM     17  C   UNL     1       0.877   3.089  19.303  0.00  0.00    +0.000 A 
ATOM     18  C   UNL     1       1.289   3.232  20.627  0.00  0.00    +0.000 A 
ATOM     19  C   UNL     1       2.273   4.172  20.951  0.00  0.00    +0.000 A 
ATOM     20  C   UNL     1       2.830   4.981  19.964  0.00  0.00    +0.000 A 
ENDBRANCH  14  15
ENDBRANCH   5  14
TORSDOF 7
ENDMDL
MODEL 7
REMARK VINA RESULT:      -6.6      2.851      6.942
REMARK  Name = 
REMARK  8 active torsions:
REMARK  status: ('A' for Active; 'I' for Inactive)
REMARK    1  A    between atoms: C_1  and  N_2
REMARK    2  A    between atoms: N_2  and  C_3
REMARK    3  A    between atoms: C_3  and  C_4
REMARK    4  A    between atoms: C_4  and  C_5
REMARK    5  A    between atoms: C_5  and  O_6
REMARK    6  A    between atoms: O_6  and  C_7
REMARK    7  A    between atoms: C_11  and  O_12
REMARK    8  A    between atoms: O_12  and  C_13
REMARK                            x       y       z     vdW  Elec       q    Type
REMARK                         _______ _______ _______ _____ _____    ______ ____
ROOT
ATOM      1  C   UNL     1       4.636   4.324  18.065  0.00  0.00    +0.000 A 
ATOM      2  C   UNL     1       3.831   5.453  18.149  0.00  0.00    +0.000 A 
ATOM      3  C   UNL     1       4.155   6.613  17.434  0.00  0.00    +0.000 A 
ATOM      4  C   UNL     1       5.266   6.627  16.582  0.00  0.00    +0.000 A 
ATOM      5  C   UNL     1       6.068   5.497  16.478  0.00  0.00    +0.000 A 
ATOM      6  C   UNL     1       5.781   4.367  17.271  0.00  0.00    +0.000 A 
ENDROOT
BRANCH   1   7
ATOM      7  O   UNL     1       4.198   3.216  18.745  0.00  0.00    +0.000 OA
BRANCH   7   8
ATOM      8  C   UNL     1       3.245   2.405  18.058  0.00  0.00    +0.000 C 
BRANCH   8   9
ATOM      9  C   UNL     1       2.152   1.964  19.031  0.00  0.00    +0.000 C 
BRANCH   9  10
ATOM     10  C   UNL     1       1.068   3.039  19.108  0.00  0.00    +0.000 C 
BRANCH  10  12
ATOM     11  C   UNL     1       1.724   3.298  21.403  0.00  0.00    +0.000 C 
ATOM     12  N   UNL     1       0.597   3.203  20.482  0.00  0.00    +0.000 NA
ATOM     13  H   UNL     1       0.033   4.049  20.551  0.00  0.00    +0.000 HD
ENDBRANCH  10  12
ENDBRANCH   9  10
ENDBRANCH   8   9
ENDBRANCH   7   8
ENDBRANCH   1   7
BRANCH   5  14
ATOM     14  O   UNL     1       7.143   5.542  15.596  0.00  0.00    +0.000 OA
BRANCH  14  15
ATOM     15  C   UNL     1       6.982   4.966  14.343  0.00  0.00    +0.000 A 
ATOM     16  C   UNL     1       6.001   4.022  14.093  0.00  0.00    +0.000 A 
ATOM     17  C   UNL     1       5.880   3.422  12.855  0.00  0.00    +0.000 A 
ATOM     18  C   UNL     1       6.708   3.832  11.811  0.00  0.00    +0.000 A 
ATOM     19  C   UNL     1       7.672   4.821  12.034  0.00  0.00    +0.000 A 
ATOM     20  C   UNL     1       7.825   5.386  13.297  0.00  0.00    +0.000 A 
ENDBRANCH  14  15
ENDBRANCH   5  14
TORSDOF 7
ENDMDL
MODEL 8
REMARK VINA RESULT:      -6.6      4.239      5.836
REMARK  Name = 
REMARK  8 active torsions:
REMARK  status: ('A' for Active; 'I' for Inactive)
REMARK    1  A    between atoms: C_1  and  N_2
REMARK    2  A    between atoms: N_2  and  C_3
REMARK    3  A    between atoms: C_3  and  C_4
REMARK    4  A    between atoms: C_4  and  C_5
REMARK    5  A    between atoms: C_5  and  O_6
REMARK    6  A    between atoms: O_6  and  C_7
REMARK    7  A    between atoms: C_11  and  O_12
REMARK    8  A    between atoms: O_12  and  C_13
REMARK                            x       y       z     vdW  Elec       q    Type
REMARK                         _______ _______ _______ _____ _____    ______ ____
ROOT
ATOM      1  C   UNL     1       6.614   6.952  17.458  0.00  0.00    +0.000 A 
ATOM      2  C   UNL     1       7.400   5.847  17.758  0.00  0.00    +0.000 A 
ATOM      3  C   UNL     1       6.819   4.584  17.928  0.00  0.00    +0.000 A 
ATOM      4  C   UNL     1       5.442   4.413  17.740  0.00  0.00    +0.000 A 
ATOM      5  C   UNL     1       4.649   5.509  17.423  0.00  0.00    +0.000 A 
ATOM      6  C   UNL     1       5.234   6.789  17.344  0.00  0.00    +0.000 A 
ENDROOT
BRANCH   1   7
ATOM      7  O   UNL     1       7.282   8.130  17.242  0.00  0.00    +0.000 OA
BRANCH   7   8
ATOM      8  C   UNL     1       8.345   8.416  18.151  0.00  0.00    +0.000 C 
BRANCH   8   9
ATOM      9  C   UNL     1       8.642   9.915  18.136  0.00  0.00    +0.000 C 
BRANCH   9  10
ATOM     10  C   UNL     1       9.296  10.323  19.457  0.00  0.00    +0.000 C 
BRANCH  10  12
ATOM     11  C   UNL     1      10.789  11.973  20.358  0.00  0.00    +0.000 C 
ATOM     12  N   UNL     1      10.501  11.112  19.216  0.00  0.00    +0.000 NA
ATOM     13  H   UNL     1      11.292  10.489  19.057  0.00  0.00    +0.000 HD
ENDBRANCH  10  12
ENDBRANCH   9  10
ENDBRANCH   8   9
ENDBRANCH   7   8
ENDBRANCH   1   7
BRANCH   5  14
ATOM     14  O   UNL     1       3.291   5.290  17.214  0.00  0.00    +0.000 OA
BRANCH  14  15
ATOM     15  C   UNL     1       2.538   4.812  18.278  0.00  0.00    +0.000 A 
ATOM     16  C   UNL     1       1.830   3.624  18.197  0.00  0.00    +0.000 A 
ATOM     17  C   UNL     1       1.048   3.182  19.246  0.00  0.00    +0.000 A 
ATOM     18  C   UNL     1       1.032   3.901  20.440  0.00  0.00    +0.000 A 
ATOM     19  C   UNL     1       1.781   5.076  20.555  0.00  0.00    +0.000 A 
ATOM     20  C   UNL     1       2.527   5.546  19.478  0.00  0.00    +0.000 A 
ENDBRANCH  14  15
ENDBRANCH   5  14
TORSDOF 7
ENDMDL
MODEL 9
REMARK VINA RESULT:      -6.5      1.416      1.665
REMARK  Name = 
REMARK  8 active torsions:
REMARK  status: ('A' for Active; 'I' for Inactive)
REMARK    1  A    between atoms: C_1  and  N_2
REMARK    2  A    between atoms: N_2  and  C_3
REMARK    3  A    between atoms: C_3  and  C_4
REMARK    4  A    between atoms: C_4  and  C_5
REMARK    5  A    between atoms: C_5  and  O_6
REMARK    6  A    between atoms: O_6  and  C_7
REMARK    7  A    between atoms: C_11  and  O_12
REMARK    8  A    between atoms: O_12  and  C_13
REMARK                            x       y       z     vdW  Elec       q    Type
REMARK                         _______ _______ _______ _____ _____    ______ ____
ROOT
ATOM      1  C   UNL     1       5.548   5.313  15.708  0.00  0.00    +0.000 A 
ATOM      2  C   UNL     1       5.125   6.617  15.936  0.00  0.00    +0.000 A 
ATOM      3  C   UNL     1       4.445   6.950  17.113  0.00  0.00    +0.000 A 
ATOM      4  C   UNL     1       4.234   5.981  18.101  0.00  0.00    +0.000 A 
ATOM      5  C   UNL     1       4.668   4.677  17.892  0.00  0.00    +0.000 A 
ATOM      6  C   UNL     1       5.270   4.336  16.665  0.00  0.00    +0.000 A 
ENDROOT
BRANCH   1   7
ATOM      7  O   UNL     1       6.266   5.100  14.560  0.00  0.00    +0.000 OA
BRANCH   7   8
ATOM      8  C   UNL     1       6.381   3.739  14.145  0.00  0.00    +0.000 C 
BRANCH   8   9
ATOM      9  C   UNL     1       5.825   3.586  12.729  0.00  0.00    +0.000 C 
BRANCH   9  10
ATOM     10  C   UNL     1       6.978   3.425  11.738  0.00  0.00    +0.000 C 
BRANCH  10  12
ATOM     11  C   UNL     1       5.906   1.322  11.298  0.00  0.00    +0.000 C 
ATOM     12  N   UNL     1       7.184   2.017  11.408  0.00  0.00    +0.000 NA
ATOM     13  H   UNL     1       7.684   1.943  10.523  0.00  0.00    +0.000 HD
ENDBRANCH  10  12
ENDBRANCH   9  10
ENDBRANCH   8   9
ENDBRANCH   7   8
ENDBRANCH   1   7
BRANCH   5  14
ATOM     14  O   UNL     1       4.466   3.753  18.912  0.00  0.00    +0.000 OA
BRANCH  14  15
ATOM     15  C   UNL     1       3.159   3.466  19.281  0.00  0.00    +0.000 A 
ATOM     16  C   UNL     1       2.280   2.829  18.421  0.00  0.00    +0.000 A 
ATOM     17  C   UNL     1       0.969   2.589  18.782  0.00  0.00    +0.000 A 
ATOM     18  C   UNL     1       0.540   2.920  20.066  0.00  0.00    +0.000 A 
ATOM     19  C   UNL     1       1.429   3.519  20.964  0.00  0.00    +0.000 A 
ATOM     20  C   UNL     1       2.736   3.806  20.579  0.00  0.00    +0.000 A 
ENDBRANCH  14  15
ENDBRANCH   5  14
TORSDOF 7
ENDMDL
