MODEL 1
REMARK VINA RESULT:      -7.6      0.000      0.000
REMARK  Name = 
REMARK  8 active torsions:
REMARK  status: ('A' for Active; 'I' for Inactive)
REMARK    1  A    between atoms: C_2  and  C_3
REMARK    2  A    between atoms: C_3  and  C_4
REMARK    3  A    between atoms: C_4  and  C_5
REMARK    4  A    between atoms: C_5  and  N_6
REMARK    5  A    between atoms: C_7  and  S_8
REMARK    6  A    between atoms: S_8  and  C_9
REMARK    7  A    between atoms: C_14  and  C_15
REMARK    8  A    between atoms: C_15  and  O_16
REMARK                            x       y       z     vdW  Elec       q    Type
REMARK                         _______ _______ _______ _____ _____    ______ ____
ROOT
ATOM      1  N   UNL     1       5.348   5.297  17.128  0.00  0.00    +0.000 N 
ATOM      2  C   UNL     1       5.151   4.282  18.047  0.00  0.00    +0.000 A 
ATOM      3  N   UNL     1       5.997   4.368  19.055  0.00  0.00    +0.000 NA
ATOM      4  C   UNL     1       6.801   5.451  18.764  0.00  0.00    +0.000 A 
ATOM      5  C   UNL     1       7.937   5.993  19.391  0.00  0.00    +0.000 A 
ATOM      6  N   UNL     1       8.542   5.426  20.502  0.00  0.00    +0.000 N 
ATOM      7  N   UNL     1       8.481   7.122  18.880  0.00  0.00    +0.000 NA
ATOM      8  C   UNL     1       7.940   7.646  17.762  0.00  0.00    +0.000 A 
ATOM      9  N   UNL     1       6.900   7.181  17.045  0.00  0.00    +0.000 NA
ATOM     10  C   UNL     1       6.376   6.077  17.608  0.00  0.00    +0.000 A 
ATOM     11  H   UNL     1       7.961   4.778  21.019  0.00  0.00    +0.000 HD
ATOM     12  H   UNL     1       9.101   6.089  21.023  0.00  0.00    +0.000 HD
ENDROOT
BRANCH   1  13
ATOM     13  C   UNL     1       4.760   5.498  15.815  0.00  0.00    +0.000 C 
BRANCH  13  14
ATOM     14  C   UNL     1       5.740   5.346  14.663  0.00  0.00    +0.000 C 
BRANCH  14  15
ATOM     15  C   UNL     1       6.151   3.890  14.468  0.00  0.00    +0.000 C 
BRANCH  15  17
ATOM     16  C   UNL     1       5.714   3.153  11.939  0.00  0.00    +0.000 C 
ATOM     17  C   UNL     1       5.923   3.475  13.081  0.00  0.00    +0.000 C 
ENDBRANCH  15  17
ENDBRANCH  14  15
ENDBRANCH  13  14
ENDBRANCH   1  13
BRANCH   2  18
ATOM     18  S   UNL     1       4.187   2.870  17.735  0.00  0.00    +0.000 S 
BRANCH  18  19
ATOM     19  C   UNL     1       2.862   2.905  18.955  0.00  0.00    +0.000 A 
ATOM     20  C   UNL     1       3.144   2.195  20.142  0.00  0.00    +0.000 A 
ATOM     21  C   UNL     1       2.327   2.285  21.275  0.00  0.00    +0.000 A 
ATOM     22  C   UNL     1       1.194   3.087  21.253  0.00  0.00    +0.000 A 
ATOM     23  C   UNL     1       0.884   3.788  20.090  0.00  0.00    +0.000 A 
ATOM     24  C   UNL     1       1.714   3.728  18.939  0.00  0.00    +0.000 A 
BRANCH  24  25
ATOM     25  C   UNL     1       1.295   4.590  17.779  0.00  0.00    +0.000 C 
BRANCH  25  26
ATOM     26  O   UNL     1       1.950   5.849  17.867  0.00  0.00    +0.000 OA
ATOM     27  H   UNL     1       2.446   5.819  18.706  0.00  0.00    +0.000 HD
ENDBRANCH  25  26
ENDBRANCH  24  25
ENDBRANCH  18  19
ENDBRANCH   2  18
TORSDOF 8
ENDMDL
MODEL 2
REMARK VINA RESULT:      -7.4      3.157      5.370
REMARK  Name = 
REMARK  8 active torsions:
REMARK  status: ('A' for Active; 'I' for Inactive)
REMARK    1  A    between atoms: C_2  and  C_3
REMARK    2  A    between atoms: C_3  and  C_4
REMARK    3  A    between atoms: C_4  and  C_5
REMARK    4  A    between atoms: C_5  and  N_6
REMARK    5  A    between atoms: C_7  and  S_8
REMARK    6  A    between atoms: S_8  and  C_9
REMARK    7  A    between atoms: C_14  and  C_15
REMARK    8  A    between atoms: C_15  and  O_16
REMARK                            x       y       z     vdW  Elec       q    Type
REMARK                         _______ _______ _______ _____ _____    ______ ____
ROOT
ATOM      1  N   UNL     1       3.706   4.763  17.312  0.00  0.00    +0.000 N 
ATOM      2  C   UNL     1       3.705   5.888  18.118  0.00  0.00    +0.000 A 
ATOM      3  N   UNL     1       4.801   6.605  17.952  0.00  0.00    +0.000 NA
ATOM      4  C   UNL     1       5.560   5.903  17.040  0.00  0.00    +0.000 A 
ATOM      5  C   UNL     1       6.857   6.092  16.530  0.00  0.00    +0.000 A 
ATOM      6  N   UNL     1       7.708   7.101  16.957  0.00  0.00    +0.000 N 
ATOM      7  N   UNL     1       7.311   5.240  15.582  0.00  0.00    +0.000 NA
ATOM      8  C   UNL     1       6.517   4.217  15.206  0.00  0.00    +0.000 A 
ATOM      9  N   UNL     1       5.292   3.901  15.668  0.00  0.00    +0.000 NA
ATOM     10  C   UNL     1       4.875   4.793  16.585  0.00  0.00    +0.000 A 
ATOM     11  H   UNL     1       7.252   7.871  17.430  0.00  0.00    +0.000 HD
ATOM     12  H   UNL     1       8.430   7.314  16.281  0.00  0.00    +0.000 HD
ENDROOT
BRANCH   1  13
ATOM     13  C   UNL     1       2.793   3.633  17.282  0.00  0.00    +0.000 C 
BRANCH  13  14
ATOM     14  C   UNL     1       3.052   2.593  18.359  0.00  0.00    +0.000 C 
BRANCH  14  15
ATOM     15  C   UNL     1       1.751   2.103  18.986  0.00  0.00    +0.000 C 
BRANCH  15  17
ATOM     16  C   UNL     1       1.594   2.821  21.553  0.00  0.00    +0.000 C 
ATOM     17  C   UNL     1       1.675   2.510  20.393  0.00  0.00    +0.000 C 
ENDBRANCH  15  17
ENDBRANCH  14  15
ENDBRANCH  13  14
ENDBRANCH   1  13
BRANCH   2  18
ATOM     18  S   UNL     1       2.605   6.128  19.441  0.00  0.00    +0.000 S 
BRANCH  18  19
ATOM     19  C   UNL     1       2.065   7.843  19.320  0.00  0.00    +0.000 A 
ATOM     20  C   UNL     1       2.295   8.438  18.060  0.00  0.00    +0.000 A 
ATOM     21  C   UNL     1       1.757   9.685  17.718  0.00  0.00    +0.000 A 
ATOM     22  C   UNL     1       0.976  10.379  18.631  0.00  0.00    +0.000 A 
ATOM     23  C   UNL     1       0.746   9.822  19.887  0.00  0.00    +0.000 A 
ATOM     24  C   UNL     1       1.262   8.548  20.244  0.00  0.00    +0.000 A 
BRANCH  24  25
ATOM     25  C   UNL     1       0.877   8.038  21.606  0.00  0.00    +0.000 C 
BRANCH  25  26
ATOM     26  O   UNL     1      -0.538   8.075  21.740  0.00  0.00    +0.000 OA
ATOM     27  H   UNL     1      -0.870   8.332  20.860  0.00  0.00    +0.000 HD
ENDBRANCH  25  26
ENDBRANCH  24  25
ENDBRANCH  18  19
ENDBRANCH   2  18
TORSDOF 8
ENDMDL
MODEL 3
REMARK VINA RESULT:      -7.3      3.729      6.481
REMARK  Name = 
REMARK  8 active torsions:
REMARK  status: ('A' for Active; 'I' for Inactive)
REMARK    1  A    between atoms: C_2  and  C_3
REMARK    2  A    between atoms: C_3  and  C_4
REMARK    3  A    between atoms: C_4  and  C_5
REMARK    4  A    between atoms: C_5  and  N_6
REMARK    5  A    between atoms: C_7  and  S_8
REMARK    6  A    between atoms: S_8  and  C_9
REMARK    7  A    between atoms: C_14  and  C_15
REMARK    8  A    between atoms: C_15  and  O_16
REMARK                            x       y       z     vdW  Elec       q    Type
REMARK                         _______ _______ _______ _____ _____    ______ ____
ROOT
ATOM      1  N   UNL     1       2.288   6.493  19.898  0.00  0.00    +0.000 N 
ATOM      2  C   UNL     1       2.767   6.535  18.600  0.00  0.00    +0.000 A 
ATOM      3  N   UNL     1       2.529   7.702  18.033  0.00  0.00    +0.000 NA
ATOM      4  C   UNL     1       1.834   8.431  18.976  0.00  0.00    +0.000 A 
ATOM      5  C   UNL     1       1.222   9.697  18.945  0.00  0.00    +0.000 A 
ATOM      6  N   UNL     1       1.156  10.487  17.807  0.00  0.00    +0.000 N 
ATOM      7  N   UNL     1       0.652  10.169  20.077  0.00  0.00    +0.000 NA
ATOM      8  C   UNL     1       0.653   9.381  21.172  0.00  0.00    +0.000 A 
ATOM      9  N   UNL     1       1.149   8.136  21.300  0.00  0.00    +0.000 NA
ATOM     10  C   UNL     1       1.729   7.724  20.158  0.00  0.00    +0.000 A 
ATOM     11  H   UNL     1       1.824  10.249  17.084  0.00  0.00    +0.000 HD
ATOM     12  H   UNL     1       1.009  11.465  18.020  0.00  0.00    +0.000 HD
ENDROOT
BRANCH   1  13
ATOM     13  C   UNL     1       2.193   5.378  20.824  0.00  0.00    +0.000 C 
BRANCH  13  14
ATOM     14  C   UNL     1       1.131   4.353  20.460  0.00  0.00    +0.000 C 
BRANCH  14  15
ATOM     15  C   UNL     1       1.516   2.956  20.936  0.00  0.00    +0.000 C 
BRANCH  15  17
ATOM     16  C   UNL     1       4.015   2.389  20.185  0.00  0.00    +0.000 C 
ATOM     17  C   UNL     1       2.883   2.630  20.518  0.00  0.00    +0.000 C 
ENDBRANCH  15  17
ENDBRANCH  14  15
ENDBRANCH  13  14
ENDBRANCH   1  13
BRANCH   2  18
ATOM     18  S   UNL     1       3.267   5.130  17.709  0.00  0.00    +0.000 S 
BRANCH  18  19
ATOM     19  C   UNL     1       5.069   5.158  17.728  0.00  0.00    +0.000 A 
ATOM     20  C   UNL     1       5.632   5.550  18.962  0.00  0.00    +0.000 A 
ATOM     21  C   UNL     1       7.001   5.430  19.225  0.00  0.00    +0.000 A 
ATOM     22  C   UNL     1       7.853   4.917  18.257  0.00  0.00    +0.000 A 
ATOM     23  C   UNL     1       7.326   4.535  17.026  0.00  0.00    +0.000 A 
ATOM     24  C   UNL     1       5.936   4.627  16.748  0.00  0.00    +0.000 A 
BRANCH  24  25
ATOM     25  C   UNL     1       5.497   4.115  15.403  0.00  0.00    +0.000 C 
BRANCH  25  26
ATOM     26  O   UNL     1       6.614   4.084  14.524  0.00  0.00    +0.000 OA
ATOM     27  H   UNL     1       6.569   3.216  14.084  0.00  0.00    +0.000 HD
ENDBRANCH  25  26
ENDBRANCH  24  25
ENDBRANCH  18  19
ENDBRANCH   2  18
TORSDOF 8
ENDMDL
MODEL 4
REMARK VINA RESULT:      -7.3      3.415      5.567
REMARK  Name = 
REMARK  8 active torsions:
REMARK  status: ('A' for Active; 'I' for Inactive)
REMARK    1  A    between atoms: C_2  and  C_3
REMARK    2  A    between atoms: C_3  and  C_4
REMARK    3  A    between atoms: C_4  and  C_5
REMARK    4  A    between atoms: C_5  and  N_6
REMARK    5  A    between atoms: C_7  and  S_8
REMARK    6  A    between atoms: S_8  and  C_9
REMARK    7  A    between atoms: C_14  and  C_15
REMARK    8  A    between atoms: C_15  and  O_16
REMARK                            x       y       z     vdW  Elec       q    Type
REMARK                         _______ _______ _______ _____ _____    ______ ____
ROOT
ATOM      1  N   UNL     1       3.155   5.010  17.908  0.00  0.00    +0.000 N 
ATOM      2  C   UNL     1       3.429   5.935  18.900  0.00  0.00    +0.000 A 
ATOM      3  N   UNL     1       4.719   6.203  18.969  0.00  0.00    +0.000 NA
ATOM      4  C   UNL     1       5.311   5.395  18.020  0.00  0.00    +0.000 A 
ATOM      5  C   UNL     1       6.652   5.149  17.677  0.00  0.00    +0.000 A 
ATOM      6  N   UNL     1       7.729   5.698  18.356  0.00  0.00    +0.000 N 
ATOM      7  N   UNL     1       6.914   4.324  16.637  0.00  0.00    +0.000 NA
ATOM      8  C   UNL     1       5.875   3.733  16.011  0.00  0.00    +0.000 A 
ATOM      9  N   UNL     1       4.563   3.843  16.291  0.00  0.00    +0.000 NA
ATOM     10  C   UNL     1       4.354   4.695  17.310  0.00  0.00    +0.000 A 
ATOM     11  H   UNL     1       7.509   6.513  18.916  0.00  0.00    +0.000 HD
ATOM     12  H   UNL     1       8.574   5.713  17.801  0.00  0.00    +0.000 HD
ENDROOT
BRANCH   1  13
ATOM     13  C   UNL     1       1.916   4.321  17.589  0.00  0.00    +0.000 C 
BRANCH  13  14
ATOM     14  C   UNL     1       1.810   2.924  18.179  0.00  0.00    +0.000 C 
BRANCH  14  15
ATOM     15  C   UNL     1       0.729   2.852  19.253  0.00  0.00    +0.000 C 
BRANCH  15  17
ATOM     16  C   UNL     1       1.828   2.780  21.684  0.00  0.00    +0.000 C 
ATOM     17  C   UNL     1       1.334   2.796  20.587  0.00  0.00    +0.000 C 
ENDBRANCH  15  17
ENDBRANCH  14  15
ENDBRANCH  13  14
ENDBRANCH   1  13
BRANCH   2  18
ATOM     18  S   UNL     1       2.297   6.393  20.135  0.00  0.00    +0.000 S 
BRANCH  18  19
ATOM     19  C   UNL     1       1.797   8.078  19.738  0.00  0.00    +0.000 A 
ATOM     20  C   UNL     1       1.890   8.404  18.367  0.00  0.00    +0.000 A 
ATOM     21  C   UNL     1       1.351   9.588  17.847  0.00  0.00    +0.000 A 
ATOM     22  C   UNL     1       0.708  10.486  18.687  0.00  0.00    +0.000 A 
ATOM     23  C   UNL     1       0.615  10.195  20.046  0.00  0.00    +0.000 A 
ATOM     24  C   UNL     1       1.133   8.989  20.588  0.00  0.00    +0.000 A 
BRANCH  24  25
ATOM     25  C   UNL     1       0.901   8.775  22.059  0.00  0.00    +0.000 C 
BRANCH  25  26
ATOM     26  O   UNL     1       2.034   9.233  22.785  0.00  0.00    +0.000 OA
ATOM     27  H   UNL     1       2.776   8.681  22.475  0.00  0.00    +0.000 HD
ENDBRANCH  25  26
ENDBRANCH  24  25
ENDBRANCH  18  19
ENDBRANCH   2  18
TORSDOF 8
ENDMDL
MODEL 5
REMARK VINA RESULT:      -7.1      1.410      1.974
REMARK  Name = 
REMARK  8 active torsions:
REMARK  status: ('A' for Active; 'I' for Inactive)
REMARK    1  A    between atoms: C_2  and  C_3
REMARK    2  A    between atoms: C_3  and  C_4
REMARK    3  A    between atoms: C_4  and  C_5
REMARK    4  A    between atoms: C_5  and  N_6
REMARK    5  A    between atoms: C_7  and  S_8
REMARK    6  A    between atoms: S_8  and  C_9
REMARK    7  A    between atoms: C_14  and  C_15
REMARK    8  A    between atoms: C_15  and  O_16
REMARK                            x       y       z     vdW  Elec       q    Type
REMARK                         _______ _______ _______ _____ _____    ______ ____
ROOT
ATOM      1  N   UNL     1       5.664   5.557  16.546  0.00  0.00    +0.000 N 
ATOM      2  C   UNL     1       5.291   4.519  17.381  0.00  0.00    +0.000 A 
ATOM      3  N   UNL     1       5.954   4.551  18.521  0.00  0.00    +0.000 NA
ATOM      4  C   UNL     1       6.818   5.621  18.410  0.00  0.00    +0.000 A 
ATOM      5  C   UNL     1       7.842   6.113  19.240  0.00  0.00    +0.000 A 
ATOM      6  N   UNL     1       8.235   5.496  20.417  0.00  0.00    +0.000 N 
ATOM      7  N   UNL     1       8.489   7.242  18.869  0.00  0.00    +0.000 NA
ATOM      8  C   UNL     1       8.158   7.815  17.694  0.00  0.00    +0.000 A 
ATOM      9  N   UNL     1       7.247   7.400  16.794  0.00  0.00    +0.000 NA
ATOM     10  C   UNL     1       6.612   6.294  17.221  0.00  0.00    +0.000 A 
ATOM     11  H   UNL     1       7.561   4.847  20.805  0.00  0.00    +0.000 HD
ATOM     12  H   UNL     1       8.711   6.127  21.049  0.00  0.00    +0.000 HD
ENDROOT
BRANCH   1  13
ATOM     13  C   UNL     1       5.315   5.814  15.159  0.00  0.00    +0.000 C 
BRANCH  13  14
ATOM     14  C   UNL     1       6.340   5.315  14.155  0.00  0.00    +0.000 C 
BRANCH  14  15
ATOM     15  C   UNL     1       6.204   3.814  13.917  0.00  0.00    +0.000 C 
BRANCH  15  17
ATOM     16  C   UNL     1       4.729   3.370  11.736  0.00  0.00    +0.000 C 
ATOM     17  C   UNL     1       5.391   3.555  12.724  0.00  0.00    +0.000 C 
ENDBRANCH  15  17
ENDBRANCH  14  15
ENDBRANCH  13  14
ENDBRANCH   1  13
BRANCH   2  18
ATOM     18  S   UNL     1       4.366   3.144  16.860  0.00  0.00    +0.000 S 
BRANCH  18  19
ATOM     19  C   UNL     1       3.041   2.963  18.068  0.00  0.00    +0.000 A 
ATOM     20  C   UNL     1       1.834   3.600  17.708  0.00  0.00    +0.000 A 
ATOM     21  C   UNL     1       0.644   3.393  18.417  0.00  0.00    +0.000 A 
ATOM     22  C   UNL     1       0.628   2.544  19.514  0.00  0.00    +0.000 A 
ATOM     23  C   UNL     1       1.809   1.914  19.900  0.00  0.00    +0.000 A 
ATOM     24  C   UNL     1       3.019   2.091  19.179  0.00  0.00    +0.000 A 
BRANCH  24  25
ATOM     25  C   UNL     1       4.200   1.296  19.666  0.00  0.00    +0.000 C 
BRANCH  25  26
ATOM     26  O   UNL     1       5.196   2.184  20.155  0.00  0.00    +0.000 OA
ATOM     27  H   UNL     1       4.704   2.899  20.600  0.00  0.00    +0.000 HD
ENDBRANCH  25  26
ENDBRANCH  24  25
ENDBRANCH  18  19
ENDBRANCH   2  18
TORSDOF 8
ENDMDL
MODEL 6
REMARK VINA RESULT:      -7.1      3.531      6.528
REMARK  Name = 
REMARK  8 active torsions:
REMARK  status: ('A' for Active; 'I' for Inactive)
REMARK    1  A    between atoms: C_2  and  C_3
REMARK    2  A    between atoms: C_3  and  C_4
REMARK    3  A    between atoms: C_4  and  C_5
REMARK    4  A    between atoms: C_5  and  N_6
REMARK    5  A    between atoms: C_7  and  S_8
REMARK    6  A    between atoms: S_8  and  C_9
REMARK    7  A    between atoms: C_14  and  C_15
REMARK    8  A    between atoms: C_15  and  O_16
REMARK                            x       y       z     vdW  Elec       q    Type
REMARK                         _______ _______ _______ _____ _____    ______ ____
ROOT
ATOM      1  N   UNL     1       2.298   6.227  19.828  0.00  0.00    +0.000 N 
ATOM      2  C   UNL     1       2.726   6.166  18.514  0.00  0.00    +0.000 A 
ATOM      3  N   UNL     1       2.575   7.325  17.900  0.00  0.00    +0.000 NA
ATOM      4  C   UNL     1       1.990   8.156  18.832  0.00  0.00    +0.000 A 
ATOM      5  C   UNL     1       1.496   9.472  18.763  0.00  0.00    +0.000 A 
ATOM      6  N   UNL     1       1.459  10.214  17.592  0.00  0.00    +0.000 N 
ATOM      7  N   UNL     1       1.019  10.045  19.891  0.00  0.00    +0.000 NA
ATOM      8  C   UNL     1       0.991   9.309  21.022  0.00  0.00    +0.000 A 
ATOM      9  N   UNL     1       1.373   8.030  21.191  0.00  0.00    +0.000 NA
ATOM     10  C   UNL     1       1.866   7.516  20.050  0.00  0.00    +0.000 A 
ATOM     11  H   UNL     1       2.072   9.882  16.857  0.00  0.00    +0.000 HD
ATOM     12  H   UNL     1       1.412  11.210  17.763  0.00  0.00    +0.000 HD
ENDROOT
BRANCH   1  13
ATOM     13  C   UNL     1       2.137   5.168  20.809  0.00  0.00    +0.000 C 
BRANCH  13  14
ATOM     14  C   UNL     1       0.970   4.234  20.533  0.00  0.00    +0.000 C 
BRANCH  14  15
ATOM     15  C   UNL     1       1.318   2.789  20.875  0.00  0.00    +0.000 C 
BRANCH  15  17
ATOM     16  C   UNL     1       3.924   2.324  20.534  0.00  0.00    +0.000 C 
ATOM     17  C   UNL     1       2.752   2.549  20.691  0.00  0.00    +0.000 C 
ENDBRANCH  15  17
ENDBRANCH  14  15
ENDBRANCH  13  14
ENDBRANCH   1  13
BRANCH   2  18
ATOM     18  S   UNL     1       3.058   4.683  17.673  0.00  0.00    +0.000 S 
BRANCH  18  19
ATOM     19  C   UNL     1       4.773   4.802  17.132  0.00  0.00    +0.000 A 
ATOM     20  C   UNL     1       4.946   4.751  15.732  0.00  0.00    +0.000 A 
ATOM     21  C   UNL     1       6.175   5.036  15.125  0.00  0.00    +0.000 A 
ATOM     22  C   UNL     1       7.273   5.377  15.903  0.00  0.00    +0.000 A 
ATOM     23  C   UNL     1       7.132   5.421  17.289  0.00  0.00    +0.000 A 
ATOM     24  C   UNL     1       5.889   5.159  17.921  0.00  0.00    +0.000 A 
BRANCH  24  25
ATOM     25  C   UNL     1       5.865   5.310  19.418  0.00  0.00    +0.000 C 
BRANCH  25  26
ATOM     26  O   UNL     1       7.198   5.292  19.913  0.00  0.00    +0.000 OA
ATOM     27  H   UNL     1       7.663   5.991  19.417  0.00  0.00    +0.000 HD
ENDBRANCH  25  26
ENDBRANCH  24  25
ENDBRANCH  18  19
ENDBRANCH   2  18
TORSDOF 8
ENDMDL
MODEL 7
REMARK VINA RESULT:      -7.1      3.949      6.722
REMARK  Name = 
REMARK  8 active torsions:
REMARK  status: ('A' for Active; 'I' for Inactive)
REMARK    1  A    between atoms: C_2  and  C_3
REMARK    2  A    between atoms: C_3  and  C_4
REMARK    3  A    between atoms: C_4  and  C_5
REMARK    4  A    between atoms: C_5  and  N_6
REMARK    5  A    between atoms: C_7  and  S_8
REMARK    6  A    between atoms: S_8  and  C_9
REMARK    7  A    between atoms: C_14  and  C_15
REMARK    8  A    between atoms: C_15  and  O_16
REMARK                            x       y       z     vdW  Elec       q    Type
REMARK                         _______ _______ _______ _____ _____    ______ ____
ROOT
ATOM      1  N   UNL     1       2.227   7.013  19.851  0.00  0.00    +0.000 N 
ATOM      2  C   UNL     1       2.673   7.227  18.559  0.00  0.00    +0.000 A 
ATOM      3  N   UNL     1       2.303   8.410  18.107  0.00  0.00    +0.000 NA
ATOM      4  C   UNL     1       1.554   8.969  19.123  0.00  0.00    +0.000 A 
ATOM      5  C   UNL     1       0.811  10.160  19.218  0.00  0.00    +0.000 A 
ATOM      6  N   UNL     1       0.641  11.042  18.161  0.00  0.00    +0.000 N 
ATOM      7  N   UNL     1       0.218  10.460  20.396  0.00  0.00    +0.000 NA
ATOM      8  C   UNL     1       0.323   9.578  21.411  0.00  0.00    +0.000 A 
ATOM      9  N   UNL     1       0.950   8.386  21.415  0.00  0.00    +0.000 NA
ATOM     10  C   UNL     1       1.547   8.147  20.233  0.00  0.00    +0.000 A 
ATOM     11  H   UNL     1       1.315  10.945  17.412  0.00  0.00    +0.000 HD
ATOM     12  H   UNL     1       0.396  11.974  18.468  0.00  0.00    +0.000 HD
ENDROOT
BRANCH   1  13
ATOM     13  C   UNL     1       2.267   5.812  20.668  0.00  0.00    +0.000 C 
BRANCH  13  14
ATOM     14  C   UNL     1       1.061   4.903  20.502  0.00  0.00    +0.000 C 
BRANCH  14  15
ATOM     15  C   UNL     1       1.400   3.455  20.841  0.00  0.00    +0.000 C 
BRANCH  15  17
ATOM     16  C   UNL     1       1.534   2.005  18.604  0.00  0.00    +0.000 C 
ATOM     17  C   UNL     1       1.484   2.648  19.620  0.00  0.00    +0.000 C 
ENDBRANCH  15  17
ENDBRANCH  14  15
ENDBRANCH  13  14
ENDBRANCH   1  13
BRANCH   2  18
ATOM     18  S   UNL     1       3.300   5.973  17.533  0.00  0.00    +0.000 S 
BRANCH  18  19
ATOM     19  C   UNL     1       5.078   5.946  17.828  0.00  0.00    +0.000 A 
ATOM     20  C   UNL     1       5.786   7.002  17.215  0.00  0.00    +0.000 A 
ATOM     21  C   UNL     1       7.131   7.261  17.504  0.00  0.00    +0.000 A 
ATOM     22  C   UNL     1       7.813   6.463  18.412  0.00  0.00    +0.000 A 
ATOM     23  C   UNL     1       7.142   5.405  19.020  0.00  0.00    +0.000 A 
ATOM     24  C   UNL     1       5.771   5.142  18.760  0.00  0.00    +0.000 A 
BRANCH  24  25
ATOM     25  C   UNL     1       5.157   4.010  19.539  0.00  0.00    +0.000 C 
BRANCH  25  26
ATOM     26  O   UNL     1       4.934   2.908  18.669  0.00  0.00    +0.000 OA
ATOM     27  H   UNL     1       5.808   2.495  18.552  0.00  0.00    +0.000 HD
ENDBRANCH  25  26
ENDBRANCH  24  25
ENDBRANCH  18  19
ENDBRANCH   2  18
TORSDOF 8
ENDMDL
MODEL 8
REMARK VINA RESULT:      -6.9      2.430      4.153
REMARK  Name = 
REMARK  8 active torsions:
REMARK  status: ('A' for Active; 'I' for Inactive)
REMARK    1  A    between atoms: C_2  and  C_3
REMARK    2  A    between atoms: C_3  and  C_4
REMARK    3  A    between atoms: C_4  and  C_5
REMARK    4  A    between atoms: C_5  and  N_6
REMARK    5  A    between atoms: C_7  and  S_8
REMARK    6  A    between atoms: S_8  and  C_9
REMARK    7  A    between atoms: C_14  and  C_15
REMARK    8  A    between atoms: C_15  and  O_16
REMARK                            x       y       z     vdW  Elec       q    Type
REMARK                         _______ _______ _______ _____ _____    ______ ____
ROOT
ATOM      1  N   UNL     1       4.614   5.261  18.104  0.00  0.00    +0.000 N 
ATOM      2  C   UNL     1       4.343   4.145  17.333  0.00  0.00    +0.000 A 
ATOM      3  N   UNL     1       5.223   4.003  16.359  0.00  0.00    +0.000 NA
ATOM      4  C   UNL     1       6.069   5.086  16.473  0.00  0.00    +0.000 A 
ATOM      5  C   UNL     1       7.137   5.551  15.685  0.00  0.00    +0.000 A 
ATOM      6  N   UNL     1       7.521   4.960  14.490  0.00  0.00    +0.000 N 
ATOM      7  N   UNL     1       7.823   6.640  16.101  0.00  0.00    +0.000 NA
ATOM      8  C   UNL     1       7.418   7.262  17.227  0.00  0.00    +0.000 A 
ATOM      9  N   UNL     1       6.378   6.947  18.022  0.00  0.00    +0.000 NA
ATOM     10  C   UNL     1       5.748   5.843  17.583  0.00  0.00    +0.000 A 
ATOM     11  H   UNL     1       7.196   4.010  14.362  0.00  0.00    +0.000 HD
ATOM     12  H   UNL     1       8.476   5.178  14.236  0.00  0.00    +0.000 HD
ENDROOT
BRANCH   1  13
ATOM     13  C   UNL     1       3.834   5.877  19.164  0.00  0.00    +0.000 C 
BRANCH  13  14
ATOM     14  C   UNL     1       2.594   6.611  18.680  0.00  0.00    +0.000 C 
BRANCH  14  15
ATOM     15  C   UNL     1       2.959   7.858  17.881  0.00  0.00    +0.000 C 
BRANCH  15  17
ATOM     16  C   UNL     1       0.954   9.618  17.981  0.00  0.00    +0.000 C 
ATOM     17  C   UNL     1       1.865   8.833  17.924  0.00  0.00    +0.000 C 
ENDBRANCH  15  17
ENDBRANCH  14  15
ENDBRANCH  13  14
ENDBRANCH   1  13
BRANCH   2  18
ATOM     18  S   UNL     1       2.845   3.267  17.394  0.00  0.00    +0.000 S 
BRANCH  18  19
ATOM     19  C   UNL     1       2.447   3.105  19.143  0.00  0.00    +0.000 A 
ATOM     20  C   UNL     1       1.102   3.393  19.463  0.00  0.00    +0.000 A 
ATOM     21  C   UNL     1       0.564   3.120  20.727  0.00  0.00    +0.000 A 
ATOM     22  C   UNL     1       1.359   2.556  21.714  0.00  0.00    +0.000 A 
ATOM     23  C   UNL     1       2.694   2.275  21.429  0.00  0.00    +0.000 A 
ATOM     24  C   UNL     1       3.251   2.521  20.147  0.00  0.00    +0.000 A 
BRANCH  24  25
ATOM     25  C   UNL     1       4.685   2.106  19.960  0.00  0.00    +0.000 C 
BRANCH  25  26
ATOM     26  O   UNL     1       5.205   1.641  21.199  0.00  0.00    +0.000 OA
ATOM     27  H   UNL     1       4.495   1.797  21.848  0.00  0.00    +0.000 HD
ENDBRANCH  25  26
ENDBRANCH  24  25
ENDBRANCH  18  19
ENDBRANCH   2  18
TORSDOF 8
ENDMDL
MODEL 9
REMARK VINA RESULT:      -6.8      3.791      6.842
REMARK  Name = 
REMARK  8 active torsions:
REMARK  status: ('A' for Active; 'I' for Inactive)
REMARK    1  A    between atoms: C_2  and  C_3
REMARK    2  A    between atoms: C_3  and  C_4
REMARK    3  A    between atoms: C_4  and  C_5
REMARK    4  A    between atoms: C_5  and  N_6
REMARK    5  A    between atoms: C_7  and  S_8
REMARK    6  A    between atoms: S_8  and  C_9
REMARK    7  A    between atoms: C_14  and  C_15
REMARK    8  A    between atoms: C_15  and  O_16
REMARK                            x       y       z     vdW  Elec       q    Type
REMARK                         _______ _______ _______ _____ _____    ______ ____
ROOT
ATOM      1  N   UNL     1       2.690   7.086  19.096  0.00  0.00    +0.000 N 
ATOM      2  C   UNL     1       3.165   7.610  17.906  0.00  0.00    +0.000 A 
ATOM      3  N   UNL     1       2.672   8.811  17.673  0.00  0.00    +0.000 NA
ATOM      4  C   UNL     1       1.814   9.062  18.724  0.00  0.00    +0.000 A 
ATOM      5  C   UNL     1       0.925  10.116  19.001  0.00  0.00    +0.000 A 
ATOM      6  N   UNL     1       0.695  11.172  18.131  0.00  0.00    +0.000 N 
ATOM      7  N   UNL     1       0.245  10.100  20.171  0.00  0.00    +0.000 NA
ATOM      8  C   UNL     1       0.413   9.046  20.995  0.00  0.00    +0.000 A 
ATOM      9  N   UNL     1       1.182   7.957  20.807  0.00  0.00    +0.000 NA
ATOM     10  C   UNL     1       1.858   8.035  19.647  0.00  0.00    +0.000 A 
ATOM     11  H   UNL     1       1.410  11.307  17.426  0.00  0.00    +0.000 HD
ATOM     12  H   UNL     1       0.322  11.988  18.598  0.00  0.00    +0.000 HD
ENDROOT
BRANCH   1  13
ATOM     13  C   UNL     1       2.843   5.756  19.659  0.00  0.00    +0.000 C 
BRANCH  13  14
ATOM     14  C   UNL     1       1.890   4.722  19.083  0.00  0.00    +0.000 C 
BRANCH  14  15
ATOM     15  C   UNL     1       0.939   4.183  20.148  0.00  0.00    +0.000 C 
BRANCH  15  17
ATOM     16  C   UNL     1       2.266   2.589  21.829  0.00  0.00    +0.000 C 
ATOM     17  C   UNL     1       1.656   3.311  21.082  0.00  0.00    +0.000 C 
ENDBRANCH  15  17
ENDBRANCH  14  15
ENDBRANCH  13  14
ENDBRANCH   1  13
BRANCH   2  18
ATOM     18  S   UNL     1       3.990   6.672  16.699  0.00  0.00    +0.000 S 
BRANCH  18  19
ATOM     19  C   UNL     1       5.654   6.409  17.339  0.00  0.00    +0.000 A 
ATOM     20  C   UNL     1       6.463   7.566  17.350  0.00  0.00    +0.000 A 
ATOM     21  C   UNL     1       7.702   7.600  18.001  0.00  0.00    +0.000 A 
ATOM     22  C   UNL     1       8.175   6.472  18.656  0.00  0.00    +0.000 A 
ATOM     23  C   UNL     1       7.403   5.312  18.648  0.00  0.00    +0.000 A 
ATOM     24  C   UNL     1       6.133   5.265  18.015  0.00  0.00    +0.000 A 
BRANCH  24  25
ATOM     25  C   UNL     1       5.379   3.969  18.144  0.00  0.00    +0.000 C 
BRANCH  25  26
ATOM     26  O   UNL     1       5.554   3.452  19.457  0.00  0.00    +0.000 OA
ATOM     27  H   UNL     1       5.677   2.493  19.339  0.00  0.00    +0.000 HD
ENDBRANCH  25  26
ENDBRANCH  24  25
ENDBRANCH  18  19
ENDBRANCH   2  18
TORSDOF 8
ENDMDL
