MODEL 1
REMARK VINA RESULT:      -6.7      0.000      0.000
REMARK  Name = 
REMARK  12 active torsions:
REMARK  status: ('A' for Active; 'I' for Inactive)
REMARK    1  A    between atoms: C_1  and  O_2
REMARK    2  A    between atoms: O_2  and  C_3
REMARK    3  A    between atoms: C_5  and  N_6
REMARK    4  A    between atoms: N_6  and  C_7
REMARK    5  A    between atoms: C_7  and  C_8
REMARK    6  A    between atoms: C_7  and  C_9
REMARK    7  A    between atoms: C_9  and  C_10
REMARK    8  A    between atoms: C_10  and  C_11
REMARK    9  A    between atoms: C_11  and  N_12
REMARK   10  A    between atoms: C_15  and  C_16
REMARK   11  A    between atoms: C_21  and  C_22
REMARK   12  A    between atoms: C_24  and  C_25
REMARK                            x       y       z     vdW  Elec       q    Type
REMARK                         _______ _______ _______ _____ _____    ______ ____
ROOT
ATOM      1  C   UNL     1       0.359   8.348  21.287  0.00  0.00    +0.000 A 
ATOM      2  C   UNL     1       0.900   7.094  21.526  0.00  0.00    +0.000 A 
ATOM      3  C   UNL     1       1.898   6.574  20.718  0.00  0.00    +0.000 A 
ATOM      4  C   UNL     1       2.286   7.255  19.552  0.00  0.00    +0.000 A 
ATOM      5  N   UNL     1       3.201   6.598  18.800  0.00  0.00    +0.000 NA
ATOM      6  C   UNL     1       3.660   7.138  17.650  0.00  0.00    +0.000 A 
ATOM      7  C   UNL     1       3.268   8.403  17.264  0.00  0.00    +0.000 A 
ATOM      8  C   UNL     1       2.376   9.143  18.065  0.00  0.00    +0.000 A 
ATOM      9  C   UNL     1       2.195  10.559  17.579  0.00  0.00    +0.000 C 
ATOM     10  C   UNL     1       1.758   8.549  19.237  0.00  0.00    +0.000 A 
ATOM     11  C   UNL     1       0.718   9.093  20.129  0.00  0.00    +0.000 A 
ENDROOT
BRANCH  11  12
ATOM     12  C   UNL     1       0.006  10.391  19.876  0.00  0.00    +0.000 A 
ATOM     13  C   UNL     1      -1.148  10.462  19.077  0.00  0.00    +0.000 A 
ATOM     14  C   UNL     1      -1.717  11.691  18.717  0.00  0.00    +0.000 A 
ATOM     15  C   UNL     1      -1.240  12.872  19.274  0.00  0.00    +0.000 A 
ATOM     16  C   UNL     1      -0.198  12.820  20.188  0.00  0.00    +0.000 A 
ATOM     17  C   UNL     1       0.437  11.601  20.455  0.00  0.00    +0.000 A 
ENDBRANCH  11  12
BRANCH   6  18
ATOM     18  C   UNL     1       4.674   6.396  16.794  0.00  0.00    +0.000 C 
ATOM     19  F   UNL     1       5.935   6.354  17.312  0.00  0.00    +0.000 F 
ATOM     20  F   UNL     1       4.321   5.096  16.569  0.00  0.00    +0.000 F 
ATOM     21  F   UNL     1       4.803   6.951  15.551  0.00  0.00    +0.000 F 
ENDBRANCH   6  18
BRANCH   1  23
ATOM     22  C   UNL     1      -0.027   9.441  23.339  0.00  0.00    +0.000 C 
ATOM     23  O   UNL     1      -0.587   8.831  22.167  0.00  0.00    +0.000 OA
ENDBRANCH   1  23
BRANCH   3  24
ATOM     24  N   UNL     1       2.478   5.315  21.058  0.00  0.00    +0.000 N 
ATOM     25  H   UNL     1       3.039   5.442  21.905  0.00  0.00    +0.000 HD
BRANCH  24  26
ATOM     26  C   UNL     1       1.572   4.151  21.088  0.00  0.00    +0.000 C 
ATOM     27  C   UNL     1       0.850   4.071  19.744  0.00  0.00    +0.000 C 
BRANCH  26  28
ATOM     28  C   UNL     1       2.333   2.846  21.372  0.00  0.00    +0.000 C 
BRANCH  28  29
ATOM     29  C   UNL     1       2.853   2.188  20.090  0.00  0.00    +0.000 C 
BRANCH  29  30
ATOM     30  C   UNL     1       4.352   2.403  19.914  0.00  0.00    +0.000 C 
BRANCH  30  31
ATOM     31  N   UNL     1       4.605   3.754  19.428  0.00  0.00    +0.000 NA
ATOM     32  H   UNL     1       4.726   4.384  20.221  0.00  0.00    +0.000 HD
ATOM     33  H   UNL     1       3.786   4.090  18.923  0.00  0.00    +0.000 HD
ENDBRANCH  30  31
ENDBRANCH  29  30
ENDBRANCH  28  29
ENDBRANCH  26  28
ENDBRANCH  24  26
ENDBRANCH   3  24
TORSDOF 9
ENDMDL
MODEL 2
REMARK VINA RESULT:      -6.5      0.257      1.146
REMARK  Name = 
REMARK  12 active torsions:
REMARK  status: ('A' for Active; 'I' for Inactive)
REMARK    1  A    between atoms: C_1  and  O_2
REMARK    2  A    between atoms: O_2  and  C_3
REMARK    3  A    between atoms: C_5  and  N_6
REMARK    4  A    between atoms: N_6  and  C_7
REMARK    5  A    between atoms: C_7  and  C_8
REMARK    6  A    between atoms: C_7  and  C_9
REMARK    7  A    between atoms: C_9  and  C_10
REMARK    8  A    between atoms: C_10  and  C_11
REMARK    9  A    between atoms: C_11  and  N_12
REMARK   10  A    between atoms: C_15  and  C_16
REMARK   11  A    between atoms: C_21  and  C_22
REMARK   12  A    between atoms: C_24  and  C_25
REMARK                            x       y       z     vdW  Elec       q    Type
REMARK                         _______ _______ _______ _____ _____    ______ ____
ROOT
ATOM      1  C   UNL     1       0.339   8.405  21.320  0.00  0.00    +0.000 A 
ATOM      2  C   UNL     1       0.879   7.145  21.531  0.00  0.00    +0.000 A 
ATOM      3  C   UNL     1       1.871   6.639  20.707  0.00  0.00    +0.000 A 
ATOM      4  C   UNL     1       2.253   7.343  19.552  0.00  0.00    +0.000 A 
ATOM      5  N   UNL     1       3.162   6.700  18.781  0.00  0.00    +0.000 NA
ATOM      6  C   UNL     1       3.615   7.262  17.640  0.00  0.00    +0.000 A 
ATOM      7  C   UNL     1       3.223   8.535  17.282  0.00  0.00    +0.000 A 
ATOM      8  C   UNL     1       2.338   9.260  18.103  0.00  0.00    +0.000 A 
ATOM      9  C   UNL     1       2.157  10.686  17.647  0.00  0.00    +0.000 C 
ATOM     10  C   UNL     1       1.726   8.644  19.266  0.00  0.00    +0.000 A 
ATOM     11  C   UNL     1       0.693   9.173  20.176  0.00  0.00    +0.000 A 
ENDROOT
BRANCH  11  12
ATOM     12  C   UNL     1      -0.018  10.476  19.953  0.00  0.00    +0.000 A 
ATOM     13  C   UNL     1       0.438  11.678  20.522  0.00  0.00    +0.000 A 
ATOM     14  C   UNL     1      -0.312  12.859  20.441  0.00  0.00    +0.000 A 
ATOM     15  C   UNL     1      -1.458  12.907  19.656  0.00  0.00    +0.000 A 
ATOM     16  C   UNL     1      -1.851  11.775  18.955  0.00  0.00    +0.000 A 
ATOM     17  C   UNL     1      -1.159  10.571  19.132  0.00  0.00    +0.000 A 
ENDBRANCH  11  12
BRANCH   6  18
ATOM     18  C   UNL     1       4.623   6.534  16.762  0.00  0.00    +0.000 C 
ATOM     19  F   UNL     1       4.742   7.033  15.500  0.00  0.00    +0.000 F 
ATOM     20  F   UNL     1       5.883   6.546  17.289  0.00  0.00    +0.000 F 
ATOM     21  F   UNL     1       4.311   5.212  16.610  0.00  0.00    +0.000 F 
ENDBRANCH   6  18
BRANCH   1  23
ATOM     22  C   UNL     1      -0.032   9.449  23.401  0.00  0.00    +0.000 C 
ATOM     23  O   UNL     1      -0.600   8.873  22.216  0.00  0.00    +0.000 OA
ENDBRANCH   1  23
BRANCH   3  24
ATOM     24  N   UNL     1       2.450   5.373  21.017  0.00  0.00    +0.000 N 
ATOM     25  H   UNL     1       2.994   5.475  21.879  0.00  0.00    +0.000 HD
BRANCH  24  26
ATOM     26  C   UNL     1       1.550   4.205  20.993  0.00  0.00    +0.000 C 
ATOM     27  C   UNL     1       1.038   4.024  19.565  0.00  0.00    +0.000 C 
BRANCH  26  28
ATOM     28  C   UNL     1       2.258   2.930  21.480  0.00  0.00    +0.000 C 
BRANCH  28  29
ATOM     29  C   UNL     1       2.949   2.179  20.337  0.00  0.00    +0.000 C 
BRANCH  29  30
ATOM     30  C   UNL     1       4.467   2.285  20.429  0.00  0.00    +0.000 C 
BRANCH  30  31
ATOM     31  N   UNL     1       4.993   2.925  19.229  0.00  0.00    +0.000 NA
ATOM     32  H   UNL     1       5.046   3.933  19.377  0.00  0.00    +0.000 HD
ATOM     33  H   UNL     1       4.341   2.786  18.459  0.00  0.00    +0.000 HD
ENDBRANCH  30  31
ENDBRANCH  29  30
ENDBRANCH  28  29
ENDBRANCH  26  28
ENDBRANCH  24  26
ENDBRANCH   3  24
TORSDOF 9
ENDMDL
MODEL 3
REMARK VINA RESULT:      -6.1      0.930      1.466
REMARK  Name = 
REMARK  12 active torsions:
REMARK  status: ('A' for Active; 'I' for Inactive)
REMARK    1  A    between atoms: C_1  and  O_2
REMARK    2  A    between atoms: O_2  and  C_3
REMARK    3  A    between atoms: C_5  and  N_6
REMARK    4  A    between atoms: N_6  and  C_7
REMARK    5  A    between atoms: C_7  and  C_8
REMARK    6  A    between atoms: C_7  and  C_9
REMARK    7  A    between atoms: C_9  and  C_10
REMARK    8  A    between atoms: C_10  and  C_11
REMARK    9  A    between atoms: C_11  and  N_12
REMARK   10  A    between atoms: C_15  and  C_16
REMARK   11  A    between atoms: C_21  and  C_22
REMARK   12  A    between atoms: C_24  and  C_25
REMARK                            x       y       z     vdW  Elec       q    Type
REMARK                         _______ _______ _______ _____ _____    ______ ____
ROOT
ATOM      1  C   UNL     1       0.409   8.313  21.231  0.00  0.00    +0.000 A 
ATOM      2  C   UNL     1       0.914   7.079  21.610  0.00  0.00    +0.000 A 
ATOM      3  C   UNL     1       1.919   6.457  20.886  0.00  0.00    +0.000 A 
ATOM      4  C   UNL     1       2.350   7.008  19.667  0.00  0.00    +0.000 A 
ATOM      5  N   UNL     1       3.267   6.258  19.009  0.00  0.00    +0.000 NA
ATOM      6  C   UNL     1       3.766   6.668  17.824  0.00  0.00    +0.000 A 
ATOM      7  C   UNL     1       3.414   7.896  17.301  0.00  0.00    +0.000 A 
ATOM      8  C   UNL     1       2.521   8.732  18.000  0.00  0.00    +0.000 A 
ATOM      9  C   UNL     1       2.386  10.095  17.368  0.00  0.00    +0.000 C 
ATOM     10  C   UNL     1       1.862   8.274  19.209  0.00  0.00    +0.000 A 
ATOM     11  C   UNL     1       0.814   8.929  20.014  0.00  0.00    +0.000 A 
ENDROOT
BRANCH  11  12
ATOM     12  C   UNL     1       0.140  10.209  19.612  0.00  0.00    +0.000 A 
ATOM     13  C   UNL     1      -0.993  10.223  18.780  0.00  0.00    +0.000 A 
ATOM     14  C   UNL     1      -1.523  11.421  18.282  0.00  0.00    +0.000 A 
ATOM     15  C   UNL     1      -1.032  12.642  18.729  0.00  0.00    +0.000 A 
ATOM     16  C   UNL     1      -0.012  12.662  19.670  0.00  0.00    +0.000 A 
ATOM     17  C   UNL     1       0.586  11.463  20.076  0.00  0.00    +0.000 A 
ENDBRANCH  11  12
BRANCH   6  18
ATOM     18  C   UNL     1       4.783   5.820  17.074  0.00  0.00    +0.000 C 
ATOM     19  F   UNL     1       5.361   6.438  16.005  0.00  0.00    +0.000 F 
ATOM     20  F   UNL     1       5.813   5.409  17.870  0.00  0.00    +0.000 F 
ATOM     21  F   UNL     1       4.230   4.671  16.581  0.00  0.00    +0.000 F 
ENDBRANCH   6  18
BRANCH   1  23
ATOM     22  C   UNL     1      -0.010   9.504  23.221  0.00  0.00    +0.000 C 
ATOM     23  O   UNL     1      -0.545   8.904  22.033  0.00  0.00    +0.000 OA
ENDBRANCH   1  23
BRANCH   3  24
ATOM     24  N   UNL     1       2.459   5.227  21.366  0.00  0.00    +0.000 N 
ATOM     25  H   UNL     1       2.160   5.108  22.339  0.00  0.00    +0.000 HD
BRANCH  24  26
ATOM     26  C   UNL     1       2.270   4.039  20.514  0.00  0.00    +0.000 C 
ATOM     27  C   UNL     1       2.981   2.858  21.175  0.00  0.00    +0.000 C 
BRANCH  26  28
ATOM     28  C   UNL     1       0.781   3.723  20.300  0.00  0.00    +0.000 C 
BRANCH  28  29
ATOM     29  C   UNL     1       0.551   2.810  19.092  0.00  0.00    +0.000 C 
BRANCH  29  30
ATOM     30  C   UNL     1       1.573   3.067  17.988  0.00  0.00    +0.000 C 
BRANCH  30  31
ATOM     31  N   UNL     1       1.209   4.270  17.248  0.00  0.00    +0.000 NA
ATOM     32  H   UNL     1       0.197   4.305  17.133  0.00  0.00    +0.000 HD
ATOM     33  H   UNL     1       1.600   4.220  16.308  0.00  0.00    +0.000 HD
ENDBRANCH  30  31
ENDBRANCH  29  30
ENDBRANCH  28  29
ENDBRANCH  26  28
ENDBRANCH  24  26
ENDBRANCH   3  24
TORSDOF 9
ENDMDL
MODEL 4
REMARK VINA RESULT:      -6.1      0.909      1.582
REMARK  Name = 
REMARK  12 active torsions:
REMARK  status: ('A' for Active; 'I' for Inactive)
REMARK    1  A    between atoms: C_1  and  O_2
REMARK    2  A    between atoms: O_2  and  C_3
REMARK    3  A    between atoms: C_5  and  N_6
REMARK    4  A    between atoms: N_6  and  C_7
REMARK    5  A    between atoms: C_7  and  C_8
REMARK    6  A    between atoms: C_7  and  C_9
REMARK    7  A    between atoms: C_9  and  C_10
REMARK    8  A    between atoms: C_10  and  C_11
REMARK    9  A    between atoms: C_11  and  N_12
REMARK   10  A    between atoms: C_15  and  C_16
REMARK   11  A    between atoms: C_21  and  C_22
REMARK   12  A    between atoms: C_24  and  C_25
REMARK                            x       y       z     vdW  Elec       q    Type
REMARK                         _______ _______ _______ _____ _____    ______ ____
ROOT
ATOM      1  C   UNL     1       0.397   8.329  21.239  0.00  0.00    +0.000 A 
ATOM      2  C   UNL     1       0.905   7.093  21.612  0.00  0.00    +0.000 A 
ATOM      3  C   UNL     1       1.911   6.479  20.884  0.00  0.00    +0.000 A 
ATOM      4  C   UNL     1       2.342   7.037  19.668  0.00  0.00    +0.000 A 
ATOM      5  N   UNL     1       3.260   6.294  19.007  0.00  0.00    +0.000 NA
ATOM      6  C   UNL     1       3.759   6.711  17.823  0.00  0.00    +0.000 A 
ATOM      7  C   UNL     1       3.404   7.941  17.308  0.00  0.00    +0.000 A 
ATOM      8  C   UNL     1       2.509   8.771  18.011  0.00  0.00    +0.000 A 
ATOM      9  C   UNL     1       2.370  10.137  17.387  0.00  0.00    +0.000 C 
ATOM     10  C   UNL     1       1.850   8.305  19.217  0.00  0.00    +0.000 A 
ATOM     11  C   UNL     1       0.801   8.952  20.026  0.00  0.00    +0.000 A 
ENDROOT
BRANCH  11  12
ATOM     12  C   UNL     1       0.124  10.233  19.631  0.00  0.00    +0.000 A 
ATOM     13  C   UNL     1       0.584  11.484  20.074  0.00  0.00    +0.000 A 
ATOM     14  C   UNL     1      -0.139  12.661  19.833  0.00  0.00    +0.000 A 
ATOM     15  C   UNL     1      -1.258  12.636  19.008  0.00  0.00    +0.000 A 
ATOM     16  C   UNL     1      -1.650  11.438  18.429  0.00  0.00    +0.000 A 
ATOM     17  C   UNL     1      -0.989  10.251  18.766  0.00  0.00    +0.000 A 
ENDBRANCH  11  12
BRANCH   6  18
ATOM     18  C   UNL     1       4.777   5.870  17.069  0.00  0.00    +0.000 C 
ATOM     19  F   UNL     1       5.880   5.527  17.793  0.00  0.00    +0.000 F 
ATOM     20  F   UNL     1       4.252   4.696  16.609  0.00  0.00    +0.000 F 
ATOM     21  F   UNL     1       5.250   6.510  15.957  0.00  0.00    +0.000 F 
ENDBRANCH   6  18
BRANCH   1  23
ATOM     22  C   UNL     1      -0.023   9.524  23.227  0.00  0.00    +0.000 C 
ATOM     23  O   UNL     1      -0.558   8.913  22.044  0.00  0.00    +0.000 OA
ENDBRANCH   1  23
BRANCH   3  24
ATOM     24  N   UNL     1       2.455   5.247  21.357  0.00  0.00    +0.000 N 
ATOM     25  H   UNL     1       2.141   5.113  22.323  0.00  0.00    +0.000 HD
BRANCH  24  26
ATOM     26  C   UNL     1       2.290   4.068  20.487  0.00  0.00    +0.000 C 
ATOM     27  C   UNL     1       2.974   2.878  21.159  0.00  0.00    +0.000 C 
BRANCH  26  28
ATOM     28  C   UNL     1       0.808   3.760  20.220  0.00  0.00    +0.000 C 
BRANCH  28  29
ATOM     29  C   UNL     1       0.623   2.739  19.094  0.00  0.00    +0.000 C 
BRANCH  29  30
ATOM     30  C   UNL     1       1.572   3.005  17.929  0.00  0.00    +0.000 C 
BRANCH  30  31
ATOM     31  N   UNL     1       1.220   4.264  17.283  0.00  0.00    +0.000 NA
ATOM     32  H   UNL     1       0.768   4.072  16.389  0.00  0.00    +0.000 HD
ATOM     33  H   UNL     1       2.070   4.782  17.065  0.00  0.00    +0.000 HD
ENDBRANCH  30  31
ENDBRANCH  29  30
ENDBRANCH  28  29
ENDBRANCH  26  28
ENDBRANCH  24  26
ENDBRANCH   3  24
TORSDOF 9
ENDMDL
MODEL 5
REMARK VINA RESULT:      -5.7      0.862      1.598
REMARK  Name = 
REMARK  12 active torsions:
REMARK  status: ('A' for Active; 'I' for Inactive)
REMARK    1  A    between atoms: C_1  and  O_2
REMARK    2  A    between atoms: O_2  and  C_3
REMARK    3  A    between atoms: C_5  and  N_6
REMARK    4  A    between atoms: N_6  and  C_7
REMARK    5  A    between atoms: C_7  and  C_8
REMARK    6  A    between atoms: C_7  and  C_9
REMARK    7  A    between atoms: C_9  and  C_10
REMARK    8  A    between atoms: C_10  and  C_11
REMARK    9  A    between atoms: C_11  and  N_12
REMARK   10  A    between atoms: C_15  and  C_16
REMARK   11  A    between atoms: C_21  and  C_22
REMARK   12  A    between atoms: C_24  and  C_25
REMARK                            x       y       z     vdW  Elec       q    Type
REMARK                         _______ _______ _______ _____ _____    ______ ____
ROOT
ATOM      1  C   UNL     1       0.418   8.168  21.222  0.00  0.00    +0.000 A 
ATOM      2  C   UNL     1       1.023   6.945  21.469  0.00  0.00    +0.000 A 
ATOM      3  C   UNL     1       2.054   6.477  20.669  0.00  0.00    +0.000 A 
ATOM      4  C   UNL     1       2.412   7.174  19.503  0.00  0.00    +0.000 A 
ATOM      5  N   UNL     1       3.366   6.565  18.759  0.00  0.00    +0.000 NA
ATOM      6  C   UNL     1       3.803   7.126  17.611  0.00  0.00    +0.000 A 
ATOM      7  C   UNL     1       3.347   8.367  17.218  0.00  0.00    +0.000 A 
ATOM      8  C   UNL     1       2.412   9.060  18.011  0.00  0.00    +0.000 A 
ATOM      9  C   UNL     1       2.159  10.463  17.519  0.00  0.00    +0.000 C 
ATOM     10  C   UNL     1       1.819   8.438  19.180  0.00  0.00    +0.000 A 
ATOM     11  C   UNL     1       0.745   8.928  20.064  0.00  0.00    +0.000 A 
ENDROOT
BRANCH  11  12
ATOM     12  C   UNL     1      -0.033  10.185  19.802  0.00  0.00    +0.000 A 
ATOM     13  C   UNL     1       0.337  11.419  20.363  0.00  0.00    +0.000 A 
ATOM     14  C   UNL     1      -0.477  12.554  20.244  0.00  0.00    +0.000 A 
ATOM     15  C   UNL     1      -1.603  12.524  19.428  0.00  0.00    +0.000 A 
ATOM     16  C   UNL     1      -1.911  11.361  18.737  0.00  0.00    +0.000 A 
ATOM     17  C   UNL     1      -1.156  10.202  18.951  0.00  0.00    +0.000 A 
ENDBRANCH  11  12
BRANCH   6  18
ATOM     18  C   UNL     1       4.862   6.435  16.764  0.00  0.00    +0.000 C 
ATOM     19  F   UNL     1       4.914   6.853  15.467  0.00  0.00    +0.000 F 
ATOM     20  F   UNL     1       6.123   6.603  17.260  0.00  0.00    +0.000 F 
ATOM     21  F   UNL     1       4.675   5.082  16.710  0.00  0.00    +0.000 F 
ENDBRANCH   6  18
BRANCH   1  23
ATOM     22  C   UNL     1      -0.046   9.346  23.210  0.00  0.00    +0.000 C 
ATOM     23  O   UNL     1      -0.558   8.603  22.094  0.00  0.00    +0.000 OA
ENDBRANCH   1  23
BRANCH   3  24
ATOM     24  N   UNL     1       2.697   5.251  21.017  0.00  0.00    +0.000 N 
ATOM     25  H   UNL     1       2.853   5.251  22.029  0.00  0.00    +0.000 HD
BRANCH  24  26
ATOM     26  C   UNL     1       2.100   4.012  20.485  0.00  0.00    +0.000 C 
ATOM     27  C   UNL     1       1.474   3.244  21.649  0.00  0.00    +0.000 C 
BRANCH  26  28
ATOM     28  C   UNL     1       1.050   4.305  19.402  0.00  0.00    +0.000 C 
BRANCH  28  29
ATOM     29  C   UNL     1       1.440   3.716  18.043  0.00  0.00    +0.000 C 
BRANCH  29  30
ATOM     30  C   UNL     1       2.004   2.305  18.181  0.00  0.00    +0.000 C 
BRANCH  30  31
ATOM     31  N   UNL     1       3.361   2.261  17.650  0.00  0.00    +0.000 NA
ATOM     32  H   UNL     1       3.680   3.209  17.452  0.00  0.00    +0.000 HD
ATOM     33  H   UNL     1       3.359   1.771  16.756  0.00  0.00    +0.000 HD
ENDBRANCH  30  31
ENDBRANCH  29  30
ENDBRANCH  28  29
ENDBRANCH  26  28
ENDBRANCH  24  26
ENDBRANCH   3  24
TORSDOF 9
ENDMDL
MODEL 6
REMARK VINA RESULT:      -5.7      6.415      9.566
REMARK  Name = 
REMARK  12 active torsions:
REMARK  status: ('A' for Active; 'I' for Inactive)
REMARK    1  A    between atoms: C_1  and  O_2
REMARK    2  A    between atoms: O_2  and  C_3
REMARK    3  A    between atoms: C_5  and  N_6
REMARK    4  A    between atoms: N_6  and  C_7
REMARK    5  A    between atoms: C_7  and  C_8
REMARK    6  A    between atoms: C_7  and  C_9
REMARK    7  A    between atoms: C_9  and  C_10
REMARK    8  A    between atoms: C_10  and  C_11
REMARK    9  A    between atoms: C_11  and  N_12
REMARK   10  A    between atoms: C_15  and  C_16
REMARK   11  A    between atoms: C_21  and  C_22
REMARK   12  A    between atoms: C_24  and  C_25
REMARK                            x       y       z     vdW  Elec       q    Type
REMARK                         _______ _______ _______ _____ _____    ______ ____
ROOT
ATOM      1  C   UNL     1      -0.789  12.561  21.165  0.00  0.00    +0.000 A 
ATOM      2  C   UNL     1      -1.780  13.358  21.719  0.00  0.00    +0.000 A 
ATOM      3  C   UNL     1      -3.074  13.346  21.223  0.00  0.00    +0.000 A 
ATOM      4  C   UNL     1      -3.374  12.624  20.056  0.00  0.00    +0.000 A 
ATOM      5  N   UNL     1      -4.649  12.769  19.621  0.00  0.00    +0.000 NA
ATOM      6  C   UNL     1      -5.072  12.133  18.508  0.00  0.00    +0.000 A 
ATOM      7  C   UNL     1      -4.238  11.259  17.841  0.00  0.00    +0.000 A 
ATOM      8  C   UNL     1      -2.931  11.028  18.312  0.00  0.00    +0.000 A 
ATOM      9  C   UNL     1      -2.229   9.923  17.564  0.00  0.00    +0.000 C 
ATOM     10  C   UNL     1      -2.395  11.790  19.425  0.00  0.00    +0.000 A 
ATOM     11  C   UNL     1      -1.033  11.797  19.989  0.00  0.00    +0.000 A 
ENDROOT
BRANCH  11  12
ATOM     12  C   UNL     1       0.119  11.050  19.382  0.00  0.00    +0.000 A 
ATOM     13  C   UNL     1       1.031  11.670  18.511  0.00  0.00    +0.000 A 
ATOM     14  C   UNL     1       2.009  10.935  17.827  0.00  0.00    +0.000 A 
ATOM     15  C   UNL     1       2.201   9.588  18.115  0.00  0.00    +0.000 A 
ATOM     16  C   UNL     1       1.415   8.982  19.085  0.00  0.00    +0.000 A 
ATOM     17  C   UNL     1       0.368   9.695  19.681  0.00  0.00    +0.000 A 
ENDBRANCH  11  12
BRANCH   6  18
ATOM     18  C   UNL     1      -6.498  12.307  18.008  0.00  0.00    +0.000 C 
ATOM     19  F   UNL     1      -7.214  11.151  17.915  0.00  0.00    +0.000 F 
ATOM     20  F   UNL     1      -7.235  13.140  18.801  0.00  0.00    +0.000 F 
ATOM     21  F   UNL     1      -6.540  12.869  16.762  0.00  0.00    +0.000 F 
ENDBRANCH   6  18
BRANCH   1  23
ATOM     22  C   UNL     1       1.227  13.749  21.446  0.00  0.00    +0.000 C 
ATOM     23  O   UNL     1       0.462  12.574  21.747  0.00  0.00    +0.000 OA
ENDBRANCH   1  23
BRANCH   3  24
ATOM     24  N   UNL     1      -4.074  14.123  21.881  0.00  0.00    +0.000 N 
ATOM     25  H   UNL     1      -4.968  13.953  21.411  0.00  0.00    +0.000 HD
BRANCH  24  26
ATOM     26  C   UNL     1      -4.126  14.034  23.353  0.00  0.00    +0.000 C 
ATOM     27  C   UNL     1      -4.414  15.429  23.907  0.00  0.00    +0.000 C 
BRANCH  26  28
ATOM     28  C   UNL     1      -5.193  13.033  23.825  0.00  0.00    +0.000 C 
BRANCH  28  29
ATOM     29  C   UNL     1      -6.435  13.046  22.928  0.00  0.00    +0.000 C 
BRANCH  29  30
ATOM     30  C   UNL     1      -7.693  12.666  23.703  0.00  0.00    +0.000 C 
BRANCH  30  31
ATOM     31  N   UNL     1      -7.914  13.617  24.786  0.00  0.00    +0.000 NA
ATOM     32  H   UNL     1      -8.828  14.054  24.673  0.00  0.00    +0.000 HD
ATOM     33  H   UNL     1      -7.230  14.369  24.720  0.00  0.00    +0.000 HD
ENDBRANCH  30  31
ENDBRANCH  29  30
ENDBRANCH  28  29
ENDBRANCH  26  28
ENDBRANCH  24  26
ENDBRANCH   3  24
TORSDOF 9
ENDMDL
MODEL 7
REMARK VINA RESULT:      -5.6      6.450      9.442
REMARK  Name = 
REMARK  12 active torsions:
REMARK  status: ('A' for Active; 'I' for Inactive)
REMARK    1  A    between atoms: C_1  and  O_2
REMARK    2  A    between atoms: O_2  and  C_3
REMARK    3  A    between atoms: C_5  and  N_6
REMARK    4  A    between atoms: N_6  and  C_7
REMARK    5  A    between atoms: C_7  and  C_8
REMARK    6  A    between atoms: C_7  and  C_9
REMARK    7  A    between atoms: C_9  and  C_10
REMARK    8  A    between atoms: C_10  and  C_11
REMARK    9  A    between atoms: C_11  and  N_12
REMARK   10  A    between atoms: C_15  and  C_16
REMARK   11  A    between atoms: C_21  and  C_22
REMARK   12  A    between atoms: C_24  and  C_25
REMARK                            x       y       z     vdW  Elec       q    Type
REMARK                         _______ _______ _______ _____ _____    ______ ____
ROOT
ATOM      1  C   UNL     1      -0.982  12.716  21.194  0.00  0.00    +0.000 A 
ATOM      2  C   UNL     1      -2.018  13.450  21.750  0.00  0.00    +0.000 A 
ATOM      3  C   UNL     1      -3.306  13.378  21.244  0.00  0.00    +0.000 A 
ATOM      4  C   UNL     1      -3.558  12.661  20.062  0.00  0.00    +0.000 A 
ATOM      5  N   UNL     1      -4.835  12.745  19.619  0.00  0.00    +0.000 NA
ATOM      6  C   UNL     1      -5.215  12.105  18.492  0.00  0.00    +0.000 A 
ATOM      7  C   UNL     1      -4.331  11.288  17.818  0.00  0.00    +0.000 A 
ATOM      8  C   UNL     1      -3.017  11.118  18.298  0.00  0.00    +0.000 A 
ATOM      9  C   UNL     1      -2.252  10.065  17.538  0.00  0.00    +0.000 C 
ATOM     10  C   UNL     1      -2.531  11.889  19.427  0.00  0.00    +0.000 A 
ATOM     11  C   UNL     1      -1.176  11.959  20.004  0.00  0.00    +0.000 A 
ENDROOT
BRANCH  11  12
ATOM     12  C   UNL     1       0.019  11.284  19.395  0.00  0.00    +0.000 A 
ATOM     13  C   UNL     1       0.963  11.990  18.631  0.00  0.00    +0.000 A 
ATOM     14  C   UNL     1       1.988  11.331  17.937  0.00  0.00    +0.000 A 
ATOM     15  C   UNL     1       2.188   9.967  18.116  0.00  0.00    +0.000 A 
ATOM     16  C   UNL     1       1.365   9.268  18.987  0.00  0.00    +0.000 A 
ATOM     17  C   UNL     1       0.276   9.912  19.587  0.00  0.00    +0.000 A 
ENDBRANCH  11  12
BRANCH   6  18
ATOM     18  C   UNL     1      -6.644  12.213  17.982  0.00  0.00    +0.000 C 
ATOM     19  F   UNL     1      -6.758  12.667  16.702  0.00  0.00    +0.000 F 
ATOM     20  F   UNL     1      -7.304  11.018  18.014  0.00  0.00    +0.000 F 
ATOM     21  F   UNL     1      -7.399  13.060  18.743  0.00  0.00    +0.000 F 
ENDBRANCH   6  18
BRANCH   1  23
ATOM     22  C   UNL     1       0.841  14.097  21.763  0.00  0.00    +0.000 C 
ATOM     23  O   UNL     1       0.261  12.785  21.787  0.00  0.00    +0.000 OA
ENDBRANCH   1  23
BRANCH   3  24
ATOM     24  N   UNL     1      -4.351  14.090  21.905  0.00  0.00    +0.000 N 
ATOM     25  H   UNL     1      -5.081  14.294  21.216  0.00  0.00    +0.000 HD
BRANCH  24  26
ATOM     26  C   UNL     1      -4.843  13.525  23.175  0.00  0.00    +0.000 C 
ATOM     27  C   UNL     1      -4.024  14.127  24.317  0.00  0.00    +0.000 C 
BRANCH  26  28
ATOM     28  C   UNL     1      -6.341  13.802  23.379  0.00  0.00    +0.000 C 
BRANCH  28  29
ATOM     29  C   UNL     1      -7.173  12.516  23.377  0.00  0.00    +0.000 C 
BRANCH  29  30
ATOM     30  C   UNL     1      -7.740  12.215  21.993  0.00  0.00    +0.000 C 
BRANCH  30  31
ATOM     31  N   UNL     1      -7.007  11.108  21.389  0.00  0.00    +0.000 NA
ATOM     32  H   UNL     1      -6.011  11.325  21.378  0.00  0.00    +0.000 HD
ATOM     33  H   UNL     1      -7.287  11.009  20.414  0.00  0.00    +0.000 HD
ENDBRANCH  30  31
ENDBRANCH  29  30
ENDBRANCH  28  29
ENDBRANCH  26  28
ENDBRANCH  24  26
ENDBRANCH   3  24
TORSDOF 9
ENDMDL
MODEL 8
REMARK VINA RESULT:      -5.6      4.771      7.323
REMARK  Name = 
REMARK  12 active torsions:
REMARK  status: ('A' for Active; 'I' for Inactive)
REMARK    1  A    between atoms: C_1  and  O_2
REMARK    2  A    between atoms: O_2  and  C_3
REMARK    3  A    between atoms: C_5  and  N_6
REMARK    4  A    between atoms: N_6  and  C_7
REMARK    5  A    between atoms: C_7  and  C_8
REMARK    6  A    between atoms: C_7  and  C_9
REMARK    7  A    between atoms: C_9  and  C_10
REMARK    8  A    between atoms: C_10  and  C_11
REMARK    9  A    between atoms: C_11  and  N_12
REMARK   10  A    between atoms: C_15  and  C_16
REMARK   11  A    between atoms: C_21  and  C_22
REMARK   12  A    between atoms: C_24  and  C_25
REMARK                            x       y       z     vdW  Elec       q    Type
REMARK                         _______ _______ _______ _____ _____    ______ ____
ROOT
ATOM      1  C   UNL     1      -2.702  10.409  17.768  0.00  0.00    +0.000 A 
ATOM      2  C   UNL     1      -1.336  10.180  17.824  0.00  0.00    +0.000 A 
ATOM      3  C   UNL     1      -0.519  10.898  18.683  0.00  0.00    +0.000 A 
ATOM      4  C   UNL     1      -1.045  11.975  19.417  0.00  0.00    +0.000 A 
ATOM      5  N   UNL     1      -0.128  12.656  20.145  0.00  0.00    +0.000 NA
ATOM      6  C   UNL     1      -0.496  13.716  20.896  0.00  0.00    +0.000 A 
ATOM      7  C   UNL     1      -1.824  14.074  21.000  0.00  0.00    +0.000 A 
ATOM      8  C   UNL     1      -2.811  13.338  20.316  0.00  0.00    +0.000 A 
ATOM      9  C   UNL     1      -4.211  13.763  20.680  0.00  0.00    +0.000 C 
ATOM     10  C   UNL     1      -2.446  12.276  19.396  0.00  0.00    +0.000 A 
ATOM     11  C   UNL     1      -3.297  11.477  18.496  0.00  0.00    +0.000 A 
ENDROOT
BRANCH  11  12
ATOM     12  C   UNL     1      -4.762  11.737  18.296  0.00  0.00    +0.000 A 
ATOM     13  C   UNL     1      -5.244  12.477  17.203  0.00  0.00    +0.000 A 
ATOM     14  C   UNL     1      -6.592  12.849  17.104  0.00  0.00    +0.000 A 
ATOM     15  C   UNL     1      -7.521  12.357  18.013  0.00  0.00    +0.000 A 
ATOM     16  C   UNL     1      -7.100  11.496  19.017  0.00  0.00    +0.000 A 
ATOM     17  C   UNL     1      -5.736  11.222  19.175  0.00  0.00    +0.000 A 
ENDBRANCH  11  12
BRANCH   6  18
ATOM     18  C   UNL     1       0.535  14.494  21.701  0.00  0.00    +0.000 C 
ATOM     19  F   UNL     1       1.774  13.927  21.736  0.00  0.00    +0.000 F 
ATOM     20  F   UNL     1       0.718  15.763  21.232  0.00  0.00    +0.000 F 
ATOM     21  F   UNL     1       0.160  14.644  23.006  0.00  0.00    +0.000 F 
ENDBRANCH   6  18
BRANCH   1  23
ATOM     22  C   UNL     1      -3.141   9.752  15.547  0.00  0.00    +0.000 C 
ATOM     23  O   UNL     1      -3.465   9.614  16.938  0.00  0.00    +0.000 OA
ENDBRANCH   1  23
BRANCH   3  24
ATOM     24  N   UNL     1       0.866  10.566  18.761  0.00  0.00    +0.000 N 
ATOM     25  H   UNL     1       1.308  11.201  19.433  0.00  0.00    +0.000 HD
BRANCH  24  26
ATOM     26  C   UNL     1       1.200   9.142  18.949  0.00  0.00    +0.000 C 
ATOM     27  C   UNL     1       2.324   8.781  17.978  0.00  0.00    +0.000 C 
BRANCH  26  28
ATOM     28  C   UNL     1       1.620   8.843  20.398  0.00  0.00    +0.000 C 
BRANCH  28  29
ATOM     29  C   UNL     1       0.413   8.617  21.315  0.00  0.00    +0.000 C 
BRANCH  29  30
ATOM     30  C   UNL     1       0.215   9.781  22.281  0.00  0.00    +0.000 C 
BRANCH  30  31
ATOM     31  N   UNL     1      -0.512   9.326  23.460  0.00  0.00    +0.000 NA
ATOM     32  H   UNL     1      -0.856   8.379  23.303  0.00  0.00    +0.000 HD
ATOM     33  H   UNL     1      -1.337   9.909  23.595  0.00  0.00    +0.000 HD
ENDBRANCH  30  31
ENDBRANCH  29  30
ENDBRANCH  28  29
ENDBRANCH  26  28
ENDBRANCH  24  26
ENDBRANCH   3  24
TORSDOF 9
ENDMDL
MODEL 9
REMARK VINA RESULT:      -5.6      4.907      7.457
REMARK  Name = 
REMARK  12 active torsions:
REMARK  status: ('A' for Active; 'I' for Inactive)
REMARK    1  A    between atoms: C_1  and  O_2
REMARK    2  A    between atoms: O_2  and  C_3
REMARK    3  A    between atoms: C_5  and  N_6
REMARK    4  A    between atoms: N_6  and  C_7
REMARK    5  A    between atoms: C_7  and  C_8
REMARK    6  A    between atoms: C_7  and  C_9
REMARK    7  A    between atoms: C_9  and  C_10
REMARK    8  A    between atoms: C_10  and  C_11
REMARK    9  A    between atoms: C_11  and  N_12
REMARK   10  A    between atoms: C_15  and  C_16
REMARK   11  A    between atoms: C_21  and  C_22
REMARK   12  A    between atoms: C_24  and  C_25
REMARK                            x       y       z     vdW  Elec       q    Type
REMARK                         _______ _______ _______ _____ _____    ______ ____
ROOT
ATOM      1  C   UNL     1       0.221  13.709  21.543  0.00  0.00    +0.000 A 
ATOM      2  C   UNL     1       0.736  12.833  20.599  0.00  0.00    +0.000 A 
ATOM      3  C   UNL     1      -0.084  12.209  19.672  0.00  0.00    +0.000 A 
ATOM      4  C   UNL     1      -1.479  12.348  19.761  0.00  0.00    +0.000 A 
ATOM      5  N   UNL     1      -2.172  11.614  18.858  0.00  0.00    +0.000 NA
ATOM      6  C   UNL     1      -3.522  11.651  18.832  0.00  0.00    +0.000 A 
ATOM      7  C   UNL     1      -4.215  12.500  19.670  0.00  0.00    +0.000 A 
ATOM      8  C   UNL     1      -3.519  13.332  20.568  0.00  0.00    +0.000 A 
ATOM      9  C   UNL     1      -4.424  14.308  21.278  0.00  0.00    +0.000 C 
ATOM     10  C   UNL     1      -2.080  13.227  20.720  0.00  0.00    +0.000 A 
ATOM     11  C   UNL     1      -1.183  13.903  21.676  0.00  0.00    +0.000 A 
ENDROOT
BRANCH  11  12
ATOM     12  C   UNL     1      -1.672  14.777  22.794  0.00  0.00    +0.000 A 
ATOM     13  C   UNL     1      -2.030  14.251  24.047  0.00  0.00    +0.000 A 
ATOM     14  C   UNL     1      -2.632  15.045  25.032  0.00  0.00    +0.000 A 
ATOM     15  C   UNL     1      -2.746  16.419  24.849  0.00  0.00    +0.000 A 
ATOM     16  C   UNL     1      -2.260  16.992  23.683  0.00  0.00    +0.000 A 
ATOM     17  C   UNL     1      -1.765  16.176  22.658  0.00  0.00    +0.000 A 
ENDBRANCH  11  12
BRANCH   6  18
ATOM     18  C   UNL     1      -4.303  10.815  17.831  0.00  0.00    +0.000 C 
ATOM     19  F   UNL     1      -3.842   9.542  17.670  0.00  0.00    +0.000 F 
ATOM     20  F   UNL     1      -5.623  10.694  18.163  0.00  0.00    +0.000 F 
ATOM     21  F   UNL     1      -4.298  11.371  16.582  0.00  0.00    +0.000 F 
ENDBRANCH   6  18
BRANCH   1  23
ATOM     22  C   UNL     1       1.972  15.275  21.736  0.00  0.00    +0.000 C 
ATOM     23  O   UNL     1       1.100  14.345  22.394  0.00  0.00    +0.000 OA
ENDBRANCH   1  23
BRANCH   3  24
ATOM     24  N   UNL     1       0.508  11.381  18.672  0.00  0.00    +0.000 N 
ATOM     25  H   UNL     1       1.401  11.803  18.399  0.00  0.00    +0.000 HD
BRANCH  24  26
ATOM     26  C   UNL     1       0.571   9.935  18.955  0.00  0.00    +0.000 C 
ATOM     27  C   UNL     1       1.519   9.290  17.944  0.00  0.00    +0.000 C 
BRANCH  26  28
ATOM     28  C   UNL     1       1.040   9.657  20.392  0.00  0.00    +0.000 C 
BRANCH  28  29
ATOM     29  C   UNL     1      -0.034   8.950  21.224  0.00  0.00    +0.000 C 
BRANCH  29  30
ATOM     30  C   UNL     1      -0.509   9.817  22.386  0.00  0.00    +0.000 C 
BRANCH  30  31
ATOM     31  N   UNL     1       0.401   9.671  23.516  0.00  0.00    +0.000 NA
ATOM     32  H   UNL     1       0.159   8.830  24.040  0.00  0.00    +0.000 HD
ATOM     33  H   UNL     1       0.271  10.452  24.158  0.00  0.00    +0.000 HD
ENDBRANCH  30  31
ENDBRANCH  29  30
ENDBRANCH  28  29
ENDBRANCH  26  28
ENDBRANCH  24  26
ENDBRANCH   3  24
TORSDOF 9
ENDMDL
