MODEL 1
REMARK VINA RESULT:      -6.2      0.000      0.000
REMARK  Name = 
REMARK  8 active torsions:
REMARK  status: ('A' for Active; 'I' for Inactive)
REMARK    1  A    between atoms: C_1  and  C_2
REMARK    2  A    between atoms: C_2  and  O_3
REMARK    3  A    between atoms: O_3  and  C_4
REMARK    4  A    between atoms: C_4  and  C_6
REMARK    5  A    between atoms: C_9  and  N_10
REMARK    6  A    between atoms: C_14  and  C_15
REMARK    7  A    between atoms: N_16  and  C_17
REMARK    8  A    between atoms: C_17  and  C_18
REMARK                            x       y       z     vdW  Elec       q    Type
REMARK                         _______ _______ _______ _____ _____    ______ ____
ROOT
ATOM      1  C   UNL     1       6.675   4.946  15.199  0.00  0.00    +0.000 A 
ATOM      2  C   UNL     1       7.130   4.431  16.418  0.00  0.00    +0.000 A 
ATOM      3  C   UNL     1       6.309   4.488  17.556  0.00  0.00    +0.000 A 
ATOM      4  C   UNL     1       5.023   5.046  17.503  0.00  0.00    +0.000 A 
ATOM      5  C   UNL     1       4.561   5.471  16.253  0.00  0.00    +0.000 A 
ATOM      6  C   UNL     1       5.386   5.469  15.124  0.00  0.00    +0.000 A 
ENDROOT
BRANCH   4   7
ATOM      7  N   UNL     1       4.257   5.039  18.686  0.00  0.00    +0.000 NA
ATOM      8  C   UNL     1       3.442   4.100  19.050  0.00  0.00    +0.000 A 
ATOM      9  S   UNL     1       3.076   2.594  18.138  0.00  0.00    +0.000 S 
ATOM     10  C   UNL     1       2.150   1.951  19.453  0.00  0.00    +0.000 A 
ATOM     11  C   UNL     1       2.000   2.846  20.443  0.00  0.00    +0.000 A 
ATOM     12  C   UNL     1       1.193   2.567  21.669  0.00  0.00    +0.000 C 
ATOM     13  N   UNL     1       2.684   4.059  20.231  0.00  0.00    +0.000 N 
BRANCH  13  14
ATOM     14  C   UNL     1       2.592   5.222  21.111  0.00  0.00    +0.000 C 
ATOM     15  C   UNL     1       1.591   6.231  20.576  0.00  0.00    +0.000 C 
ENDBRANCH  13  14
ENDBRANCH   4   7
BRANCH   1  16
ATOM     16  C   UNL     1       7.459   4.854  13.941  0.00  0.00    +0.000 C 
ATOM     17  O   UNL     1       8.175   5.758  13.538  0.00  0.00    +0.000 OA
BRANCH  16  18
ATOM     18  O   UNL     1       7.204   3.682  13.308  0.00  0.00    +0.000 OA
BRANCH  18  20
ATOM     19  C   UNL     1       5.228   3.328  12.030  0.00  0.00    +0.000 C 
ATOM     20  C   UNL     1       6.665   3.813  11.984  0.00  0.00    +0.000 C 
ENDBRANCH  18  20
ENDBRANCH  16  18
ENDBRANCH   1  16
TORSDOF 5
ENDMDL
MODEL 2
REMARK VINA RESULT:      -6.1      0.671      1.153
REMARK  Name = 
REMARK  8 active torsions:
REMARK  status: ('A' for Active; 'I' for Inactive)
REMARK    1  A    between atoms: C_1  and  C_2
REMARK    2  A    between atoms: C_2  and  O_3
REMARK    3  A    between atoms: O_3  and  C_4
REMARK    4  A    between atoms: C_4  and  C_6
REMARK    5  A    between atoms: C_9  and  N_10
REMARK    6  A    between atoms: C_14  and  C_15
REMARK    7  A    between atoms: N_16  and  C_17
REMARK    8  A    between atoms: C_17  and  C_18
REMARK                            x       y       z     vdW  Elec       q    Type
REMARK                         _______ _______ _______ _____ _____    ______ ____
ROOT
ATOM      1  C   UNL     1       6.251   4.794  14.650  0.00  0.00    +0.000 A 
ATOM      2  C   UNL     1       5.583   5.940  15.097  0.00  0.00    +0.000 A 
ATOM      3  C   UNL     1       4.898   5.921  16.323  0.00  0.00    +0.000 A 
ATOM      4  C   UNL     1       4.870   4.773  17.129  0.00  0.00    +0.000 A 
ATOM      5  C   UNL     1       5.620   3.672  16.700  0.00  0.00    +0.000 A 
ATOM      6  C   UNL     1       6.263   3.659  15.458  0.00  0.00    +0.000 A 
ENDROOT
BRANCH   4   7
ATOM      7  N   UNL     1       4.181   4.850  18.355  0.00  0.00    +0.000 NA
ATOM      8  C   UNL     1       3.329   3.978  18.796  0.00  0.00    +0.000 A 
ATOM      9  S   UNL     1       2.809   2.476  17.954  0.00  0.00    +0.000 S 
ATOM     10  C   UNL     1       1.926   1.932  19.342  0.00  0.00    +0.000 A 
ATOM     11  C   UNL     1       1.897   2.861  20.311  0.00  0.00    +0.000 A 
ATOM     12  C   UNL     1       1.151   2.670  21.591  0.00  0.00    +0.000 C 
ATOM     13  N   UNL     1       2.646   4.019  20.022  0.00  0.00    +0.000 N 
BRANCH  13  14
ATOM     14  C   UNL     1       2.684   5.209  20.869  0.00  0.00    +0.000 C 
ATOM     15  C   UNL     1       1.586   6.185  20.488  0.00  0.00    +0.000 C 
ENDBRANCH  13  14
ENDBRANCH   4   7
BRANCH   1  16
ATOM     16  C   UNL     1       7.055   4.764  13.402  0.00  0.00    +0.000 C 
ATOM     17  O   UNL     1       7.772   5.689  13.053  0.00  0.00    +0.000 OA
BRANCH  16  18
ATOM     18  O   UNL     1       6.816   3.622  12.711  0.00  0.00    +0.000 OA
BRANCH  18  20
ATOM     19  C   UNL     1       5.414   2.176  11.444  0.00  0.00    +0.000 C 
ATOM     20  C   UNL     1       5.505   3.524  12.136  0.00  0.00    +0.000 C 
ENDBRANCH  18  20
ENDBRANCH  16  18
ENDBRANCH   1  16
TORSDOF 5
ENDMDL
MODEL 3
REMARK VINA RESULT:      -5.9      4.819      7.782
REMARK  Name = 
REMARK  8 active torsions:
REMARK  status: ('A' for Active; 'I' for Inactive)
REMARK    1  A    between atoms: C_1  and  C_2
REMARK    2  A    between atoms: C_2  and  O_3
REMARK    3  A    between atoms: O_3  and  C_4
REMARK    4  A    between atoms: C_4  and  C_6
REMARK    5  A    between atoms: C_9  and  N_10
REMARK    6  A    between atoms: C_14  and  C_15
REMARK    7  A    between atoms: N_16  and  C_17
REMARK    8  A    between atoms: C_17  and  C_18
REMARK                            x       y       z     vdW  Elec       q    Type
REMARK                         _______ _______ _______ _____ _____    ______ ____
ROOT
ATOM      1  C   UNL     1       0.915   9.756  19.446  0.00  0.00    +0.000 A 
ATOM      2  C   UNL     1       1.351   9.493  18.142  0.00  0.00    +0.000 A 
ATOM      3  C   UNL     1       2.121   8.350  17.875  0.00  0.00    +0.000 A 
ATOM      4  C   UNL     1       2.463   7.444  18.890  0.00  0.00    +0.000 A 
ATOM      5  C   UNL     1       1.939   7.684  20.165  0.00  0.00    +0.000 A 
ATOM      6  C   UNL     1       1.216   8.845  20.457  0.00  0.00    +0.000 A 
ENDROOT
BRANCH   4   7
ATOM      7  N   UNL     1       3.217   6.309  18.529  0.00  0.00    +0.000 NA
ATOM      8  C   UNL     1       2.926   5.084  18.835  0.00  0.00    +0.000 A 
ATOM      9  S   UNL     1       1.511   4.532  19.798  0.00  0.00    +0.000 S 
ATOM     10  C   UNL     1       1.857   2.868  19.465  0.00  0.00    +0.000 A 
ATOM     11  C   UNL     1       3.018   2.721  18.807  0.00  0.00    +0.000 A 
ATOM     12  C   UNL     1       3.580   1.384  18.451  0.00  0.00    +0.000 C 
ATOM     13  N   UNL     1       3.646   3.935  18.470  0.00  0.00    +0.000 N 
BRANCH  13  14
ATOM     14  C   UNL     1       4.964   4.036  17.848  0.00  0.00    +0.000 C 
ATOM     15  C   UNL     1       4.850   4.100  16.335  0.00  0.00    +0.000 C 
ENDBRANCH  13  14
ENDBRANCH   4   7
BRANCH   1  16
ATOM     16  C   UNL     1       0.039  10.904  19.788  0.00  0.00    +0.000 C 
ATOM     17  O   UNL     1       0.216  12.029  19.346  0.00  0.00    +0.000 OA
BRANCH  16  18
ATOM     18  O   UNL     1      -0.905  10.531  20.687  0.00  0.00    +0.000 OA
BRANCH  18  20
ATOM     19  C   UNL     1      -0.910  10.513  23.066  0.00  0.00    +0.000 C 
ATOM     20  C   UNL     1      -1.025  11.387  21.832  0.00  0.00    +0.000 C 
ENDBRANCH  18  20
ENDBRANCH  16  18
ENDBRANCH   1  16
TORSDOF 5
ENDMDL
MODEL 4
REMARK VINA RESULT:      -5.9      5.096      7.560
REMARK  Name = 
REMARK  8 active torsions:
REMARK  status: ('A' for Active; 'I' for Inactive)
REMARK    1  A    between atoms: C_1  and  C_2
REMARK    2  A    between atoms: C_2  and  O_3
REMARK    3  A    between atoms: O_3  and  C_4
REMARK    4  A    between atoms: C_4  and  C_6
REMARK    5  A    between atoms: C_9  and  N_10
REMARK    6  A    between atoms: C_14  and  C_15
REMARK    7  A    between atoms: N_16  and  C_17
REMARK    8  A    between atoms: C_17  and  C_18
REMARK                            x       y       z     vdW  Elec       q    Type
REMARK                         _______ _______ _______ _____ _____    ______ ____
ROOT
ATOM      1  C   UNL     1       0.344   9.898  19.243  0.00  0.00    +0.000 A 
ATOM      2  C   UNL     1       0.904   9.491  18.027  0.00  0.00    +0.000 A 
ATOM      3  C   UNL     1       1.856   8.459  18.002  0.00  0.00    +0.000 A 
ATOM      4  C   UNL     1       2.262   7.809  19.176  0.00  0.00    +0.000 A 
ATOM      5  C   UNL     1       1.620   8.175  20.365  0.00  0.00    +0.000 A 
ATOM      6  C   UNL     1       0.709   9.235  20.412  0.00  0.00    +0.000 A 
ENDROOT
BRANCH   4   7
ATOM      7  N   UNL     1       3.204   6.767  19.057  0.00  0.00    +0.000 NA
ATOM      8  C   UNL     1       3.075   5.576  19.551  0.00  0.00    +0.000 A 
ATOM      9  S   UNL     1       1.685   4.965  20.514  0.00  0.00    +0.000 S 
ATOM     10  C   UNL     1       2.302   3.347  20.490  0.00  0.00    +0.000 A 
ATOM     11  C   UNL     1       3.522   3.285  19.933  0.00  0.00    +0.000 A 
ATOM     12  C   UNL     1       4.304   2.016  19.841  0.00  0.00    +0.000 C 
ATOM     13  N   UNL     1       3.987   4.515  19.428  0.00  0.00    +0.000 N 
BRANCH  13  14
ATOM     14  C   UNL     1       5.321   4.726  18.872  0.00  0.00    +0.000 C 
ATOM     15  C   UNL     1       5.334   4.475  17.374  0.00  0.00    +0.000 C 
ENDBRANCH  13  14
ENDBRANCH   4   7
BRANCH   1  16
ATOM     16  C   UNL     1      -0.720  10.930  19.336  0.00  0.00    +0.000 C 
ATOM     17  O   UNL     1      -1.156  11.339  20.402  0.00  0.00    +0.000 OA
BRANCH  16  18
ATOM     18  O   UNL     1      -1.156  11.275  18.100  0.00  0.00    +0.000 OA
BRANCH  18  20
ATOM     19  C   UNL     1      -2.928   9.814  17.477  0.00  0.00    +0.000 C 
ATOM     20  C   UNL     1      -2.579  11.222  17.922  0.00  0.00    +0.000 C 
ENDBRANCH  18  20
ENDBRANCH  16  18
ENDBRANCH   1  16
TORSDOF 5
ENDMDL
MODEL 5
REMARK VINA RESULT:      -5.8      4.326      6.213
REMARK  Name = 
REMARK  8 active torsions:
REMARK  status: ('A' for Active; 'I' for Inactive)
REMARK    1  A    between atoms: C_1  and  C_2
REMARK    2  A    between atoms: C_2  and  O_3
REMARK    3  A    between atoms: O_3  and  C_4
REMARK    4  A    between atoms: C_4  and  C_6
REMARK    5  A    between atoms: C_9  and  N_10
REMARK    6  A    between atoms: C_14  and  C_15
REMARK    7  A    between atoms: N_16  and  C_17
REMARK    8  A    between atoms: C_17  and  C_18
REMARK                            x       y       z     vdW  Elec       q    Type
REMARK                         _______ _______ _______ _____ _____    ______ ____
ROOT
ATOM      1  C   UNL     1       4.264   5.695  18.410  0.00  0.00    +0.000 A 
ATOM      2  C   UNL     1       4.240   6.739  17.477  0.00  0.00    +0.000 A 
ATOM      3  C   UNL     1       3.285   7.762  17.593  0.00  0.00    +0.000 A 
ATOM      4  C   UNL     1       2.347   7.775  18.635  0.00  0.00    +0.000 A 
ATOM      5  C   UNL     1       2.452   6.768  19.603  0.00  0.00    +0.000 A 
ATOM      6  C   UNL     1       3.363   5.715  19.472  0.00  0.00    +0.000 A 
ENDROOT
BRANCH   4   7
ATOM      7  N   UNL     1       1.442   8.853  18.690  0.00  0.00    +0.000 NA
ATOM      8  C   UNL     1       0.892   9.321  19.766  0.00  0.00    +0.000 A 
ATOM      9  S   UNL     1       1.132   8.707  21.439  0.00  0.00    +0.000 S 
ATOM     10  C   UNL     1       0.241  10.030  22.116  0.00  0.00    +0.000 A 
ATOM     11  C   UNL     1      -0.318  10.795  21.165  0.00  0.00    +0.000 A 
ATOM     12  C   UNL     1      -1.189  11.967  21.480  0.00  0.00    +0.000 C 
ATOM     13  N   UNL     1       0.005  10.406  19.850  0.00  0.00    +0.000 N 
BRANCH  13  14
ATOM     14  C   UNL     1      -0.562  11.014  18.648  0.00  0.00    +0.000 C 
ATOM     15  C   UNL     1      -1.774  10.238  18.165  0.00  0.00    +0.000 C 
ENDBRANCH  13  14
ENDBRANCH   4   7
BRANCH   1  16
ATOM     16  C   UNL     1       5.289   4.621  18.392  0.00  0.00    +0.000 C 
ATOM     17  O   UNL     1       5.275   3.677  19.168  0.00  0.00    +0.000 OA
BRANCH  16  18
ATOM     18  O   UNL     1       6.239   4.887  17.462  0.00  0.00    +0.000 OA
BRANCH  18  20
ATOM     19  C   UNL     1       7.827   6.020  18.825  0.00  0.00    +0.000 C 
ATOM     20  C   UNL     1       7.591   4.812  17.938  0.00  0.00    +0.000 C 
ENDBRANCH  18  20
ENDBRANCH  16  18
ENDBRANCH   1  16
TORSDOF 5
ENDMDL
MODEL 6
REMARK VINA RESULT:      -5.8      5.092      7.514
REMARK  Name = 
REMARK  8 active torsions:
REMARK  status: ('A' for Active; 'I' for Inactive)
REMARK    1  A    between atoms: C_1  and  C_2
REMARK    2  A    between atoms: C_2  and  O_3
REMARK    3  A    between atoms: O_3  and  C_4
REMARK    4  A    between atoms: C_4  and  C_6
REMARK    5  A    between atoms: C_9  and  N_10
REMARK    6  A    between atoms: C_14  and  C_15
REMARK    7  A    between atoms: N_16  and  C_17
REMARK    8  A    between atoms: C_17  and  C_18
REMARK                            x       y       z     vdW  Elec       q    Type
REMARK                         _______ _______ _______ _____ _____    ______ ____
ROOT
ATOM      1  C   UNL     1       0.313   9.852  19.309  0.00  0.00    +0.000 A 
ATOM      2  C   UNL     1       0.772   9.174  20.444  0.00  0.00    +0.000 A 
ATOM      3  C   UNL     1       1.724   8.150  20.315  0.00  0.00    +0.000 A 
ATOM      4  C   UNL     1       2.243   7.787  19.064  0.00  0.00    +0.000 A 
ATOM      5  C   UNL     1       1.834   8.541  17.958  0.00  0.00    +0.000 A 
ATOM      6  C   UNL     1       0.848   9.527  18.064  0.00  0.00    +0.000 A 
ENDROOT
BRANCH   4   7
ATOM      7  N   UNL     1       3.214   6.766  19.029  0.00  0.00    +0.000 NA
ATOM      8  C   UNL     1       3.075   5.578  19.528  0.00  0.00    +0.000 A 
ATOM      9  S   UNL     1       1.631   4.947  20.394  0.00  0.00    +0.000 S 
ATOM     10  C   UNL     1       2.283   3.343  20.438  0.00  0.00    +0.000 A 
ATOM     11  C   UNL     1       3.543   3.303  19.973  0.00  0.00    +0.000 A 
ATOM     12  C   UNL     1       4.357   2.051  19.956  0.00  0.00    +0.000 C 
ATOM     13  N   UNL     1       4.016   4.537  19.487  0.00  0.00    +0.000 N 
BRANCH  13  14
ATOM     14  C   UNL     1       5.384   4.772  19.028  0.00  0.00    +0.000 C 
ATOM     15  C   UNL     1       5.512   4.504  17.539  0.00  0.00    +0.000 C 
ENDBRANCH  13  14
ENDBRANCH   4   7
BRANCH   1  16
ATOM     16  C   UNL     1      -0.636  10.991  19.378  0.00  0.00    +0.000 C 
ATOM     17  O   UNL     1      -0.909  11.566  20.421  0.00  0.00    +0.000 OA
BRANCH  16  18
ATOM     18  O   UNL     1      -1.180  11.231  18.159  0.00  0.00    +0.000 OA
BRANCH  18  20
ATOM     19  C   UNL     1      -2.955   9.864  17.359  0.00  0.00    +0.000 C 
ATOM     20  C   UNL     1      -2.611  11.140  18.105  0.00  0.00    +0.000 C 
ENDBRANCH  18  20
ENDBRANCH  16  18
ENDBRANCH   1  16
TORSDOF 5
ENDMDL
MODEL 7
REMARK VINA RESULT:      -5.8      4.981      7.447
REMARK  Name = 
REMARK  8 active torsions:
REMARK  status: ('A' for Active; 'I' for Inactive)
REMARK    1  A    between atoms: C_1  and  C_2
REMARK    2  A    between atoms: C_2  and  O_3
REMARK    3  A    between atoms: O_3  and  C_4
REMARK    4  A    between atoms: C_4  and  C_6
REMARK    5  A    between atoms: C_9  and  N_10
REMARK    6  A    between atoms: C_14  and  C_15
REMARK    7  A    between atoms: N_16  and  C_17
REMARK    8  A    between atoms: C_17  and  C_18
REMARK                            x       y       z     vdW  Elec       q    Type
REMARK                         _______ _______ _______ _____ _____    ______ ____
ROOT
ATOM      1  C   UNL     1       0.815   9.716  19.408  0.00  0.00    +0.000 A 
ATOM      2  C   UNL     1       1.264   9.416  18.117  0.00  0.00    +0.000 A 
ATOM      3  C   UNL     1       2.070   8.287  17.898  0.00  0.00    +0.000 A 
ATOM      4  C   UNL     1       2.435   7.433  18.949  0.00  0.00    +0.000 A 
ATOM      5  C   UNL     1       1.899   7.707  20.212  0.00  0.00    +0.000 A 
ATOM      6  C   UNL     1       1.140   8.856  20.455  0.00  0.00    +0.000 A 
ENDROOT
BRANCH   4   7
ATOM      7  N   UNL     1       3.225   6.309  18.635  0.00  0.00    +0.000 NA
ATOM      8  C   UNL     1       2.917   5.077  18.895  0.00  0.00    +0.000 A 
ATOM      9  S   UNL     1       1.429   4.501  19.724  0.00  0.00    +0.000 S 
ATOM     10  C   UNL     1       1.813   2.845  19.394  0.00  0.00    +0.000 A 
ATOM     11  C   UNL     1       3.028   2.715  18.836  0.00  0.00    +0.000 A 
ATOM     12  C   UNL     1       3.627   1.387  18.507  0.00  0.00    +0.000 C 
ATOM     13  N   UNL     1       3.674   3.938  18.574  0.00  0.00    +0.000 N 
BRANCH  13  14
ATOM     14  C   UNL     1       5.040   4.057  18.070  0.00  0.00    +0.000 C 
ATOM     15  C   UNL     1       5.058   4.109  16.552  0.00  0.00    +0.000 C 
ENDBRANCH  13  14
ENDBRANCH   4   7
BRANCH   1  16
ATOM     16  C   UNL     1      -0.098  10.850  19.702  0.00  0.00    +0.000 C 
ATOM     17  O   UNL     1      -0.816  10.885  20.689  0.00  0.00    +0.000 OA
BRANCH  16  18
ATOM     18  O   UNL     1      -0.055  11.765  18.702  0.00  0.00    +0.000 OA
BRANCH  18  20
ATOM     19  C   UNL     1       1.846  13.143  18.319  0.00  0.00    +0.000 C 
ATOM     20  C   UNL     1       0.527  13.027  19.059  0.00  0.00    +0.000 C 
ENDBRANCH  18  20
ENDBRANCH  16  18
ENDBRANCH   1  16
TORSDOF 5
ENDMDL
MODEL 8
REMARK VINA RESULT:      -5.8      4.829      7.734
REMARK  Name = 
REMARK  8 active torsions:
REMARK  status: ('A' for Active; 'I' for Inactive)
REMARK    1  A    between atoms: C_1  and  C_2
REMARK    2  A    between atoms: C_2  and  O_3
REMARK    3  A    between atoms: O_3  and  C_4
REMARK    4  A    between atoms: C_4  and  C_6
REMARK    5  A    between atoms: C_9  and  N_10
REMARK    6  A    between atoms: C_14  and  C_15
REMARK    7  A    between atoms: N_16  and  C_17
REMARK    8  A    between atoms: C_17  and  C_18
REMARK                            x       y       z     vdW  Elec       q    Type
REMARK                         _______ _______ _______ _____ _____    ______ ____
ROOT
ATOM      1  C   UNL     1       0.844   9.684  19.431  0.00  0.00    +0.000 A 
ATOM      2  C   UNL     1       1.271   8.753  20.385  0.00  0.00    +0.000 A 
ATOM      3  C   UNL     1       2.040   7.645  19.991  0.00  0.00    +0.000 A 
ATOM      4  C   UNL     1       2.405   7.446  18.652  0.00  0.00    +0.000 A 
ATOM      5  C   UNL     1       2.040   8.439  17.734  0.00  0.00    +0.000 A 
ATOM      6  C   UNL     1       1.231   9.518  18.103  0.00  0.00    +0.000 A 
ENDROOT
BRANCH   4   7
ATOM      7  N   UNL     1       3.199   6.322  18.349  0.00  0.00    +0.000 NA
ATOM      8  C   UNL     1       2.919   5.096  18.663  0.00  0.00    +0.000 A 
ATOM      9  S   UNL     1       1.471   4.531  19.567  0.00  0.00    +0.000 S 
ATOM     10  C   UNL     1       1.866   2.869  19.282  0.00  0.00    +0.000 A 
ATOM     11  C   UNL     1       3.062   2.736  18.684  0.00  0.00    +0.000 A 
ATOM     12  C   UNL     1       3.667   1.405  18.379  0.00  0.00    +0.000 C 
ATOM     13  N   UNL     1       3.680   3.957  18.354  0.00  0.00    +0.000 N 
BRANCH  13  14
ATOM     14  C   UNL     1       5.024   4.076  17.795  0.00  0.00    +0.000 C 
ATOM     15  C   UNL     1       4.985   4.081  16.277  0.00  0.00    +0.000 C 
ENDBRANCH  13  14
ENDBRANCH   4   7
BRANCH   1  16
ATOM     16  C   UNL     1       0.092  10.914  19.785  0.00  0.00    +0.000 C 
ATOM     17  O   UNL     1       0.435  12.029  19.420  0.00  0.00    +0.000 OA
BRANCH  16  18
ATOM     18  O   UNL     1      -0.949  10.617  20.601  0.00  0.00    +0.000 OA
BRANCH  18  20
ATOM     19  C   UNL     1      -0.785  10.722  22.972  0.00  0.00    +0.000 C 
ATOM     20  C   UNL     1      -1.119  11.504  21.716  0.00  0.00    +0.000 C 
ENDBRANCH  18  20
ENDBRANCH  16  18
ENDBRANCH   1  16
TORSDOF 5
ENDMDL
MODEL 9
REMARK VINA RESULT:      -5.7      4.987      7.467
REMARK  Name = 
REMARK  8 active torsions:
REMARK  status: ('A' for Active; 'I' for Inactive)
REMARK    1  A    between atoms: C_1  and  C_2
REMARK    2  A    between atoms: C_2  and  O_3
REMARK    3  A    between atoms: O_3  and  C_4
REMARK    4  A    between atoms: C_4  and  C_6
REMARK    5  A    between atoms: C_9  and  N_10
REMARK    6  A    between atoms: C_14  and  C_15
REMARK    7  A    between atoms: N_16  and  C_17
REMARK    8  A    between atoms: C_17  and  C_18
REMARK                            x       y       z     vdW  Elec       q    Type
REMARK                         _______ _______ _______ _____ _____    ______ ____
ROOT
ATOM      1  C   UNL     1       0.791   9.638  19.467  0.00  0.00    +0.000 A 
ATOM      2  C   UNL     1       1.220   8.735  20.447  0.00  0.00    +0.000 A 
ATOM      3  C   UNL     1       2.013   7.633  20.089  0.00  0.00    +0.000 A 
ATOM      4  C   UNL     1       2.402   7.412  18.759  0.00  0.00    +0.000 A 
ATOM      5  C   UNL     1       2.034   8.378  17.815  0.00  0.00    +0.000 A 
ATOM      6  C   UNL     1       1.200   9.451  18.148  0.00  0.00    +0.000 A 
ENDROOT
BRANCH   4   7
ATOM      7  N   UNL     1       3.219   6.296  18.492  0.00  0.00    +0.000 NA
ATOM      8  C   UNL     1       2.917   5.063  18.752  0.00  0.00    +0.000 A 
ATOM      9  S   UNL     1       1.403   4.475  19.524  0.00  0.00    +0.000 S 
ATOM     10  C   UNL     1       1.823   2.821  19.230  0.00  0.00    +0.000 A 
ATOM     11  C   UNL     1       3.062   2.702  18.725  0.00  0.00    +0.000 A 
ATOM     12  C   UNL     1       3.693   1.379  18.437  0.00  0.00    +0.000 C 
ATOM     13  N   UNL     1       3.702   3.931  18.477  0.00  0.00    +0.000 N 
BRANCH  13  14
ATOM     14  C   UNL     1       5.087   4.064  18.029  0.00  0.00    +0.000 C 
ATOM     15  C   UNL     1       5.169   4.098  16.513  0.00  0.00    +0.000 C 
ENDBRANCH  13  14
ENDBRANCH   4   7
BRANCH   1  16
ATOM     16  C   UNL     1       0.013  10.862  19.783  0.00  0.00    +0.000 C 
ATOM     17  O   UNL     1       0.475  11.795  20.423  0.00  0.00    +0.000 OA
BRANCH  16  18
ATOM     18  O   UNL     1      -1.258  10.748  19.327  0.00  0.00    +0.000 OA
BRANCH  18  20
ATOM     19  C   UNL     1      -2.997  11.416  17.846  0.00  0.00    +0.000 C 
ATOM     20  C   UNL     1      -1.724  11.857  18.544  0.00  0.00    +0.000 C 
ENDBRANCH  18  20
ENDBRANCH  16  18
ENDBRANCH   1  16
TORSDOF 5
ENDMDL
