MODEL 1
REMARK VINA RESULT:      -9.1      0.000      0.000
REMARK  Name = 
REMARK  5 active torsions:
REMARK  status: ('A' for Active; 'I' for Inactive)
REMARK    1  A    between atoms: C_2  and  C_21
REMARK    2  A    between atoms: N_3  and  C_4
REMARK    3  A    between atoms: C_4  and  C_5
REMARK    4  A    between atoms: C_5  and  C_6
REMARK    5  A    between atoms: C_5  and  N_11
REMARK                            x       y       z     vdW  Elec       q    Type
REMARK                         _______ _______ _______ _____ _____    ______ ____
ROOT
ATOM      1  C   UNL     1       6.380   6.082  18.252  0.00  0.00    +0.000 C 
ENDROOT
BRANCH   1   2
ATOM      2  N   UNL     1       5.475   5.345  19.167  0.00  0.00    +0.000 NA
ATOM      3  C   UNL     1       5.598   3.877  19.046  0.00  0.00    +0.000 C 
ATOM      4  C   UNL     1       4.392   3.143  18.427  0.00  0.00    +0.000 C 
ATOM      5  C   UNL     1       3.149   3.527  19.179  0.00  0.00    +0.000 A 
ATOM      6  C   UNL     1       2.122   2.623  19.460  0.00  0.00    +0.000 A 
ATOM      7  C   UNL     1       0.997   3.051  20.164  0.00  0.00    +0.000 A 
ATOM      8  C   UNL     1       0.892   4.379  20.584  0.00  0.00    +0.000 A 
ATOM      9  C   UNL     1       1.906   5.288  20.286  0.00  0.00    +0.000 A 
ATOM     10  C   UNL     1       3.038   4.867  19.583  0.00  0.00    +0.000 A 
ATOM     11  C   UNL     1       4.087   5.845  19.113  0.00  0.00    +0.000 C 
ENDBRANCH   1   2
BRANCH   1  12
ATOM     12  C   UNL     1       6.234   5.605  16.821  0.00  0.00    +0.000 A 
ATOM     13  C   UNL     1       5.212   5.664  15.893  0.00  0.00    +0.000 A 
ATOM     14  C   UNL     1       5.694   5.024  14.723  0.00  0.00    +0.000 A 
ATOM     15  C   UNL     1       6.974   4.615  15.005  0.00  0.00    +0.000 A 
ATOM     16  O   UNL     1       7.309   4.961  16.273  0.00  0.00    +0.000 OA
ENDBRANCH   1  12
BRANCH   1  17
ATOM     17  C   UNL     1       7.876   6.087  18.682  0.00  0.00    +0.000 C 
BRANCH  17  20
ATOM     18  O   UNL     1       7.847   8.235  16.904  0.00  0.00    +0.000 OA
ATOM     19  C   UNL     1       8.283   8.410  18.035  0.00  0.00    +0.000 C 
ATOM     20  N   UNL     1       8.396   7.413  18.980  0.00  0.00    +0.000 N 
ATOM     21  H   UNL     1       8.400   7.701  19.952  0.00  0.00    +0.000 HD
BRANCH  19  22
ATOM     22  C   UNL     1       8.695   9.764  18.481  0.00  0.00    +0.000 A 
ATOM     23  C   UNL     1       8.493  10.851  17.625  0.00  0.00    +0.000 A 
ATOM     24  C   UNL     1       8.879  12.133  18.026  0.00  0.00    +0.000 A 
ATOM     25  C   UNL     1       9.474  12.319  19.272  0.00  0.00    +0.000 A 
ATOM     26 CL   UNL     1       9.953  13.896  19.765  0.00  0.00    +0.000 Cl
ATOM     27  C   UNL     1       9.692  11.236  20.125  0.00  0.00    +0.000 A 
ATOM     28  C   UNL     1       9.304   9.953  19.727  0.00  0.00    +0.000 A 
ENDBRANCH  19  22
ENDBRANCH  17  20
ENDBRANCH   1  17
TORSDOF 5
ENDMDL
MODEL 2
REMARK VINA RESULT:      -9.0      4.291      7.285
REMARK  Name = 
REMARK  5 active torsions:
REMARK  status: ('A' for Active; 'I' for Inactive)
REMARK    1  A    between atoms: C_2  and  C_21
REMARK    2  A    between atoms: N_3  and  C_4
REMARK    3  A    between atoms: C_4  and  C_5
REMARK    4  A    between atoms: C_5  and  C_6
REMARK    5  A    between atoms: C_5  and  N_11
REMARK                            x       y       z     vdW  Elec       q    Type
REMARK                         _______ _______ _______ _____ _____    ______ ____
ROOT
ATOM      1  C   UNL     1       3.432   5.417  19.555  0.00  0.00    +0.000 C 
ENDROOT
BRANCH   1   2
ATOM      2  N   UNL     1       4.440   4.781  18.671  0.00  0.00    +0.000 NA
ATOM      3  C   UNL     1       5.820   5.232  18.948  0.00  0.00    +0.000 C 
ATOM      4  C   UNL     1       6.479   6.107  17.864  0.00  0.00    +0.000 C 
ATOM      5  C   UNL     1       6.391   5.395  16.542  0.00  0.00    +0.000 A 
ATOM      6  C   UNL     1       7.417   5.424  15.596  0.00  0.00    +0.000 A 
ATOM      7  C   UNL     1       7.265   4.738  14.391  0.00  0.00    +0.000 A 
ATOM      8  C   UNL     1       6.091   4.030  14.127  0.00  0.00    +0.000 A 
ATOM      9  C   UNL     1       5.057   4.018  15.062  0.00  0.00    +0.000 A 
ATOM     10  C   UNL     1       5.202   4.700  16.273  0.00  0.00    +0.000 A 
ATOM     11  C   UNL     1       4.056   4.836  17.247  0.00  0.00    +0.000 C 
ENDBRANCH   1   2
BRANCH   1  12
ATOM     12  C   UNL     1       2.496   4.389  20.158  0.00  0.00    +0.000 A 
ATOM     13  C   UNL     1       2.253   3.957  21.447  0.00  0.00    +0.000 A 
ATOM     14  C   UNL     1       1.253   2.955  21.356  0.00  0.00    +0.000 A 
ATOM     15  C   UNL     1       0.948   2.837  20.022  0.00  0.00    +0.000 A 
ATOM     16  O   UNL     1       1.696   3.699  19.289  0.00  0.00    +0.000 OA
ENDBRANCH   1  12
BRANCH   1  17
ATOM     17  C   UNL     1       2.629   6.576  18.896  0.00  0.00    +0.000 C 
BRANCH  17  20
ATOM     18  O   UNL     1       1.909   9.229  18.426  0.00  0.00    +0.000 OA
ATOM     19  C   UNL     1       1.590   8.710  19.488  0.00  0.00    +0.000 C 
ATOM     20  N   UNL     1       1.935   7.426  19.853  0.00  0.00    +0.000 N 
ATOM     21  H   UNL     1       1.340   6.967  20.533  0.00  0.00    +0.000 HD
BRANCH  19  22
ATOM     22  C   UNL     1       0.750   9.448  20.463  0.00  0.00    +0.000 A 
ATOM     23  C   UNL     1       0.670   8.981  21.780  0.00  0.00    +0.000 A 
ATOM     24  C   UNL     1      -0.119   9.659  22.712  0.00  0.00    +0.000 A 
ATOM     25  C   UNL     1      -0.833  10.792  22.322  0.00  0.00    +0.000 A 
ATOM     26 CL   UNL     1      -1.808  11.626  23.467  0.00  0.00    +0.000 Cl
ATOM     27  C   UNL     1      -0.769  11.254  21.006  0.00  0.00    +0.000 A 
ATOM     28  C   UNL     1       0.023  10.578  20.073  0.00  0.00    +0.000 A 
ENDBRANCH  19  22
ENDBRANCH  17  20
ENDBRANCH   1  17
TORSDOF 5
ENDMDL
MODEL 3
REMARK VINA RESULT:      -9.0      4.305      7.243
REMARK  Name = 
REMARK  5 active torsions:
REMARK  status: ('A' for Active; 'I' for Inactive)
REMARK    1  A    between atoms: C_2  and  C_21
REMARK    2  A    between atoms: N_3  and  C_4
REMARK    3  A    between atoms: C_4  and  C_5
REMARK    4  A    between atoms: C_5  and  C_6
REMARK    5  A    between atoms: C_5  and  N_11
REMARK                            x       y       z     vdW  Elec       q    Type
REMARK                         _______ _______ _______ _____ _____    ______ ____
ROOT
ATOM      1  C   UNL     1       3.479   5.518  19.539  0.00  0.00    +0.000 C 
ENDROOT
BRANCH   1   2
ATOM      2  N   UNL     1       4.480   4.864  18.660  0.00  0.00    +0.000 NA
ATOM      3  C   UNL     1       5.863   5.318  18.916  0.00  0.00    +0.000 C 
ATOM      4  C   UNL     1       6.513   6.171  17.810  0.00  0.00    +0.000 C 
ATOM      5  C   UNL     1       6.414   5.433  16.503  0.00  0.00    +0.000 A 
ATOM      6  C   UNL     1       7.431   5.442  15.548  0.00  0.00    +0.000 A 
ATOM      7  C   UNL     1       7.268   4.732  14.358  0.00  0.00    +0.000 A 
ATOM      8  C   UNL     1       6.092   4.020  14.118  0.00  0.00    +0.000 A 
ATOM      9  C   UNL     1       5.066   4.028  15.061  0.00  0.00    +0.000 A 
ATOM     10  C   UNL     1       5.221   4.734  16.257  0.00  0.00    +0.000 A 
ATOM     11  C   UNL     1       4.084   4.891  17.238  0.00  0.00    +0.000 C 
ENDBRANCH   1   2
BRANCH   1  12
ATOM     12  C   UNL     1       2.482   4.518  20.086  0.00  0.00    +0.000 A 
ATOM     13  C   UNL     1       1.328   3.947  19.587  0.00  0.00    +0.000 A 
ATOM     14  C   UNL     1       0.836   3.081  20.597  0.00  0.00    +0.000 A 
ATOM     15  C   UNL     1       1.716   3.175  21.647  0.00  0.00    +0.000 A 
ATOM     16  O   UNL     1       2.715   4.043  21.349  0.00  0.00    +0.000 OA
ENDBRANCH   1  12
BRANCH   1  17
ATOM     17  C   UNL     1       2.748   6.734  18.899  0.00  0.00    +0.000 C 
BRANCH  17  20
ATOM     18  O   UNL     1       1.737   9.277  18.359  0.00  0.00    +0.000 OA
ATOM     19  C   UNL     1       1.538   8.784  19.462  0.00  0.00    +0.000 C 
ATOM     20  N   UNL     1       2.033   7.560  19.860  0.00  0.00    +0.000 N 
ATOM     21  H   UNL     1       1.530   7.080  20.598  0.00  0.00    +0.000 HD
BRANCH  19  22
ATOM     22  C   UNL     1       0.690   9.485  20.457  0.00  0.00    +0.000 A 
ATOM     23  C   UNL     1      -0.045  10.605  20.055  0.00  0.00    +0.000 A 
ATOM     24  C   UNL     1      -0.845  11.281  20.978  0.00  0.00    +0.000 A 
ATOM     25  C   UNL     1      -0.899  10.843  22.300  0.00  0.00    +0.000 A 
ATOM     26 CL   UNL     1      -1.881  11.676  23.440  0.00  0.00    +0.000 Cl
ATOM     27  C   UNL     1      -0.156   9.736  22.712  0.00  0.00    +0.000 A 
ATOM     28  C   UNL     1       0.643   9.055  21.789  0.00  0.00    +0.000 A 
ENDBRANCH  19  22
ENDBRANCH  17  20
ENDBRANCH   1  17
TORSDOF 5
ENDMDL
MODEL 4
REMARK VINA RESULT:      -9.0      4.485      7.025
REMARK  Name = 
REMARK  5 active torsions:
REMARK  status: ('A' for Active; 'I' for Inactive)
REMARK    1  A    between atoms: C_2  and  C_21
REMARK    2  A    between atoms: N_3  and  C_4
REMARK    3  A    between atoms: C_4  and  C_5
REMARK    4  A    between atoms: C_5  and  C_6
REMARK    5  A    between atoms: C_5  and  N_11
REMARK                            x       y       z     vdW  Elec       q    Type
REMARK                         _______ _______ _______ _____ _____    ______ ____
ROOT
ATOM      1  C   UNL     1       4.010   4.901  18.084  0.00  0.00    +0.000 C 
ENDROOT
BRANCH   1   2
ATOM      2  N   UNL     1       4.962   4.306  17.114  0.00  0.00    +0.000 NA
ATOM      3  C   UNL     1       6.346   4.798  17.283  0.00  0.00    +0.000 C 
ATOM      4  C   UNL     1       6.886   5.702  16.158  0.00  0.00    +0.000 C 
ATOM      5  C   UNL     1       6.713   4.999  14.840  0.00  0.00    +0.000 A 
ATOM      6  C   UNL     1       7.656   5.069  13.814  0.00  0.00    +0.000 A 
ATOM      7  C   UNL     1       7.427   4.388  12.618  0.00  0.00    +0.000 A 
ATOM      8  C   UNL     1       6.259   3.646  12.442  0.00  0.00    +0.000 A 
ATOM      9  C   UNL     1       5.305   3.593  13.458  0.00  0.00    +0.000 A 
ATOM     10  C   UNL     1       5.527   4.268  14.661  0.00  0.00    +0.000 A 
ATOM     11  C   UNL     1       4.461   4.360  15.727  0.00  0.00    +0.000 C 
ENDBRANCH   1   2
BRANCH   1  12
ATOM     12  C   UNL     1       2.885   3.943  18.418  0.00  0.00    +0.000 A 
ATOM     13  C   UNL     1       1.594   3.785  17.954  0.00  0.00    +0.000 A 
ATOM     14  C   UNL     1       1.035   2.701  18.678  0.00  0.00    +0.000 A 
ATOM     15  C   UNL     1       2.013   2.265  19.537  0.00  0.00    +0.000 A 
ATOM     16  O   UNL     1       3.137   3.011  19.388  0.00  0.00    +0.000 OA
ENDBRANCH   1  12
BRANCH   1  17
ATOM     17  C   UNL     1       3.447   6.292  17.671  0.00  0.00    +0.000 C 
BRANCH  17  20
ATOM     18  O   UNL     1       2.274   8.811  17.432  0.00  0.00    +0.000 OA
ATOM     19  C   UNL     1       2.195   8.222  18.502  0.00  0.00    +0.000 C 
ATOM     20  N   UNL     1       2.779   6.999  18.754  0.00  0.00    +0.000 N 
ATOM     21  H   UNL     1       2.366   6.436  19.488  0.00  0.00    +0.000 HD
BRANCH  19  22
ATOM     22  C   UNL     1       1.404   8.795  19.619  0.00  0.00    +0.000 A 
ATOM     23  C   UNL     1       0.572   9.891  19.370  0.00  0.00    +0.000 A 
ATOM     24  C   UNL     1      -0.177  10.447  20.410  0.00  0.00    +0.000 A 
ATOM     25  C   UNL     1      -0.082   9.913  21.694  0.00  0.00    +0.000 A 
ATOM     26 CL   UNL     1      -1.001  10.599  22.976  0.00  0.00    +0.000 Cl
ATOM     27  C   UNL     1       0.758   8.830  21.953  0.00  0.00    +0.000 A 
ATOM     28  C   UNL     1       1.506   8.269  20.913  0.00  0.00    +0.000 A 
ENDBRANCH  19  22
ENDBRANCH  17  20
ENDBRANCH   1  17
TORSDOF 5
ENDMDL
MODEL 5
REMARK VINA RESULT:      -8.9      3.523      5.553
REMARK  Name = 
REMARK  5 active torsions:
REMARK  status: ('A' for Active; 'I' for Inactive)
REMARK    1  A    between atoms: C_2  and  C_21
REMARK    2  A    between atoms: N_3  and  C_4
REMARK    3  A    between atoms: C_4  and  C_5
REMARK    4  A    between atoms: C_5  and  C_6
REMARK    5  A    between atoms: C_5  and  N_11
REMARK                            x       y       z     vdW  Elec       q    Type
REMARK                         _______ _______ _______ _____ _____    ______ ____
ROOT
ATOM      1  C   UNL     1       4.892   5.946  17.030  0.00  0.00    +0.000 C 
ENDROOT
BRANCH   1   2
ATOM      2  N   UNL     1       4.385   4.807  17.836  0.00  0.00    +0.000 NA
ATOM      3  C   UNL     1       3.432   3.953  17.096  0.00  0.00    +0.000 C 
ATOM      4  C   UNL     1       1.967   4.004  17.570  0.00  0.00    +0.000 C 
ATOM      5  C   UNL     1       1.921   3.722  19.047  0.00  0.00    +0.000 A 
ATOM      6  C   UNL     1       0.910   2.968  19.645  0.00  0.00    +0.000 A 
ATOM      7  C   UNL     1       0.935   2.747  21.022  0.00  0.00    +0.000 A 
ATOM      8  C   UNL     1       1.961   3.282  21.803  0.00  0.00    +0.000 A 
ATOM      9  C   UNL     1       2.960   4.054  21.211  0.00  0.00    +0.000 A 
ATOM     10  C   UNL     1       2.945   4.277  19.831  0.00  0.00    +0.000 A 
ATOM     11  C   UNL     1       3.919   5.225  19.172  0.00  0.00    +0.000 C 
ENDBRANCH   1   2
BRANCH   1  12
ATOM     12  C   UNL     1       6.204   6.471  17.575  0.00  0.00    +0.000 A 
ATOM     13  C   UNL     1       7.120   5.992  18.491  0.00  0.00    +0.000 A 
ATOM     14  C   UNL     1       8.151   6.962  18.577  0.00  0.00    +0.000 A 
ATOM     15  C   UNL     1       7.804   7.971  17.713  0.00  0.00    +0.000 A 
ATOM     16  O   UNL     1       6.626   7.684  17.103  0.00  0.00    +0.000 OA
ENDBRANCH   1  12
BRANCH   1  17
ATOM     17  C   UNL     1       3.872   7.106  16.832  0.00  0.00    +0.000 C 
BRANCH  17  20
ATOM     18  O   UNL     1       2.214   9.336  17.066  0.00  0.00    +0.000 OA
ATOM     19  C   UNL     1       2.365   8.608  18.039  0.00  0.00    +0.000 C 
ATOM     20  N   UNL     1       3.200   7.510  18.058  0.00  0.00    +0.000 N 
ATOM     21  H   UNL     1       2.984   6.783  18.729  0.00  0.00    +0.000 HD
BRANCH  19  22
ATOM     22  C   UNL     1       1.603   8.853  19.287  0.00  0.00    +0.000 A 
ATOM     23  C   UNL     1       1.734   7.954  20.351  0.00  0.00    +0.000 A 
ATOM     24  C   UNL     1       1.020   8.165  21.533  0.00  0.00    +0.000 A 
ATOM     25  C   UNL     1       0.171   9.264  21.642  0.00  0.00    +0.000 A 
ATOM     26 CL   UNL     1      -0.712   9.523  23.095  0.00  0.00    +0.000 Cl
ATOM     27  C   UNL     1       0.023  10.156  20.579  0.00  0.00    +0.000 A 
ATOM     28  C   UNL     1       0.739   9.949  19.396  0.00  0.00    +0.000 A 
ENDBRANCH  19  22
ENDBRANCH  17  20
ENDBRANCH   1  17
TORSDOF 5
ENDMDL
MODEL 6
REMARK VINA RESULT:      -8.9      4.514      7.107
REMARK  Name = 
REMARK  5 active torsions:
REMARK  status: ('A' for Active; 'I' for Inactive)
REMARK    1  A    between atoms: C_2  and  C_21
REMARK    2  A    between atoms: N_3  and  C_4
REMARK    3  A    between atoms: C_4  and  C_5
REMARK    4  A    between atoms: C_5  and  C_6
REMARK    5  A    between atoms: C_5  and  N_11
REMARK                            x       y       z     vdW  Elec       q    Type
REMARK                         _______ _______ _______ _____ _____    ______ ____
ROOT
ATOM      1  C   UNL     1       4.110   4.909  18.038  0.00  0.00    +0.000 C 
ENDROOT
BRANCH   1   2
ATOM      2  N   UNL     1       5.012   4.286  17.038  0.00  0.00    +0.000 NA
ATOM      3  C   UNL     1       6.422   4.704  17.187  0.00  0.00    +0.000 C 
ATOM      4  C   UNL     1       6.985   5.602  16.069  0.00  0.00    +0.000 C 
ATOM      5  C   UNL     1       6.751   4.934  14.742  0.00  0.00    +0.000 A 
ATOM      6  C   UNL     1       7.677   4.976  13.698  0.00  0.00    +0.000 A 
ATOM      7  C   UNL     1       7.391   4.332  12.495  0.00  0.00    +0.000 A 
ATOM      8  C   UNL     1       6.183   3.652  12.329  0.00  0.00    +0.000 A 
ATOM      9  C   UNL     1       5.248   3.628  13.363  0.00  0.00    +0.000 A 
ATOM     10  C   UNL     1       5.527   4.268  14.573  0.00  0.00    +0.000 A 
ATOM     11  C   UNL     1       4.488   4.392  15.662  0.00  0.00    +0.000 C 
ENDBRANCH   1   2
BRANCH   1  12
ATOM     12  C   UNL     1       2.988   3.972  18.434  0.00  0.00    +0.000 A 
ATOM     13  C   UNL     1       2.540   2.758  17.952  0.00  0.00    +0.000 A 
ATOM     14  C   UNL     1       1.431   2.389  18.754  0.00  0.00    +0.000 A 
ATOM     15  C   UNL     1       1.268   3.396  19.674  0.00  0.00    +0.000 A 
ATOM     16  O   UNL     1       2.205   4.360  19.487  0.00  0.00    +0.000 OA
ENDBRANCH   1  12
BRANCH   1  17
ATOM     17  C   UNL     1       3.549   6.302  17.627  0.00  0.00    +0.000 C 
BRANCH  17  20
ATOM     18  O   UNL     1       2.288   8.775  17.365  0.00  0.00    +0.000 OA
ATOM     19  C   UNL     1       2.245   8.203  18.447  0.00  0.00    +0.000 C 
ATOM     20  N   UNL     1       2.875   7.004  18.709  0.00  0.00    +0.000 N 
ATOM     21  H   UNL     1       2.493   6.440  19.459  0.00  0.00    +0.000 HD
BRANCH  19  22
ATOM     22  C   UNL     1       1.454   8.767  19.567  0.00  0.00    +0.000 A 
ATOM     23  C   UNL     1       1.435   8.094  20.792  0.00  0.00    +0.000 A 
ATOM     24  C   UNL     1       0.692   8.607  21.858  0.00  0.00    +0.000 A 
ATOM     25  C   UNL     1      -0.038   9.783  21.690  0.00  0.00    +0.000 A 
ATOM     26 CL   UNL     1      -0.957  10.415  22.999  0.00  0.00    +0.000 Cl
ATOM     27  C   UNL     1      -0.036  10.452  20.465  0.00  0.00    +0.000 A 
ATOM     28  C   UNL     1       0.710   9.941  19.398  0.00  0.00    +0.000 A 
ENDBRANCH  19  22
ENDBRANCH  17  20
ENDBRANCH   1  17
TORSDOF 5
ENDMDL
MODEL 7
REMARK VINA RESULT:      -8.6      1.328      2.181
REMARK  Name = 
REMARK  5 active torsions:
REMARK  status: ('A' for Active; 'I' for Inactive)
REMARK    1  A    between atoms: C_2  and  C_21
REMARK    2  A    between atoms: N_3  and  C_4
REMARK    3  A    between atoms: C_4  and  C_5
REMARK    4  A    between atoms: C_5  and  C_6
REMARK    5  A    between atoms: C_5  and  N_11
REMARK                            x       y       z     vdW  Elec       q    Type
REMARK                         _______ _______ _______ _____ _____    ______ ____
ROOT
ATOM      1  C   UNL     1       5.629   6.031  16.386  0.00  0.00    +0.000 C 
ENDROOT
BRANCH   1   2
ATOM      2  N   UNL     1       4.493   5.372  17.078  0.00  0.00    +0.000 NA
ATOM      3  C   UNL     1       3.431   6.318  17.480  0.00  0.00    +0.000 C 
ATOM      4  C   UNL     1       3.274   6.559  18.994  0.00  0.00    +0.000 C 
ATOM      5  C   UNL     1       3.115   5.233  19.685  0.00  0.00    +0.000 A 
ATOM      6  C   UNL     1       2.255   5.040  20.767  0.00  0.00    +0.000 A 
ATOM      7  C   UNL     1       2.159   3.780  21.358  0.00  0.00    +0.000 A 
ATOM      8  C   UNL     1       2.923   2.716  20.876  0.00  0.00    +0.000 A 
ATOM      9  C   UNL     1       3.800   2.912  19.809  0.00  0.00    +0.000 A 
ATOM     10  C   UNL     1       3.900   4.170  19.209  0.00  0.00    +0.000 A 
ATOM     11  C   UNL     1       4.938   4.463  18.153  0.00  0.00    +0.000 C 
ENDBRANCH   1   2
BRANCH   1  12
ATOM     12  C   UNL     1       6.039   5.269  15.143  0.00  0.00    +0.000 A 
ATOM     13  C   UNL     1       5.418   4.322  14.353  0.00  0.00    +0.000 A 
ATOM     14  C   UNL     1       6.337   3.986  13.326  0.00  0.00    +0.000 A 
ATOM     15  C   UNL     1       7.460   4.745  13.551  0.00  0.00    +0.000 A 
ATOM     16  O   UNL     1       7.290   5.523  14.649  0.00  0.00    +0.000 OA
ENDBRANCH   1  12
BRANCH   1  17
ATOM     17  C   UNL     1       6.862   6.318  17.291  0.00  0.00    +0.000 C 
BRANCH  17  20
ATOM     18  O   UNL     1       8.678   7.375  19.125  0.00  0.00    +0.000 OA
ATOM     19  C   UNL     1       8.132   8.131  18.332  0.00  0.00    +0.000 C 
ATOM     20  N   UNL     1       7.180   7.732  17.417  0.00  0.00    +0.000 N 
ATOM     21  H   UNL     1       7.070   8.307  16.590  0.00  0.00    +0.000 HD
BRANCH  19  22
ATOM     22  C   UNL     1       8.504   9.566  18.282  0.00  0.00    +0.000 A 
ATOM     23  C   UNL     1       9.574  10.018  19.061  0.00  0.00    +0.000 A 
ATOM     24  C   UNL     1       9.937  11.366  19.032  0.00  0.00    +0.000 A 
ATOM     25  C   UNL     1       9.221  12.259  18.234  0.00  0.00    +0.000 A 
ATOM     26 CL   UNL     1       9.664  13.920  18.200  0.00  0.00    +0.000 Cl
ATOM     27  C   UNL     1       8.143  11.818  17.467  0.00  0.00    +0.000 A 
ATOM     28  C   UNL     1       7.780  10.467  17.492  0.00  0.00    +0.000 A 
ENDBRANCH  19  22
ENDBRANCH  17  20
ENDBRANCH   1  17
TORSDOF 5
ENDMDL
MODEL 8
REMARK VINA RESULT:      -8.5      1.396      1.708
REMARK  Name = 
REMARK  5 active torsions:
REMARK  status: ('A' for Active; 'I' for Inactive)
REMARK    1  A    between atoms: C_2  and  C_21
REMARK    2  A    between atoms: N_3  and  C_4
REMARK    3  A    between atoms: C_4  and  C_5
REMARK    4  A    between atoms: C_5  and  C_6
REMARK    5  A    between atoms: C_5  and  N_11
REMARK                            x       y       z     vdW  Elec       q    Type
REMARK                         _______ _______ _______ _____ _____    ______ ____
ROOT
ATOM      1  C   UNL     1       6.101   6.742  16.959  0.00  0.00    +0.000 C 
ENDROOT
BRANCH   1   2
ATOM      2  N   UNL     1       5.208   6.288  18.053  0.00  0.00    +0.000 NA
ATOM      3  C   UNL     1       5.893   5.425  19.039  0.00  0.00    +0.000 C 
ATOM      4  C   UNL     1       5.470   3.943  19.053  0.00  0.00    +0.000 C 
ATOM      5  C   UNL     1       3.976   3.863  19.201  0.00  0.00    +0.000 A 
ATOM      6  C   UNL     1       3.341   2.886  19.970  0.00  0.00    +0.000 A 
ATOM      7  C   UNL     1       1.949   2.875  20.062  0.00  0.00    +0.000 A 
ATOM      8  C   UNL     1       1.191   3.832  19.385  0.00  0.00    +0.000 A 
ATOM      9  C   UNL     1       1.822   4.795  18.599  0.00  0.00    +0.000 A 
ATOM     10  C   UNL     1       3.216   4.815  18.504  0.00  0.00    +0.000 A 
ATOM     11  C   UNL     1       3.931   5.744  17.551  0.00  0.00    +0.000 C 
ENDBRANCH   1   2
BRANCH   1  12
ATOM     12  C   UNL     1       6.147   5.737  15.826  0.00  0.00    +0.000 A 
ATOM     13  C   UNL     1       5.256   4.800  15.342  0.00  0.00    +0.000 A 
ATOM     14  C   UNL     1       5.899   4.155  14.255  0.00  0.00    +0.000 A 
ATOM     15  C   UNL     1       7.139   4.734  14.142  0.00  0.00    +0.000 A 
ATOM     16  O   UNL     1       7.299   5.692  15.089  0.00  0.00    +0.000 OA
ENDBRANCH   1  12
BRANCH   1  17
ATOM     17  C   UNL     1       7.538   7.131  17.412  0.00  0.00    +0.000 C 
BRANCH  17  20
ATOM     18  O   UNL     1       8.965   8.556  19.339  0.00  0.00    +0.000 OA
ATOM     19  C   UNL     1       8.563   9.147  18.344  0.00  0.00    +0.000 C 
ATOM     20  N   UNL     1       7.804   8.561  17.354  0.00  0.00    +0.000 N 
ATOM     21  H   UNL     1       7.840   8.988  16.435  0.00  0.00    +0.000 HD
BRANCH  19  22
ATOM     22  C   UNL     1       8.914  10.571  18.122  0.00  0.00    +0.000 A 
ATOM     23  C   UNL     1      10.214  11.002  18.405  0.00  0.00    +0.000 A 
ATOM     24  C   UNL     1      10.563  12.340  18.206  0.00  0.00    +0.000 A 
ATOM     25  C   UNL     1       9.609  13.243  17.739  0.00  0.00    +0.000 A 
ATOM     26 CL   UNL     1      10.036  14.891  17.498  0.00  0.00    +0.000 Cl
ATOM     27  C   UNL     1       8.306  12.823  17.470  0.00  0.00    +0.000 A 
ATOM     28  C   UNL     1       7.955  11.483  17.665  0.00  0.00    +0.000 A 
ENDBRANCH  19  22
ENDBRANCH  17  20
ENDBRANCH   1  17
TORSDOF 5
ENDMDL
MODEL 9
REMARK VINA RESULT:      -8.2      4.270      6.884
REMARK  Name = 
REMARK  5 active torsions:
REMARK  status: ('A' for Active; 'I' for Inactive)
REMARK    1  A    between atoms: C_2  and  C_21
REMARK    2  A    between atoms: N_3  and  C_4
REMARK    3  A    between atoms: C_4  and  C_5
REMARK    4  A    between atoms: C_5  and  C_6
REMARK    5  A    between atoms: C_5  and  N_11
REMARK                            x       y       z     vdW  Elec       q    Type
REMARK                         _______ _______ _______ _____ _____    ______ ____
ROOT
ATOM      1  C   UNL     1       4.366   4.729  18.441  0.00  0.00    +0.000 C 
ENDROOT
BRANCH   1   2
ATOM      2  N   UNL     1       5.287   4.224  17.392  0.00  0.00    +0.000 NA
ATOM      3  C   UNL     1       6.633   4.833  17.460  0.00  0.00    +0.000 C 
ATOM      4  C   UNL     1       7.004   5.788  16.310  0.00  0.00    +0.000 C 
ATOM      5  C   UNL     1       6.790   5.081  15.000  0.00  0.00    +0.000 A 
ATOM      6  C   UNL     1       7.641   5.238  13.905  0.00  0.00    +0.000 A 
ATOM      7  C   UNL     1       7.379   4.548  12.721  0.00  0.00    +0.000 A 
ATOM      8  C   UNL     1       6.269   3.708  12.627  0.00  0.00    +0.000 A 
ATOM      9  C   UNL     1       5.405   3.566  13.712  0.00  0.00    +0.000 A 
ATOM     10  C   UNL     1       5.661   4.251  14.903  0.00  0.00    +0.000 A 
ATOM     11  C   UNL     1       4.678   4.244  16.049  0.00  0.00    +0.000 C 
ENDBRANCH   1   2
BRANCH   1  12
ATOM     12  C   UNL     1       4.077   3.669  19.484  0.00  0.00    +0.000 A 
ATOM     13  C   UNL     1       2.988   3.387  20.284  0.00  0.00    +0.000 A 
ATOM     14  C   UNL     1       3.343   2.258  21.065  0.00  0.00    +0.000 A 
ATOM     15  C   UNL     1       4.622   1.921  20.697  0.00  0.00    +0.000 A 
ATOM     16  O   UNL     1       5.076   2.770  19.741  0.00  0.00    +0.000 OA
ENDBRANCH   1  12
BRANCH   1  17
ATOM     17  C   UNL     1       3.044   5.348  17.900  0.00  0.00    +0.000 C 
BRANCH  17  20
ATOM     18  O   UNL     1       3.155   8.130  17.736  0.00  0.00    +0.000 OA
ATOM     19  C   UNL     1       2.484   7.617  18.623  0.00  0.00    +0.000 C 
ATOM     20  N   UNL     1       2.398   6.257  18.835  0.00  0.00    +0.000 N 
ATOM     21  H   UNL     1       1.569   5.919  19.310  0.00  0.00    +0.000 HD
BRANCH  19  22
ATOM     22  C   UNL     1       1.667   8.458  19.531  0.00  0.00    +0.000 A 
ATOM     23  C   UNL     1       1.070   9.618  19.028  0.00  0.00    +0.000 A 
ATOM     24  C   UNL     1       0.301  10.426  19.868  0.00  0.00    +0.000 A 
ATOM     25  C   UNL     1       0.143  10.079  21.209  0.00  0.00    +0.000 A 
ATOM     26 CL   UNL     1      -0.801  11.074  22.246  0.00  0.00    +0.000 Cl
ATOM     27  C   UNL     1       0.749   8.931  21.721  0.00  0.00    +0.000 A 
ATOM     28  C   UNL     1       1.517   8.119  20.881  0.00  0.00    +0.000 A 
ENDBRANCH  19  22
ENDBRANCH  17  20
ENDBRANCH   1  17
TORSDOF 5
ENDMDL
