MODEL 1
REMARK VINA RESULT:      -8.9      0.000      0.000
REMARK  Name = 
REMARK  3 active torsions:
REMARK  status: ('A' for Active; 'I' for Inactive)
REMARK    1  A    between atoms: N_4  and  N_5
REMARK    2  A    between atoms: N_17  and  C_18
REMARK    3  A    between atoms: C_18  and  C_19
REMARK                            x       y       z     vdW  Elec       q    Type
REMARK                         _______ _______ _______ _____ _____    ______ ____
ROOT
ATOM      1  O   UNL     1       5.121   6.332  18.510  0.00  0.00    +0.000 OA
ATOM      2  C   UNL     1       4.202   5.545  18.598  0.00  0.00    +0.000 C 
ATOM      3  C   UNL     1       4.095   4.259  17.778  0.00  0.00    +0.000 C 
ATOM      4  N   UNL     1       4.890   3.816  16.854  0.00  0.00    +0.000 NA
ATOM      5  C   UNL     1       2.883   3.590  18.233  0.00  0.00    +0.000 A 
ATOM      6  C   UNL     1       2.332   2.388  17.831  0.00  0.00    +0.000 A 
ATOM      7  C   UNL     1       1.169   1.977  18.477  0.00  0.00    +0.000 A 
ATOM      8  C   UNL     1       0.591   2.768  19.491  0.00  0.00    +0.000 A 
ATOM      9  C   UNL     1       1.163   3.994  19.865  0.00  0.00    +0.000 A 
ATOM     10  C   UNL     1       2.317   4.397  19.220  0.00  0.00    +0.000 A 
ATOM     11  N   UNL     1       3.078   5.565  19.404  0.00  0.00    +0.000 N 
ENDROOT
BRANCH   4  12
ATOM     12  N   UNL     1       5.988   4.573  16.571  0.00  0.00    +0.000 N 
ATOM     13  C   UNL     1       6.539   4.716  15.337  0.00  0.00    +0.000 A 
ATOM     14  N   UNL     1       7.638   5.409  15.100  0.00  0.00    +0.000 NA
ATOM     15  N   UNL     1       8.010   5.402  13.769  0.00  0.00    +0.000 NA
ATOM     16  C   UNL     1       7.171   4.705  13.039  0.00  0.00    +0.000 A 
ATOM     17  S   UNL     1       5.867   4.014  13.903  0.00  0.00    +0.000 S 
ATOM     18  H   UNL     1       6.491   5.046  17.330  0.00  0.00    +0.000 HD
ENDBRANCH   4  12
BRANCH  11  19
ATOM     19  C   UNL     1       2.752   6.639  20.316  0.00  0.00    +0.000 C 
BRANCH  19  20
ATOM     20  C   UNL     1       2.018   7.775  19.646  0.00  0.00    +0.000 A 
ATOM     21  C   UNL     1       2.148   7.988  18.264  0.00  0.00    +0.000 A 
ATOM     22  C   UNL     1       1.508   9.063  17.645  0.00  0.00    +0.000 A 
ATOM     23  C   UNL     1       0.719   9.932  18.397  0.00  0.00    +0.000 A 
ATOM     24  C   UNL     1       0.558   9.709  19.762  0.00  0.00    +0.000 A 
ATOM     25 CL   UNL     1      -0.433  10.769  20.689  0.00  0.00    +0.000 Cl
ATOM     26  C   UNL     1       1.196   8.637  20.388  0.00  0.00    +0.000 A 
ENDBRANCH  19  20
ENDBRANCH  11  19
TORSDOF 3
ENDMDL
MODEL 2
REMARK VINA RESULT:      -8.7      4.130      7.034
REMARK  Name = 
REMARK  3 active torsions:
REMARK  status: ('A' for Active; 'I' for Inactive)
REMARK    1  A    between atoms: N_4  and  N_5
REMARK    2  A    between atoms: N_17  and  C_18
REMARK    3  A    between atoms: C_18  and  C_19
REMARK                            x       y       z     vdW  Elec       q    Type
REMARK                         _______ _______ _______ _____ _____    ______ ____
ROOT
ATOM      1  O   UNL     1       2.913   8.028  18.541  0.00  0.00    +0.000 OA
ATOM      2  C   UNL     1       2.697   6.877  18.858  0.00  0.00    +0.000 C 
ATOM      3  C   UNL     1       1.838   6.465  20.054  0.00  0.00    +0.000 C 
ATOM      4  N   UNL     1       1.254   7.218  20.932  0.00  0.00    +0.000 NA
ATOM      5  C   UNL     1       1.794   5.008  20.035  0.00  0.00    +0.000 A 
ATOM      6  C   UNL     1       1.145   4.131  20.884  0.00  0.00    +0.000 A 
ATOM      7  C   UNL     1       1.254   2.773  20.597  0.00  0.00    +0.000 A 
ATOM      8  C   UNL     1       2.003   2.331  19.488  0.00  0.00    +0.000 A 
ATOM      9  C   UNL     1       2.669   3.243  18.654  0.00  0.00    +0.000 A 
ATOM     10  C   UNL     1       2.556   4.590  18.945  0.00  0.00    +0.000 A 
ATOM     11  N   UNL     1       3.117   5.693  18.277  0.00  0.00    +0.000 N 
ENDROOT
BRANCH   4  12
ATOM     12  N   UNL     1       1.393   8.565  20.779  0.00  0.00    +0.000 N 
ATOM     13  C   UNL     1       0.698   9.504  21.474  0.00  0.00    +0.000 A 
ATOM     14  N   UNL     1       0.810  10.804  21.266  0.00  0.00    +0.000 NA
ATOM     15  N   UNL     1      -0.003  11.560  22.087  0.00  0.00    +0.000 NA
ATOM     16  C   UNL     1      -0.704  10.802  22.899  0.00  0.00    +0.000 A 
ATOM     17  S   UNL     1      -0.425   9.123  22.737  0.00  0.00    +0.000 S 
ATOM     18  H   UNL     1       2.026   8.934  20.061  0.00  0.00    +0.000 HD
ENDBRANCH   4  12
BRANCH  11  19
ATOM     19  C   UNL     1       3.997   5.618  17.132  0.00  0.00    +0.000 C 
BRANCH  19  20
ATOM     20  C   UNL     1       5.449   5.816  17.495  0.00  0.00    +0.000 A 
ATOM     21  C   UNL     1       6.225   4.732  17.937  0.00  0.00    +0.000 A 
ATOM     22  C   UNL     1       7.555   4.915  18.316  0.00  0.00    +0.000 A 
ATOM     23  C   UNL     1       8.132   6.183  18.247  0.00  0.00    +0.000 A 
ATOM     24  C   UNL     1       7.380   7.256  17.778  0.00  0.00    +0.000 A 
ATOM     25 CL   UNL     1       8.096   8.818  17.672  0.00  0.00    +0.000 Cl
ATOM     26  C   UNL     1       6.049   7.080  17.399  0.00  0.00    +0.000 A 
ENDBRANCH  19  20
ENDBRANCH  11  19
TORSDOF 3
ENDMDL
MODEL 3
REMARK VINA RESULT:      -8.5      4.021      7.112
REMARK  Name = 
REMARK  3 active torsions:
REMARK  status: ('A' for Active; 'I' for Inactive)
REMARK    1  A    between atoms: N_4  and  N_5
REMARK    2  A    between atoms: N_17  and  C_18
REMARK    3  A    between atoms: C_18  and  C_19
REMARK                            x       y       z     vdW  Elec       q    Type
REMARK                         _______ _______ _______ _____ _____    ______ ____
ROOT
ATOM      1  O   UNL     1       2.786   7.988  18.547  0.00  0.00    +0.000 OA
ATOM      2  C   UNL     1       2.594   6.831  18.862  0.00  0.00    +0.000 C 
ATOM      3  C   UNL     1       1.922   6.398  20.165  0.00  0.00    +0.000 C 
ATOM      4  N   UNL     1       1.501   7.135  21.145  0.00  0.00    +0.000 NA
ATOM      5  C   UNL     1       1.841   4.944  20.113  0.00  0.00    +0.000 A 
ATOM      6  C   UNL     1       1.310   4.054  21.028  0.00  0.00    +0.000 A 
ATOM      7  C   UNL     1       1.340   2.704  20.690  0.00  0.00    +0.000 A 
ATOM      8  C   UNL     1       1.896   2.282  19.464  0.00  0.00    +0.000 A 
ATOM      9  C   UNL     1       2.446   3.207  18.563  0.00  0.00    +0.000 A 
ATOM     10  C   UNL     1       2.413   4.546  18.905  0.00  0.00    +0.000 A 
ATOM     11  N   UNL     1       2.889   5.659  18.189  0.00  0.00    +0.000 N 
ENDROOT
BRANCH   4  12
ATOM     12  N   UNL     1       1.647   8.483  21.010  0.00  0.00    +0.000 N 
ATOM     13  C   UNL     1       0.858   9.416  21.606  0.00  0.00    +0.000 A 
ATOM     14  N   UNL     1       0.986  10.717  21.413  0.00  0.00    +0.000 NA
ATOM     15  N   UNL     1       0.065  11.466  22.119  0.00  0.00    +0.000 NA
ATOM     16  C   UNL     1      -0.731  10.702  22.832  0.00  0.00    +0.000 A 
ATOM     17  S   UNL     1      -0.418   9.026  22.710  0.00  0.00    +0.000 S 
ATOM     18  H   UNL     1       2.366   8.858  20.381  0.00  0.00    +0.000 HD
ENDBRANCH   4  12
BRANCH  11  19
ATOM     19  C   UNL     1       3.578   5.602  16.919  0.00  0.00    +0.000 C 
BRANCH  19  20
ATOM     20  C   UNL     1       5.042   5.264  17.061  0.00  0.00    +0.000 A 
ATOM     21  C   UNL     1       5.720   4.595  16.029  0.00  0.00    +0.000 A 
ATOM     22  C   UNL     1       7.062   4.240  16.170  0.00  0.00    +0.000 A 
ATOM     23  C   UNL     1       7.749   4.560  17.340  0.00  0.00    +0.000 A 
ATOM     24  C   UNL     1       7.094   5.254  18.355  0.00  0.00    +0.000 A 
ATOM     25 CL   UNL     1       7.946   5.669  19.792  0.00  0.00    +0.000 Cl
ATOM     26  C   UNL     1       5.751   5.610  18.221  0.00  0.00    +0.000 A 
ENDBRANCH  19  20
ENDBRANCH  11  19
TORSDOF 3
ENDMDL
MODEL 4
REMARK VINA RESULT:      -8.5      4.251      7.000
REMARK  Name = 
REMARK  3 active torsions:
REMARK  status: ('A' for Active; 'I' for Inactive)
REMARK    1  A    between atoms: N_4  and  N_5
REMARK    2  A    between atoms: N_17  and  C_18
REMARK    3  A    between atoms: C_18  and  C_19
REMARK                            x       y       z     vdW  Elec       q    Type
REMARK                         _______ _______ _______ _____ _____    ______ ____
ROOT
ATOM      1  O   UNL     1       3.061   7.895  18.549  0.00  0.00    +0.000 OA
ATOM      2  C   UNL     1       2.829   6.751  18.884  0.00  0.00    +0.000 C 
ATOM      3  C   UNL     1       1.868   6.367  20.009  0.00  0.00    +0.000 C 
ATOM      4  N   UNL     1       1.198   7.140  20.805  0.00  0.00    +0.000 NA
ATOM      5  C   UNL     1       1.842   4.910  20.037  0.00  0.00    +0.000 A 
ATOM      6  C   UNL     1       1.127   4.053  20.852  0.00  0.00    +0.000 A 
ATOM      7  C   UNL     1       1.276   2.688  20.623  0.00  0.00    +0.000 A 
ATOM      8  C   UNL     1       2.129   2.220  19.602  0.00  0.00    +0.000 A 
ATOM      9  C   UNL     1       2.858   3.113  18.802  0.00  0.00    +0.000 A 
ATOM     10  C   UNL     1       2.705   4.467  19.035  0.00  0.00    +0.000 A 
ATOM     11  N   UNL     1       3.313   5.556  18.384  0.00  0.00    +0.000 N 
ENDROOT
BRANCH   4  12
ATOM     12  N   UNL     1       1.337   8.484  20.619  0.00  0.00    +0.000 N 
ATOM     13  C   UNL     1       0.683   9.440  21.331  0.00  0.00    +0.000 A 
ATOM     14  N   UNL     1       0.791  10.735  21.093  0.00  0.00    +0.000 NA
ATOM     15  N   UNL     1       0.024  11.511  21.940  0.00  0.00    +0.000 NA
ATOM     16  C   UNL     1      -0.639  10.773  22.801  0.00  0.00    +0.000 A 
ATOM     17  S   UNL     1      -0.377   9.090  22.656  0.00  0.00    +0.000 S 
ATOM     18  H   UNL     1       1.934   8.836  19.864  0.00  0.00    +0.000 HD
ENDBRANCH   4  12
BRANCH  11  19
ATOM     19  C   UNL     1       4.295   5.455  17.327  0.00  0.00    +0.000 C 
BRANCH  19  20
ATOM     20  C   UNL     1       5.639   6.018  17.720  0.00  0.00    +0.000 A 
ATOM     21  C   UNL     1       6.175   7.120  17.035  0.00  0.00    +0.000 A 
ATOM     22  C   UNL     1       7.437   7.618  17.362  0.00  0.00    +0.000 A 
ATOM     23  C   UNL     1       8.174   7.030  18.388  0.00  0.00    +0.000 A 
ATOM     24  C   UNL     1       7.636   5.958  19.095  0.00  0.00    +0.000 A 
ATOM     25 CL   UNL     1       8.536   5.243  20.377  0.00  0.00    +0.000 Cl
ATOM     26  C   UNL     1       6.376   5.453  18.771  0.00  0.00    +0.000 A 
ENDBRANCH  19  20
ENDBRANCH  11  19
TORSDOF 3
ENDMDL
MODEL 5
REMARK VINA RESULT:      -8.3      3.752      6.514
REMARK  Name = 
REMARK  3 active torsions:
REMARK  status: ('A' for Active; 'I' for Inactive)
REMARK    1  A    between atoms: N_4  and  N_5
REMARK    2  A    between atoms: N_17  and  C_18
REMARK    3  A    between atoms: C_18  and  C_19
REMARK                            x       y       z     vdW  Elec       q    Type
REMARK                         _______ _______ _______ _____ _____    ______ ____
ROOT
ATOM      1  O   UNL     1       1.297   9.814  17.756  0.00  0.00    +0.000 OA
ATOM      2  C   UNL     1       0.817   9.943  18.863  0.00  0.00    +0.000 C 
ATOM      3  C   UNL     1       1.093   8.997  20.032  0.00  0.00    +0.000 C 
ATOM      4  N   UNL     1       1.807   7.915  20.050  0.00  0.00    +0.000 NA
ATOM      5  C   UNL     1       0.373   9.546  21.174  0.00  0.00    +0.000 A 
ATOM      6  C   UNL     1       0.298   9.089  22.476  0.00  0.00    +0.000 A 
ATOM      7  C   UNL     1      -0.446   9.849  23.373  0.00  0.00    +0.000 A 
ATOM      8  C   UNL     1      -1.093  11.030  22.951  0.00  0.00    +0.000 A 
ATOM      9  C   UNL     1      -1.015  11.460  21.618  0.00  0.00    +0.000 A 
ATOM     10  C   UNL     1      -0.274  10.700  20.732  0.00  0.00    +0.000 A 
ATOM     11  N   UNL     1      -0.041  10.908  19.361  0.00  0.00    +0.000 N 
ENDROOT
BRANCH   4  12
ATOM     12  N   UNL     1       2.422   7.563  18.885  0.00  0.00    +0.000 N 
ATOM     13  C   UNL     1       3.052   6.379  18.664  0.00  0.00    +0.000 A 
ATOM     14  N   UNL     1       3.690   6.085  17.546  0.00  0.00    +0.000 NA
ATOM     15  N   UNL     1       4.260   4.827  17.557  0.00  0.00    +0.000 NA
ATOM     16  C   UNL     1       4.026   4.204  18.690  0.00  0.00    +0.000 A 
ATOM     17  S   UNL     1       3.095   5.088  19.818  0.00  0.00    +0.000 S 
ATOM     18  H   UNL     1       2.475   8.236  18.113  0.00  0.00    +0.000 HD
ENDBRANCH   4  12
BRANCH  11  19
ATOM     19  C   UNL     1      -0.598  11.984  18.573  0.00  0.00    +0.000 C 
BRANCH  19  20
ATOM     20  C   UNL     1      -1.960  11.656  18.012  0.00  0.00    +0.000 A 
ATOM     21  C   UNL     1      -3.117  11.884  18.774  0.00  0.00    +0.000 A 
ATOM     22  C   UNL     1      -4.376  11.542  18.280  0.00  0.00    +0.000 A 
ATOM     23  C   UNL     1      -4.498  10.978  17.011  0.00  0.00    +0.000 A 
ATOM     24  C   UNL     1      -3.359  10.779  16.235  0.00  0.00    +0.000 A 
ATOM     25 CL   UNL     1      -3.509  10.102  14.659  0.00  0.00    +0.000 Cl
ATOM     26  C   UNL     1      -2.097  11.117  16.724  0.00  0.00    +0.000 A 
ENDBRANCH  19  20
ENDBRANCH  11  19
TORSDOF 3
ENDMDL
MODEL 6
REMARK VINA RESULT:      -8.3      3.861      6.811
REMARK  Name = 
REMARK  3 active torsions:
REMARK  status: ('A' for Active; 'I' for Inactive)
REMARK    1  A    between atoms: N_4  and  N_5
REMARK    2  A    between atoms: N_17  and  C_18
REMARK    3  A    between atoms: C_18  and  C_19
REMARK                            x       y       z     vdW  Elec       q    Type
REMARK                         _______ _______ _______ _____ _____    ______ ____
ROOT
ATOM      1  O   UNL     1       4.860   7.098  16.880  0.00  0.00    +0.000 OA
ATOM      2  C   UNL     1       4.304   6.093  17.274  0.00  0.00    +0.000 C 
ATOM      3  C   UNL     1       2.877   6.064  17.822  0.00  0.00    +0.000 C 
ATOM      4  N   UNL     1       2.057   7.051  18.007  0.00  0.00    +0.000 NA
ATOM      5  C   UNL     1       2.589   4.667  18.121  0.00  0.00    +0.000 A 
ATOM      6  C   UNL     1       1.438   4.089  18.623  0.00  0.00    +0.000 A 
ATOM      7  C   UNL     1       1.439   2.705  18.774  0.00  0.00    +0.000 A 
ATOM      8  C   UNL     1       2.575   1.944  18.429  0.00  0.00    +0.000 A 
ATOM      9  C   UNL     1       3.737   2.561  17.940  0.00  0.00    +0.000 A 
ATOM     10  C   UNL     1       3.730   3.935  17.792  0.00  0.00    +0.000 A 
ATOM     11  N   UNL     1       4.750   4.785  17.330  0.00  0.00    +0.000 N 
ENDROOT
BRANCH   4  12
ATOM     12  N   UNL     1       2.497   8.292  17.653  0.00  0.00    +0.000 N 
ATOM     13  C   UNL     1       2.039   9.460  18.177  0.00  0.00    +0.000 A 
ATOM     14  N   UNL     1       2.442  10.652  17.775  0.00  0.00    +0.000 NA
ATOM     15  N   UNL     1       1.828  11.690  18.449  0.00  0.00    +0.000 NA
ATOM     16  C   UNL     1       0.981  11.245  19.348  0.00  0.00    +0.000 A 
ATOM     17  S   UNL     1       0.871   9.542  19.452  0.00  0.00    +0.000 S 
ATOM     18  H   UNL     1       3.191   8.393  16.904  0.00  0.00    +0.000 HD
ENDBRANCH   4  12
BRANCH  11  19
ATOM     19  C   UNL     1       6.079   4.363  16.947  0.00  0.00    +0.000 C 
BRANCH  19  20
ATOM     20  C   UNL     1       6.285   4.360  15.451  0.00  0.00    +0.000 A 
ATOM     21  C   UNL     1       5.439   3.611  14.618  0.00  0.00    +0.000 A 
ATOM     22  C   UNL     1       5.650   3.568  13.240  0.00  0.00    +0.000 A 
ATOM     23  C   UNL     1       6.703   4.284  12.673  0.00  0.00    +0.000 A 
ATOM     24  C   UNL     1       7.528   5.056  13.487  0.00  0.00    +0.000 A 
ATOM     25 CL   UNL     1       8.817   5.957  12.787  0.00  0.00    +0.000 Cl
ATOM     26  C   UNL     1       7.323   5.101  14.867  0.00  0.00    +0.000 A 
ENDBRANCH  19  20
ENDBRANCH  11  19
TORSDOF 3
ENDMDL
MODEL 7
REMARK VINA RESULT:      -8.2      3.789      6.759
REMARK  Name = 
REMARK  3 active torsions:
REMARK  status: ('A' for Active; 'I' for Inactive)
REMARK    1  A    between atoms: N_4  and  N_5
REMARK    2  A    between atoms: N_17  and  C_18
REMARK    3  A    between atoms: C_18  and  C_19
REMARK                            x       y       z     vdW  Elec       q    Type
REMARK                         _______ _______ _______ _____ _____    ______ ____
ROOT
ATOM      1  O   UNL     1       4.976   7.052  16.887  0.00  0.00    +0.000 OA
ATOM      2  C   UNL     1       4.380   6.053  17.235  0.00  0.00    +0.000 C 
ATOM      3  C   UNL     1       2.938   6.050  17.743  0.00  0.00    +0.000 C 
ATOM      4  N   UNL     1       2.142   7.055  17.935  0.00  0.00    +0.000 NA
ATOM      5  C   UNL     1       2.602   4.654  17.991  0.00  0.00    +0.000 A 
ATOM      6  C   UNL     1       1.421   4.095  18.443  0.00  0.00    +0.000 A 
ATOM      7  C   UNL     1       1.378   2.707  18.552  0.00  0.00    +0.000 A 
ATOM      8  C   UNL     1       2.501   1.924  18.215  0.00  0.00    +0.000 A 
ATOM      9  C   UNL     1       3.693   2.521  17.777  0.00  0.00    +0.000 A 
ATOM     10  C   UNL     1       3.730   3.899  17.671  0.00  0.00    +0.000 A 
ATOM     11  N   UNL     1       4.787   4.731  17.262  0.00  0.00    +0.000 N 
ENDROOT
BRANCH   4  12
ATOM     12  N   UNL     1       2.627   8.292  17.631  0.00  0.00    +0.000 N 
ATOM     13  C   UNL     1       2.123   9.464  18.103  0.00  0.00    +0.000 A 
ATOM     14  N   UNL     1       2.576  10.652  17.747  0.00  0.00    +0.000 NA
ATOM     15  N   UNL     1       1.900  11.696  18.350  0.00  0.00    +0.000 NA
ATOM     16  C   UNL     1       0.957  11.258  19.152  0.00  0.00    +0.000 A 
ATOM     17  S   UNL     1       0.823   9.556  19.243  0.00  0.00    +0.000 S 
ATOM     18  H   UNL     1       3.399   8.387  16.963  0.00  0.00    +0.000 HD
ENDBRANCH   4  12
BRANCH  11  19
ATOM     19  C   UNL     1       6.113   4.282  16.903  0.00  0.00    +0.000 C 
BRANCH  19  20
ATOM     20  C   UNL     1       6.379   4.366  15.419  0.00  0.00    +0.000 A 
ATOM     21  C   UNL     1       7.483   5.086  14.935  0.00  0.00    +0.000 A 
ATOM     22  C   UNL     1       7.710   5.206  13.563  0.00  0.00    +0.000 A 
ATOM     23  C   UNL     1       6.844   4.597  12.657  0.00  0.00    +0.000 A 
ATOM     24  C   UNL     1       5.765   3.854  13.129  0.00  0.00    +0.000 A 
ATOM     25 CL   UNL     1       4.706   3.083  12.012  0.00  0.00    +0.000 Cl
ATOM     26  C   UNL     1       5.531   3.732  14.499  0.00  0.00    +0.000 A 
ENDBRANCH  19  20
ENDBRANCH  11  19
TORSDOF 3
ENDMDL
MODEL 8
REMARK VINA RESULT:      -8.2      3.444      6.078
REMARK  Name = 
REMARK  3 active torsions:
REMARK  status: ('A' for Active; 'I' for Inactive)
REMARK    1  A    between atoms: N_4  and  N_5
REMARK    2  A    between atoms: N_17  and  C_18
REMARK    3  A    between atoms: C_18  and  C_19
REMARK                            x       y       z     vdW  Elec       q    Type
REMARK                         _______ _______ _______ _____ _____    ______ ____
ROOT
ATOM      1  O   UNL     1       1.527   9.473  17.626  0.00  0.00    +0.000 OA
ATOM      2  C   UNL     1       1.066   9.609  18.741  0.00  0.00    +0.000 C 
ATOM      3  C   UNL     1       1.378   8.681  19.915  0.00  0.00    +0.000 C 
ATOM      4  N   UNL     1       2.108   7.610  19.933  0.00  0.00    +0.000 NA
ATOM      5  C   UNL     1       0.673   9.235  21.064  0.00  0.00    +0.000 A 
ATOM      6  C   UNL     1       0.629   8.792  22.373  0.00  0.00    +0.000 A 
ATOM      7  C   UNL     1      -0.109   9.554  23.275  0.00  0.00    +0.000 A 
ATOM      8  C   UNL     1      -0.780  10.719  22.852  0.00  0.00    +0.000 A 
ATOM      9  C   UNL     1      -0.733  11.134  21.512  0.00  0.00    +0.000 A 
ATOM     10  C   UNL     1       0.001  10.374  20.621  0.00  0.00    +0.000 A 
ATOM     11  N   UNL     1       0.205  10.568  19.244  0.00  0.00    +0.000 N 
ENDROOT
BRANCH   4  12
ATOM     12  N   UNL     1       2.705   7.252  18.761  0.00  0.00    +0.000 N 
ATOM     13  C   UNL     1       3.256   6.035  18.507  0.00  0.00    +0.000 A 
ATOM     14  N   UNL     1       3.880   5.733  17.383  0.00  0.00    +0.000 NA
ATOM     15  N   UNL     1       4.365   4.439  17.359  0.00  0.00    +0.000 NA
ATOM     16  C   UNL     1       4.083   3.800  18.471  0.00  0.00    +0.000 A 
ATOM     17  S   UNL     1       3.206   4.711  19.622  0.00  0.00    +0.000 S 
ATOM     18  H   UNL     1       2.807   7.942  18.008  0.00  0.00    +0.000 HD
ENDBRANCH   4  12
BRANCH  11  19
ATOM     19  C   UNL     1      -0.382  11.627  18.454  0.00  0.00    +0.000 C 
BRANCH  19  20
ATOM     20  C   UNL     1      -1.777  11.299  17.979  0.00  0.00    +0.000 A 
ATOM     21  C   UNL     1      -1.973  10.420  16.902  0.00  0.00    +0.000 A 
ATOM     22  C   UNL     1      -3.257  10.147  16.428  0.00  0.00    +0.000 A 
ATOM     23  C   UNL     1      -4.364  10.740  17.033  0.00  0.00    +0.000 A 
ATOM     24  C   UNL     1      -4.181  11.586  18.124  0.00  0.00    +0.000 A 
ATOM     25 CL   UNL     1      -5.549  12.303  18.886  0.00  0.00    +0.000 Cl
ATOM     26  C   UNL     1      -2.900  11.865  18.601  0.00  0.00    +0.000 A 
ENDBRANCH  19  20
ENDBRANCH  11  19
TORSDOF 3
ENDMDL
MODEL 9
REMARK VINA RESULT:      -8.1      1.507      1.913
REMARK  Name = 
REMARK  3 active torsions:
REMARK  status: ('A' for Active; 'I' for Inactive)
REMARK    1  A    between atoms: N_4  and  N_5
REMARK    2  A    between atoms: N_17  and  C_18
REMARK    3  A    between atoms: C_18  and  C_19
REMARK                            x       y       z     vdW  Elec       q    Type
REMARK                         _______ _______ _______ _____ _____    ______ ____
ROOT
ATOM      1  O   UNL     1       4.455   6.909  17.657  0.00  0.00    +0.000 OA
ATOM      2  C   UNL     1       3.873   6.085  18.333  0.00  0.00    +0.000 C 
ATOM      3  C   UNL     1       4.529   4.827  18.901  0.00  0.00    +0.000 C 
ATOM      4  N   UNL     1       5.742   4.399  18.739  0.00  0.00    +0.000 NA
ATOM      5  C   UNL     1       3.502   4.157  19.688  0.00  0.00    +0.000 A 
ATOM      6  C   UNL     1       3.571   2.989  20.424  0.00  0.00    +0.000 A 
ATOM      7  C   UNL     1       2.424   2.604  21.113  0.00  0.00    +0.000 A 
ATOM      8  C   UNL     1       1.251   3.384  21.047  0.00  0.00    +0.000 A 
ATOM      9  C   UNL     1       1.203   4.556  20.277  0.00  0.00    +0.000 A 
ATOM     10  C   UNL     1       2.346   4.932  19.595  0.00  0.00    +0.000 A 
ATOM     11  N   UNL     1       2.559   6.046  18.764  0.00  0.00    +0.000 N 
ENDROOT
BRANCH   4  12
ATOM     12  N   UNL     1       6.571   5.169  17.979  0.00  0.00    +0.000 N 
ATOM     13  C   UNL     1       6.740   5.041  16.636  0.00  0.00    +0.000 A 
ATOM     14  N   UNL     1       7.593   5.763  15.932  0.00  0.00    +0.000 NA
ATOM     15  N   UNL     1       7.595   5.446  14.587  0.00  0.00    +0.000 NA
ATOM     16  C   UNL     1       6.733   4.492  14.317  0.00  0.00    +0.000 A 
ATOM     17  S   UNL     1       5.851   3.916  15.664  0.00  0.00    +0.000 S 
ATOM     18  H   UNL     1       7.162   5.878  18.427  0.00  0.00    +0.000 HD
ENDBRANCH   4  12
BRANCH  11  19
ATOM     19  C   UNL     1       1.560   7.031  18.414  0.00  0.00    +0.000 C 
BRANCH  19  20
ATOM     20  C   UNL     1       1.411   8.112  19.457  0.00  0.00    +0.000 A 
ATOM     21  C   UNL     1       1.506   7.799  20.823  0.00  0.00    +0.000 A 
ATOM     22  C   UNL     1       1.325   8.785  21.795  0.00  0.00    +0.000 A 
ATOM     23  C   UNL     1       1.060  10.099  21.414  0.00  0.00    +0.000 A 
ATOM     24  C   UNL     1       0.997  10.424  20.061  0.00  0.00    +0.000 A 
ATOM     25 CL   UNL     1       0.691  12.051  19.588  0.00  0.00    +0.000 Cl
ATOM     26  C   UNL     1       1.175   9.443  19.085  0.00  0.00    +0.000 A 
ENDBRANCH  19  20
ENDBRANCH  11  19
TORSDOF 3
ENDMDL
