MODEL 1
REMARK VINA RESULT:      -6.9      0.000      0.000
REMARK  Name = 
REMARK  12 active torsions:
REMARK  status: ('A' for Active; 'I' for Inactive)
REMARK    1  A    between atoms: C_1  and  O_2
REMARK    2  A    between atoms: O_2  and  C_3
REMARK    3  A    between atoms: C_6  and  C_7
REMARK    4  A    between atoms: C_7  and  N_8
REMARK    5  A    between atoms: N_8  and  S_9
REMARK    6  A    between atoms: S_9  and  N_12
REMARK    7  A    between atoms: N_12  and  C_13
REMARK    8  A    between atoms: C_13  and  C_14
REMARK    9  A    between atoms: C_17  and  O_18
REMARK   10  A    between atoms: O_18  and  C_19
REMARK   11  A    between atoms: C_20  and  O_21
REMARK   12  A    between atoms: O_21  and  C_22
REMARK                            x       y       z     vdW  Elec       q    Type
REMARK                         _______ _______ _______ _____ _____    ______ ____
ROOT
ATOM      1  S   UNL     1       6.343   5.971  16.289  0.00  0.00    +0.000 S 
ATOM      2  O   UNL     1       7.705   6.393  16.492  0.00  0.00    +0.000 OA
ATOM      3  O   UNL     1       5.707   5.968  14.997  0.00  0.00    +0.000 OA
ENDROOT
BRANCH   1   4
ATOM      4  N   UNL     1       6.222   4.422  16.917  0.00  0.00    +0.000 NA
ATOM      5  H   UNL     1       7.093   3.930  16.698  0.00  0.00    +0.000 HD
BRANCH   4   6
ATOM      6  C   UNL     1       5.057   3.647  16.443  0.00  0.00    +0.000 C 
BRANCH   6  10
ATOM      7  C   UNL     1       2.048   3.125  19.504  0.00  0.00    +0.000 A 
ATOM      8  C   UNL     1       1.671   3.310  18.172  0.00  0.00    +0.000 A 
ATOM      9  C   UNL     1       2.637   3.488  17.178  0.00  0.00    +0.000 A 
ATOM     10  C   UNL     1       3.999   3.502  17.508  0.00  0.00    +0.000 A 
ATOM     11  C   UNL     1       4.367   3.334  18.850  0.00  0.00    +0.000 A 
ATOM     12  C   UNL     1       3.400   3.149  19.841  0.00  0.00    +0.000 A 
BRANCH   7  14
ATOM     13  C   UNL     1       1.385   2.627  21.719  0.00  0.00    +0.000 C 
ATOM     14  O   UNL     1       1.015   2.966  20.387  0.00  0.00    +0.000 OA
ENDBRANCH   7  14
ENDBRANCH   6  10
ENDBRANCH   4   6
ENDBRANCH   1   4
BRANCH   1  15
ATOM     15  N   UNL     1       5.346   6.749  17.370  0.00  0.00    +0.000 NA
ATOM     16  H   UNL     1       5.801   7.532  17.828  0.00  0.00    +0.000 HD
BRANCH  15  17
ATOM     17  C   UNL     1       3.987   7.036  16.912  0.00  0.00    +0.000 C 
BRANCH  17  18
ATOM     18  C   UNL     1       3.099   7.489  18.049  0.00  0.00    +0.000 A 
ATOM     19  C   UNL     1       2.914   6.687  19.179  0.00  0.00    +0.000 A 
ATOM     20  C   UNL     1       2.054   7.102  20.196  0.00  0.00    +0.000 A 
ATOM     21  C   UNL     1       1.347   8.311  20.105  0.00  0.00    +0.000 A 
ATOM     22  C   UNL     1       1.522   9.127  18.973  0.00  0.00    +0.000 A 
ATOM     23  C   UNL     1       2.406   8.706  17.965  0.00  0.00    +0.000 A 
BRANCH  21  24
ATOM     24  O   UNL     1       0.551   8.523  21.201  0.00  0.00    +0.000 OA
ATOM     25  C   UNL     1       1.085   9.214  22.319  0.00  0.00    +0.000 C 
ENDBRANCH  21  24
BRANCH  22  26
ATOM     26  O   UNL     1       0.814  10.296  18.893  0.00  0.00    +0.000 OA
ATOM     27  C   UNL     1      -0.535  10.242  18.446  0.00  0.00    +0.000 C 
ENDBRANCH  22  26
ENDBRANCH  17  18
ENDBRANCH  15  17
ENDBRANCH   1  15
TORSDOF 9
ENDMDL
MODEL 2
REMARK VINA RESULT:      -6.8      0.582      1.175
REMARK  Name = 
REMARK  12 active torsions:
REMARK  status: ('A' for Active; 'I' for Inactive)
REMARK    1  A    between atoms: C_1  and  O_2
REMARK    2  A    between atoms: O_2  and  C_3
REMARK    3  A    between atoms: C_6  and  C_7
REMARK    4  A    between atoms: C_7  and  N_8
REMARK    5  A    between atoms: N_8  and  S_9
REMARK    6  A    between atoms: S_9  and  N_12
REMARK    7  A    between atoms: N_12  and  C_13
REMARK    8  A    between atoms: C_13  and  C_14
REMARK    9  A    between atoms: C_17  and  O_18
REMARK   10  A    between atoms: O_18  and  C_19
REMARK   11  A    between atoms: C_20  and  O_21
REMARK   12  A    between atoms: O_21  and  C_22
REMARK                            x       y       z     vdW  Elec       q    Type
REMARK                         _______ _______ _______ _____ _____    ______ ____
ROOT
ATOM      1  S   UNL     1       6.485   5.745  16.856  0.00  0.00    +0.000 S 
ATOM      2  O   UNL     1       6.881   5.053  18.056  0.00  0.00    +0.000 OA
ATOM      3  O   UNL     1       7.421   6.152  15.840  0.00  0.00    +0.000 OA
ENDROOT
BRANCH   1   4
ATOM      4  N   UNL     1       5.320   4.794  16.118  0.00  0.00    +0.000 NA
ATOM      5  H   UNL     1       4.427   5.291  16.180  0.00  0.00    +0.000 HD
BRANCH   4   6
ATOM      6  C   UNL     1       5.190   3.428  16.668  0.00  0.00    +0.000 C 
BRANCH   6  10
ATOM      7  C   UNL     1       1.872   3.197  19.430  0.00  0.00    +0.000 A 
ATOM      8  C   UNL     1       3.176   2.980  19.878  0.00  0.00    +0.000 A 
ATOM      9  C   UNL     1       4.253   3.045  18.991  0.00  0.00    +0.000 A 
ATOM     10  C   UNL     1       4.036   3.310  17.632  0.00  0.00    +0.000 A 
ATOM     11  C   UNL     1       2.723   3.509  17.187  0.00  0.00    +0.000 A 
ATOM     12  C   UNL     1       1.647   3.451  18.078  0.00  0.00    +0.000 A 
BRANCH   7  14
ATOM     13  C   UNL     1       1.348   2.758  21.694  0.00  0.00    +0.000 C 
ATOM     14  O   UNL     1       0.900   3.104  20.389  0.00  0.00    +0.000 OA
ENDBRANCH   7  14
ENDBRANCH   6  10
ENDBRANCH   4   6
ENDBRANCH   1   4
BRANCH   1  15
ATOM     15  N   UNL     1       5.525   7.045  17.247  0.00  0.00    +0.000 NA
ATOM     16  H   UNL     1       5.956   7.934  17.013  0.00  0.00    +0.000 HD
BRANCH  15  17
ATOM     17  C   UNL     1       4.116   6.951  16.867  0.00  0.00    +0.000 C 
BRANCH  17  18
ATOM     18  C   UNL     1       3.206   7.438  17.973  0.00  0.00    +0.000 A 
ATOM     19  C   UNL     1       3.021   6.685  19.136  0.00  0.00    +0.000 A 
ATOM     20  C   UNL     1       2.142   7.130  20.124  0.00  0.00    +0.000 A 
ATOM     21  C   UNL     1       1.417   8.322  19.970  0.00  0.00    +0.000 A 
ATOM     22  C   UNL     1       1.592   9.089  18.805  0.00  0.00    +0.000 A 
ATOM     23  C   UNL     1       2.495   8.638  17.827  0.00  0.00    +0.000 A 
BRANCH  21  24
ATOM     24  O   UNL     1       0.604   8.569  21.047  0.00  0.00    +0.000 OA
ATOM     25  C   UNL     1       1.177   9.078  22.241  0.00  0.00    +0.000 C 
ENDBRANCH  21  24
BRANCH  22  26
ATOM     26  O   UNL     1       0.866  10.242  18.665  0.00  0.00    +0.000 OA
ATOM     27  C   UNL     1      -0.462  10.150  18.165  0.00  0.00    +0.000 C 
ENDBRANCH  22  26
ENDBRANCH  17  18
ENDBRANCH  15  17
ENDBRANCH   1  15
TORSDOF 9
ENDMDL
MODEL 3
REMARK VINA RESULT:      -6.8      2.593      6.971
REMARK  Name = 
REMARK  12 active torsions:
REMARK  status: ('A' for Active; 'I' for Inactive)
REMARK    1  A    between atoms: C_1  and  O_2
REMARK    2  A    between atoms: O_2  and  C_3
REMARK    3  A    between atoms: C_6  and  C_7
REMARK    4  A    between atoms: C_7  and  N_8
REMARK    5  A    between atoms: N_8  and  S_9
REMARK    6  A    between atoms: S_9  and  N_12
REMARK    7  A    between atoms: N_12  and  C_13
REMARK    8  A    between atoms: C_13  and  C_14
REMARK    9  A    between atoms: C_17  and  O_18
REMARK   10  A    between atoms: O_18  and  C_19
REMARK   11  A    between atoms: C_20  and  O_21
REMARK   12  A    between atoms: O_21  and  C_22
REMARK                            x       y       z     vdW  Elec       q    Type
REMARK                         _______ _______ _______ _____ _____    ______ ____
ROOT
ATOM      1  S   UNL     1       1.686   3.200  20.718  0.00  0.00    +0.000 S 
ATOM      2  O   UNL     1       1.907   2.754  22.070  0.00  0.00    +0.000 OA
ATOM      3  O   UNL     1       0.675   2.638  19.862  0.00  0.00    +0.000 OA
ENDROOT
BRANCH   1   4
ATOM      4  N   UNL     1       1.422   4.853  20.797  0.00  0.00    +0.000 NA
ATOM      5  H   UNL     1       0.624   5.069  20.194  0.00  0.00    +0.000 HD
BRANCH   4   6
ATOM      6  C   UNL     1       2.586   5.688  20.433  0.00  0.00    +0.000 C 
BRANCH   6  10
ATOM      7  C   UNL     1       1.302   9.511  18.874  0.00  0.00    +0.000 A 
ATOM      8  C   UNL     1       2.029   8.632  18.069  0.00  0.00    +0.000 A 
ATOM      9  C   UNL     1       2.455   7.397  18.567  0.00  0.00    +0.000 A 
ATOM     10  C   UNL     1       2.174   7.034  19.891  0.00  0.00    +0.000 A 
ATOM     11  C   UNL     1       1.459   7.930  20.698  0.00  0.00    +0.000 A 
ATOM     12  C   UNL     1       1.029   9.160  20.194  0.00  0.00    +0.000 A 
BRANCH   7  14
ATOM     13  C   UNL     1       0.875  11.822  19.136  0.00  0.00    +0.000 C 
ATOM     14  O   UNL     1       0.945  10.690  18.278  0.00  0.00    +0.000 OA
ENDBRANCH   7  14
ENDBRANCH   6  10
ENDBRANCH   4   6
ENDBRANCH   1   4
BRANCH   1  15
ATOM     15  N   UNL     1       3.129   3.225  19.891  0.00  0.00    +0.000 NA
ATOM     16  H   UNL     1       3.852   2.680  20.350  0.00  0.00    +0.000 HD
BRANCH  15  17
ATOM     17  C   UNL     1       3.054   3.016  18.446  0.00  0.00    +0.000 C 
BRANCH  17  18
ATOM     18  C   UNL     1       4.220   3.658  17.728  0.00  0.00    +0.000 A 
ATOM     19  C   UNL     1       4.160   3.930  16.359  0.00  0.00    +0.000 A 
ATOM     20  C   UNL     1       5.264   4.481  15.707  0.00  0.00    +0.000 A 
ATOM     21  C   UNL     1       6.455   4.755  16.396  0.00  0.00    +0.000 A 
ATOM     22  C   UNL     1       6.531   4.486  17.774  0.00  0.00    +0.000 A 
ATOM     23  C   UNL     1       5.404   3.949  18.422  0.00  0.00    +0.000 A 
BRANCH  21  24
ATOM     24  O   UNL     1       7.416   5.280  15.570  0.00  0.00    +0.000 OA
ATOM     25  C   UNL     1       7.274   5.135  14.166  0.00  0.00    +0.000 C 
ENDBRANCH  21  24
BRANCH  22  26
ATOM     26  O   UNL     1       7.705   4.746  18.428  0.00  0.00    +0.000 OA
ATOM     27  C   UNL     1       7.848   5.996  19.092  0.00  0.00    +0.000 C 
ENDBRANCH  22  26
ENDBRANCH  17  18
ENDBRANCH  15  17
ENDBRANCH   1  15
TORSDOF 9
ENDMDL
MODEL 4
REMARK VINA RESULT:      -6.7      2.454      6.722
REMARK  Name = 
REMARK  12 active torsions:
REMARK  status: ('A' for Active; 'I' for Inactive)
REMARK    1  A    between atoms: C_1  and  O_2
REMARK    2  A    between atoms: O_2  and  C_3
REMARK    3  A    between atoms: C_6  and  C_7
REMARK    4  A    between atoms: C_7  and  N_8
REMARK    5  A    between atoms: N_8  and  S_9
REMARK    6  A    between atoms: S_9  and  N_12
REMARK    7  A    between atoms: N_12  and  C_13
REMARK    8  A    between atoms: C_13  and  C_14
REMARK    9  A    between atoms: C_17  and  O_18
REMARK   10  A    between atoms: O_18  and  C_19
REMARK   11  A    between atoms: C_20  and  O_21
REMARK   12  A    between atoms: O_21  and  C_22
REMARK                            x       y       z     vdW  Elec       q    Type
REMARK                         _______ _______ _______ _____ _____    ______ ____
ROOT
ATOM      1  S   UNL     1       1.690   3.938  19.349  0.00  0.00    +0.000 S 
ATOM      2  O   UNL     1       0.807   3.051  20.062  0.00  0.00    +0.000 OA
ATOM      3  O   UNL     1       1.513   4.272  17.959  0.00  0.00    +0.000 OA
ENDROOT
BRANCH   1   4
ATOM      4  N   UNL     1       1.729   5.373  20.214  0.00  0.00    +0.000 NA
ATOM      5  H   UNL     1       0.768   5.716  20.289  0.00  0.00    +0.000 HD
BRANCH   4   6
ATOM      6  C   UNL     1       2.608   6.417  19.648  0.00  0.00    +0.000 C 
BRANCH   6  10
ATOM      7  C   UNL     1       0.641  10.268  19.680  0.00  0.00    +0.000 A 
ATOM      8  C   UNL     1       1.246   9.797  18.513  0.00  0.00    +0.000 A 
ATOM      9  C   UNL     1       1.891   8.557  18.496  0.00  0.00    +0.000 A 
ATOM     10  C   UNL     1       1.956   7.777  19.658  0.00  0.00    +0.000 A 
ATOM     11  C   UNL     1       1.362   8.265  20.830  0.00  0.00    +0.000 A 
ATOM     12  C   UNL     1       0.711   9.502  20.842  0.00  0.00    +0.000 A 
BRANCH   7  14
ATOM     13  C   UNL     1      -0.884  11.645  18.509  0.00  0.00    +0.000 C 
ATOM     14  O   UNL     1       0.045  11.495  19.576  0.00  0.00    +0.000 OA
ENDBRANCH   7  14
ENDBRANCH   6  10
ENDBRANCH   4   6
ENDBRANCH   1   4
BRANCH   1  15
ATOM     15  N   UNL     1       3.269   3.470  19.586  0.00  0.00    +0.000 NA
ATOM     16  H   UNL     1       3.383   2.881  20.405  0.00  0.00    +0.000 HD
BRANCH  15  17
ATOM     17  C   UNL     1       3.990   2.993  18.406  0.00  0.00    +0.000 C 
BRANCH  17  18
ATOM     18  C   UNL     1       5.006   4.007  17.927  0.00  0.00    +0.000 A 
ATOM     19  C   UNL     1       5.724   4.789  18.835  0.00  0.00    +0.000 A 
ATOM     20  C   UNL     1       6.622   5.751  18.371  0.00  0.00    +0.000 A 
ATOM     21  C   UNL     1       6.812   5.968  16.997  0.00  0.00    +0.000 A 
ATOM     22  C   UNL     1       6.095   5.188  16.072  0.00  0.00    +0.000 A 
ATOM     23  C   UNL     1       5.208   4.210  16.554  0.00  0.00    +0.000 A 
BRANCH  21  24
ATOM     24  O   UNL     1       7.725   6.961  16.757  0.00  0.00    +0.000 OA
ATOM     25  C   UNL     1       7.731   8.110  17.589  0.00  0.00    +0.000 C 
ENDBRANCH  21  24
BRANCH  22  26
ATOM     26  O   UNL     1       6.282   5.422  14.736  0.00  0.00    +0.000 OA
ATOM     27  C   UNL     1       6.539   4.314  13.883  0.00  0.00    +0.000 C 
ENDBRANCH  22  26
ENDBRANCH  17  18
ENDBRANCH  15  17
ENDBRANCH   1  15
TORSDOF 9
ENDMDL
MODEL 5
REMARK VINA RESULT:      -6.7      2.478      6.599
REMARK  Name = 
REMARK  12 active torsions:
REMARK  status: ('A' for Active; 'I' for Inactive)
REMARK    1  A    between atoms: C_1  and  O_2
REMARK    2  A    between atoms: O_2  and  C_3
REMARK    3  A    between atoms: C_6  and  C_7
REMARK    4  A    between atoms: C_7  and  N_8
REMARK    5  A    between atoms: N_8  and  S_9
REMARK    6  A    between atoms: S_9  and  N_12
REMARK    7  A    between atoms: N_12  and  C_13
REMARK    8  A    between atoms: C_13  and  C_14
REMARK    9  A    between atoms: C_17  and  O_18
REMARK   10  A    between atoms: O_18  and  C_19
REMARK   11  A    between atoms: C_20  and  O_21
REMARK   12  A    between atoms: O_21  and  C_22
REMARK                            x       y       z     vdW  Elec       q    Type
REMARK                         _______ _______ _______ _____ _____    ______ ____
ROOT
ATOM      1  S   UNL     1       1.879   3.306  20.023  0.00  0.00    +0.000 S 
ATOM      2  O   UNL     1       2.878   2.871  20.965  0.00  0.00    +0.000 OA
ATOM      3  O   UNL     1       0.659   2.580  19.781  0.00  0.00    +0.000 OA
ENDROOT
BRANCH   1   4
ATOM      4  N   UNL     1       1.460   4.869  20.458  0.00  0.00    +0.000 NA
ATOM      5  H   UNL     1       0.693   5.167  19.849  0.00  0.00    +0.000 HD
BRANCH   4   6
ATOM      6  C   UNL     1       2.567   5.847  20.410  0.00  0.00    +0.000 C 
BRANCH   6  10
ATOM      7  C   UNL     1       1.478   9.609  18.579  0.00  0.00    +0.000 A 
ATOM      8  C   UNL     1       1.151   9.356  19.913  0.00  0.00    +0.000 A 
ATOM      9  C   UNL     1       1.492   8.140  20.510  0.00  0.00    +0.000 A 
ATOM     10  C   UNL     1       2.151   7.148  19.771  0.00  0.00    +0.000 A 
ATOM     11  C   UNL     1       2.459   7.403  18.428  0.00  0.00    +0.000 A 
ATOM     12  C   UNL     1       2.123   8.623  17.835  0.00  0.00    +0.000 A 
BRANCH   7  14
ATOM     13  C   UNL     1      -0.088  11.378  18.686  0.00  0.00    +0.000 C 
ATOM     14  O   UNL     1       1.089  10.831  18.103  0.00  0.00    +0.000 OA
ENDBRANCH   7  14
ENDBRANCH   6  10
ENDBRANCH   4   6
ENDBRANCH   1   4
BRANCH   1  15
ATOM     15  N   UNL     1       2.595   3.645  18.561  0.00  0.00    +0.000 NA
ATOM     16  H   UNL     1       2.550   4.631  18.322  0.00  0.00    +0.000 HD
BRANCH  15  17
ATOM     17  C   UNL     1       3.901   3.034  18.318  0.00  0.00    +0.000 C 
BRANCH  17  18
ATOM     18  C   UNL     1       4.921   4.057  17.869  0.00  0.00    +0.000 A 
ATOM     19  C   UNL     1       5.636   4.816  18.799  0.00  0.00    +0.000 A 
ATOM     20  C   UNL     1       6.538   5.786  18.363  0.00  0.00    +0.000 A 
ATOM     21  C   UNL     1       6.736   6.036  16.996  0.00  0.00    +0.000 A 
ATOM     22  C   UNL     1       6.022   5.280  16.049  0.00  0.00    +0.000 A 
ATOM     23  C   UNL     1       5.131   4.292  16.502  0.00  0.00    +0.000 A 
BRANCH  21  24
ATOM     24  O   UNL     1       7.652   7.033  16.784  0.00  0.00    +0.000 OA
ATOM     25  C   UNL     1       7.894   7.979  17.814  0.00  0.00    +0.000 C 
ENDBRANCH  21  24
BRANCH  22  26
ATOM     26  O   UNL     1       6.216   5.546  14.720  0.00  0.00    +0.000 OA
ATOM     27  C   UNL     1       6.673   4.495  13.878  0.00  0.00    +0.000 C 
ENDBRANCH  22  26
ENDBRANCH  17  18
ENDBRANCH  15  17
ENDBRANCH   1  15
TORSDOF 9
ENDMDL
MODEL 6
REMARK VINA RESULT:      -6.5      2.460      6.993
REMARK  Name = 
REMARK  12 active torsions:
REMARK  status: ('A' for Active; 'I' for Inactive)
REMARK    1  A    between atoms: C_1  and  O_2
REMARK    2  A    between atoms: O_2  and  C_3
REMARK    3  A    between atoms: C_6  and  C_7
REMARK    4  A    between atoms: C_7  and  N_8
REMARK    5  A    between atoms: N_8  and  S_9
REMARK    6  A    between atoms: S_9  and  N_12
REMARK    7  A    between atoms: N_12  and  C_13
REMARK    8  A    between atoms: C_13  and  C_14
REMARK    9  A    between atoms: C_17  and  O_18
REMARK   10  A    between atoms: O_18  and  C_19
REMARK   11  A    between atoms: C_20  and  O_21
REMARK   12  A    between atoms: O_21  and  C_22
REMARK                            x       y       z     vdW  Elec       q    Type
REMARK                         _______ _______ _______ _____ _____    ______ ____
ROOT
ATOM      1  S   UNL     1       2.025   3.884  20.431  0.00  0.00    +0.000 S 
ATOM      2  O   UNL     1       2.889   3.063  21.240  0.00  0.00    +0.000 OA
ATOM      3  O   UNL     1       0.589   3.822  20.503  0.00  0.00    +0.000 OA
ENDROOT
BRANCH   1   4
ATOM      4  N   UNL     1       2.478   5.474  20.709  0.00  0.00    +0.000 NA
ATOM      5  H   UNL     1       1.684   5.951  21.145  0.00  0.00    +0.000 HD
BRANCH   4   6
ATOM      6  C   UNL     1       2.929   6.211  19.511  0.00  0.00    +0.000 C 
BRANCH   6  10
ATOM      7  C   UNL     1       0.906   9.997  18.992  0.00  0.00    +0.000 A 
ATOM      8  C   UNL     1       0.893   9.357  20.233  0.00  0.00    +0.000 A 
ATOM      9  C   UNL     1       1.537   8.129  20.408  0.00  0.00    +0.000 A 
ATOM     10  C   UNL     1       2.190   7.514  19.331  0.00  0.00    +0.000 A 
ATOM     11  C   UNL     1       2.183   8.154  18.085  0.00  0.00    +0.000 A 
ATOM     12  C   UNL     1       1.544   9.385  17.915  0.00  0.00    +0.000 A 
BRANCH   7  14
ATOM     13  C   UNL     1      -0.148  11.738  20.197  0.00  0.00    +0.000 C 
ATOM     14  O   UNL     1       0.238  11.190  18.942  0.00  0.00    +0.000 OA
ENDBRANCH   7  14
ENDBRANCH   6  10
ENDBRANCH   4   6
ENDBRANCH   1   4
BRANCH   1  15
ATOM     15  N   UNL     1       2.483   3.778  18.835  0.00  0.00    +0.000 NA
ATOM     16  H   UNL     1       2.487   4.679  18.369  0.00  0.00    +0.000 HD
BRANCH  15  17
ATOM     17  C   UNL     1       3.657   2.954  18.548  0.00  0.00    +0.000 C 
BRANCH  17  18
ATOM     18  C   UNL     1       4.657   3.691  17.686  0.00  0.00    +0.000 A 
ATOM     19  C   UNL     1       4.533   3.705  16.294  0.00  0.00    +0.000 A 
ATOM     20  C   UNL     1       5.492   4.351  15.514  0.00  0.00    +0.000 A 
ATOM     21  C   UNL     1       6.603   4.980  16.097  0.00  0.00    +0.000 A 
ATOM     22  C   UNL     1       6.742   4.972  17.496  0.00  0.00    +0.000 A 
ATOM     23  C   UNL     1       5.757   4.334  18.271  0.00  0.00    +0.000 A 
BRANCH  21  24
ATOM     24  O   UNL     1       7.427   5.542  15.156  0.00  0.00    +0.000 OA
ATOM     25  C   UNL     1       7.396   5.046  13.827  0.00  0.00    +0.000 C 
ENDBRANCH  21  24
BRANCH  22  26
ATOM     26  O   UNL     1       7.838   5.578  18.049  0.00  0.00    +0.000 OA
ATOM     27  C   UNL     1       7.901   5.706  19.464  0.00  0.00    +0.000 C 
ENDBRANCH  22  26
ENDBRANCH  17  18
ENDBRANCH  15  17
ENDBRANCH   1  15
TORSDOF 9
ENDMDL
MODEL 7
REMARK VINA RESULT:      -6.5      2.789      7.349
REMARK  Name = 
REMARK  12 active torsions:
REMARK  status: ('A' for Active; 'I' for Inactive)
REMARK    1  A    between atoms: C_1  and  O_2
REMARK    2  A    between atoms: O_2  and  C_3
REMARK    3  A    between atoms: C_6  and  C_7
REMARK    4  A    between atoms: C_7  and  N_8
REMARK    5  A    between atoms: N_8  and  S_9
REMARK    6  A    between atoms: S_9  and  N_12
REMARK    7  A    between atoms: N_12  and  C_13
REMARK    8  A    between atoms: C_13  and  C_14
REMARK    9  A    between atoms: C_17  and  O_18
REMARK   10  A    between atoms: O_18  and  C_19
REMARK   11  A    between atoms: C_20  and  O_21
REMARK   12  A    between atoms: O_21  and  C_22
REMARK                            x       y       z     vdW  Elec       q    Type
REMARK                         _______ _______ _______ _____ _____    ______ ____
ROOT
ATOM      1  S   UNL     1       2.277   5.479  19.604  0.00  0.00    +0.000 S 
ATOM      2  O   UNL     1       1.619   4.290  20.082  0.00  0.00    +0.000 OA
ATOM      3  O   UNL     1       2.091   5.999  18.274  0.00  0.00    +0.000 OA
ENDROOT
BRANCH   1   4
ATOM      4  N   UNL     1       1.896   6.703  20.683  0.00  0.00    +0.000 NA
ATOM      5  H   UNL     1       1.009   6.459  21.131  0.00  0.00    +0.000 HD
BRANCH   4   6
ATOM      6  C   UNL     1       1.821   8.055  20.091  0.00  0.00    +0.000 C 
BRANCH   6  10
ATOM      7  C   UNL     1      -0.710  10.652  22.445  0.00  0.00    +0.000 A 
ATOM      8  C   UNL     1      -0.576  10.859  21.071  0.00  0.00    +0.000 A 
ATOM      9  C   UNL     1       0.246  10.029  20.304  0.00  0.00    +0.000 A 
ATOM     10  C   UNL     1       0.964   8.989  20.909  0.00  0.00    +0.000 A 
ATOM     11  C   UNL     1       0.838   8.800  22.292  0.00  0.00    +0.000 A 
ATOM     12  C   UNL     1       0.009   9.626  23.055  0.00  0.00    +0.000 A 
BRANCH   7  14
ATOM     13  C   UNL     1      -2.292  12.401  22.255  0.00  0.00    +0.000 C 
ATOM     14  O   UNL     1      -1.538  11.530  23.090  0.00  0.00    +0.000 OA
ENDBRANCH   7  14
ENDBRANCH   6  10
ENDBRANCH   4   6
ENDBRANCH   1   4
BRANCH   1  15
ATOM     15  N   UNL     1       3.908   5.382  19.914  0.00  0.00    +0.000 NA
ATOM     16  H   UNL     1       4.132   5.548  20.890  0.00  0.00    +0.000 HD
BRANCH  15  17
ATOM     17  C   UNL     1       4.615   4.243  19.328  0.00  0.00    +0.000 C 
BRANCH  17  18
ATOM     18  C   UNL     1       5.227   4.596  17.990  0.00  0.00    +0.000 A 
ATOM     19  C   UNL     1       4.917   3.861  16.842  0.00  0.00    +0.000 A 
ATOM     20  C   UNL     1       5.528   4.173  15.628  0.00  0.00    +0.000 A 
ATOM     21  C   UNL     1       6.472   5.208  15.531  0.00  0.00    +0.000 A 
ATOM     22  C   UNL     1       6.794   5.954  16.678  0.00  0.00    +0.000 A 
ATOM     23  C   UNL     1       6.156   5.641  17.891  0.00  0.00    +0.000 A 
BRANCH  21  24
ATOM     24  O   UNL     1       6.958   5.341  14.256  0.00  0.00    +0.000 OA
ATOM     25  C   UNL     1       6.807   4.264  13.344  0.00  0.00    +0.000 C 
ENDBRANCH  21  24
BRANCH  22  26
ATOM     26  O   UNL     1       7.727   6.950  16.570  0.00  0.00    +0.000 OA
ATOM     27  C   UNL     1       7.752   7.967  17.564  0.00  0.00    +0.000 C 
ENDBRANCH  22  26
ENDBRANCH  17  18
ENDBRANCH  15  17
ENDBRANCH   1  15
TORSDOF 9
ENDMDL
MODEL 8
REMARK VINA RESULT:      -6.5      3.541      8.024
REMARK  Name = 
REMARK  12 active torsions:
REMARK  status: ('A' for Active; 'I' for Inactive)
REMARK    1  A    between atoms: C_1  and  O_2
REMARK    2  A    between atoms: O_2  and  C_3
REMARK    3  A    between atoms: C_6  and  C_7
REMARK    4  A    between atoms: C_7  and  N_8
REMARK    5  A    between atoms: N_8  and  S_9
REMARK    6  A    between atoms: S_9  and  N_12
REMARK    7  A    between atoms: N_12  and  C_13
REMARK    8  A    between atoms: C_13  and  C_14
REMARK    9  A    between atoms: C_17  and  O_18
REMARK   10  A    between atoms: O_18  and  C_19
REMARK   11  A    between atoms: C_20  and  O_21
REMARK   12  A    between atoms: O_21  and  C_22
REMARK                            x       y       z     vdW  Elec       q    Type
REMARK                         _______ _______ _______ _____ _____    ______ ____
ROOT
ATOM      1  S   UNL     1       0.518   9.285  21.743  0.00  0.00    +0.000 S 
ATOM      2  O   UNL     1       1.159  10.520  22.118  0.00  0.00    +0.000 OA
ATOM      3  O   UNL     1      -0.538   8.683  22.514  0.00  0.00    +0.000 OA
ENDROOT
BRANCH   1   4
ATOM      4  N   UNL     1      -0.052   9.497  20.181  0.00  0.00    +0.000 NA
ATOM      5  H   UNL     1       0.738   9.371  19.542  0.00  0.00    +0.000 HD
BRANCH   4   6
ATOM      6  C   UNL     1      -0.717  10.792  19.931  0.00  0.00    +0.000 C 
BRANCH   6  10
ATOM      7  C   UNL     1      -3.287  10.698  16.456  0.00  0.00    +0.000 A 
ATOM      8  C   UNL     1      -3.624  11.487  17.558  0.00  0.00    +0.000 A 
ATOM      9  C   UNL     1      -2.803  11.517  18.688  0.00  0.00    +0.000 A 
ATOM     10  C   UNL     1      -1.639  10.739  18.739  0.00  0.00    +0.000 A 
ATOM     11  C   UNL     1      -1.318   9.936  17.636  0.00  0.00    +0.000 A 
ATOM     12  C   UNL     1      -2.136   9.913  16.503  0.00  0.00    +0.000 A 
BRANCH   7  14
ATOM     13  C   UNL     1      -3.734  10.131  14.203  0.00  0.00    +0.000 C 
ATOM     14  O   UNL     1      -4.169  10.746  15.410  0.00  0.00    +0.000 OA
ENDBRANCH   7  14
ENDBRANCH   6  10
ENDBRANCH   4   6
ENDBRANCH   1   4
BRANCH   1  15
ATOM     15  N   UNL     1       1.670   8.128  21.425  0.00  0.00    +0.000 NA
ATOM     16  H   UNL     1       1.486   7.251  21.901  0.00  0.00    +0.000 HD
BRANCH  15  17
ATOM     17  C   UNL     1       2.068   7.972  20.026  0.00  0.00    +0.000 C 
BRANCH  17  18
ATOM     18  C   UNL     1       2.056   6.521  19.601  0.00  0.00    +0.000 A 
ATOM     19  C   UNL     1       2.496   6.140  18.330  0.00  0.00    +0.000 A 
ATOM     20  C   UNL     1       2.433   4.802  17.942  0.00  0.00    +0.000 A 
ATOM     21  C   UNL     1       1.916   3.818  18.798  0.00  0.00    +0.000 A 
ATOM     22  C   UNL     1       1.469   4.186  20.079  0.00  0.00    +0.000 A 
ATOM     23  C   UNL     1       1.556   5.535  20.465  0.00  0.00    +0.000 A 
BRANCH  21  24
ATOM     24  O   UNL     1       1.933   2.575  18.220  0.00  0.00    +0.000 OA
ATOM     25  C   UNL     1       3.171   1.895  18.079  0.00  0.00    +0.000 C 
ENDBRANCH  21  24
BRANCH  22  26
ATOM     26  O   UNL     1       0.955   3.216  20.897  0.00  0.00    +0.000 OA
ATOM     27  C   UNL     1       1.842   2.514  21.758  0.00  0.00    +0.000 C 
ENDBRANCH  22  26
ENDBRANCH  17  18
ENDBRANCH  15  17
ENDBRANCH   1  15
TORSDOF 9
ENDMDL
MODEL 9
REMARK VINA RESULT:      -6.5      2.447      4.833
REMARK  Name = 
REMARK  12 active torsions:
REMARK  status: ('A' for Active; 'I' for Inactive)
REMARK    1  A    between atoms: C_1  and  O_2
REMARK    2  A    between atoms: O_2  and  C_3
REMARK    3  A    between atoms: C_6  and  C_7
REMARK    4  A    between atoms: C_7  and  N_8
REMARK    5  A    between atoms: N_8  and  S_9
REMARK    6  A    between atoms: S_9  and  N_12
REMARK    7  A    between atoms: N_12  and  C_13
REMARK    8  A    between atoms: C_13  and  C_14
REMARK    9  A    between atoms: C_17  and  O_18
REMARK   10  A    between atoms: O_18  and  C_19
REMARK   11  A    between atoms: C_20  and  O_21
REMARK   12  A    between atoms: O_21  and  C_22
REMARK                            x       y       z     vdW  Elec       q    Type
REMARK                         _______ _______ _______ _____ _____    ______ ____
ROOT
ATOM      1  S   UNL     1       2.010   4.202  20.065  0.00  0.00    +0.000 S 
ATOM      2  O   UNL     1       1.472   4.114  18.731  0.00  0.00    +0.000 OA
ATOM      3  O   UNL     1       1.336   3.667  21.220  0.00  0.00    +0.000 OA
ENDROOT
BRANCH   1   4
ATOM      4  N   UNL     1       3.539   3.520  20.010  0.00  0.00    +0.000 NA
ATOM      5  H   UNL     1       4.183   4.162  20.479  0.00  0.00    +0.000 HD
BRANCH   4   6
ATOM      6  C   UNL     1       4.029   3.197  18.653  0.00  0.00    +0.000 C 
BRANCH   6  10
ATOM      7  C   UNL     1       6.784   6.133  17.079  0.00  0.00    +0.000 A 
ATOM      8  C   UNL     1       6.824   5.785  18.431  0.00  0.00    +0.000 A 
ATOM      9  C   UNL     1       5.932   4.843  18.950  0.00  0.00    +0.000 A 
ATOM     10  C   UNL     1       4.970   4.248  18.122  0.00  0.00    +0.000 A 
ATOM     11  C   UNL     1       4.925   4.616  16.771  0.00  0.00    +0.000 A 
ATOM     12  C   UNL     1       5.823   5.553  16.253  0.00  0.00    +0.000 A 
BRANCH   7  14
ATOM     13  C   UNL     1       7.900   8.157  17.584  0.00  0.00    +0.000 C 
ATOM     14  O   UNL     1       7.703   7.068  16.688  0.00  0.00    +0.000 OA
ENDBRANCH   7  14
ENDBRANCH   6  10
ENDBRANCH   4   6
ENDBRANCH   1   4
BRANCH   1  15
ATOM     15  N   UNL     1       2.456   5.771  20.388  0.00  0.00    +0.000 NA
ATOM     16  H   UNL     1       3.106   5.841  21.164  0.00  0.00    +0.000 HD
BRANCH  15  17
ATOM     17  C   UNL     1       2.816   6.596  19.235  0.00  0.00    +0.000 C 
BRANCH  17  18
ATOM     18  C   UNL     1       2.059   7.905  19.228  0.00  0.00    +0.000 A 
ATOM     19  C   UNL     1       2.080   8.742  18.109  0.00  0.00    +0.000 A 
ATOM     20  C   UNL     1       1.413   9.967  18.140  0.00  0.00    +0.000 A 
ATOM     21  C   UNL     1       0.727  10.394  19.287  0.00  0.00    +0.000 A 
ATOM     22  C   UNL     1       0.698   9.563  20.421  0.00  0.00    +0.000 A 
ATOM     23  C   UNL     1       1.358   8.323  20.369  0.00  0.00    +0.000 A 
BRANCH  21  24
ATOM     24  O   UNL     1       0.153  11.627  19.112  0.00  0.00    +0.000 OA
ATOM     25  C   UNL     1       0.986  12.774  19.049  0.00  0.00    +0.000 C 
ENDBRANCH  21  24
BRANCH  22  26
ATOM     26  O   UNL     1       0.036  10.001  21.537  0.00  0.00    +0.000 OA
ATOM     27  C   UNL     1       0.361   9.416  22.792  0.00  0.00    +0.000 C 
ENDBRANCH  22  26
ENDBRANCH  17  18
ENDBRANCH  15  17
ENDBRANCH   1  15
TORSDOF 9
ENDMDL
