MODEL 1
REMARK VINA RESULT:      -8.4      0.000      0.000
REMARK  Name = 
REMARK  7 active torsions:
REMARK  status: ('A' for Active; 'I' for Inactive)
REMARK    1  A    between atoms: C_1  and  C_2
REMARK    2  A    between atoms: C_2  and  O_3
REMARK    3  A    between atoms: O_3  and  C_4
REMARK    4  A    between atoms: C_10  and  C_12
REMARK    5  A    between atoms: C_16  and  N_17
REMARK    6  A    between atoms: N_17  and  S_18
REMARK    7  A    between atoms: S_18  and  C_21
REMARK                            x       y       z     vdW  Elec       q    Type
REMARK                         _______ _______ _______ _____ _____    ______ ____
ROOT
ATOM      1  C   UNL     1       1.337   9.271  19.703  0.00  0.00    +0.000 A 
ATOM      2  C   UNL     1       1.620   9.525  18.356  0.00  0.00    +0.000 A 
ATOM      3  C   UNL     1       2.344   8.597  17.603  0.00  0.00    +0.000 A 
ATOM      4  C   UNL     1       2.793   7.416  18.197  0.00  0.00    +0.000 A 
ATOM      5  C   UNL     1       2.460   7.135  19.521  0.00  0.00    +0.000 A 
ATOM      6  C   UNL     1       1.718   8.050  20.271  0.00  0.00    +0.000 A 
ENDROOT
BRANCH   1  13
ATOM      7  C   UNL     1      -4.362  12.035  18.859  0.00  0.00    +0.000 C 
ATOM      8  O   UNL     1      -4.928  12.908  19.506  0.00  0.00    +0.000 OA
ATOM      9  N   UNL     1      -3.000  11.825  18.873  0.00  0.00    +0.000 N 
ATOM     10  C   UNL     1      -2.156  12.605  19.781  0.00  0.00    +0.000 C 
ATOM     11  C   UNL     1      -1.439  11.698  20.798  0.00  0.00    +0.000 C 
ATOM     12  N   UNL     1      -0.764  10.581  20.119  0.00  0.00    +0.000 N 
ATOM     13  C   UNL     1       0.552  10.289  20.459  0.00  0.00    +0.000 C 
ATOM     14  O   UNL     1       1.137  10.867  21.377  0.00  0.00    +0.000 OA
ATOM     15  C   UNL     1      -1.671   9.780  19.279  0.00  0.00    +0.000 C 
ATOM     16  C   UNL     1      -2.345  10.678  18.227  0.00  0.00    +0.000 C 
BRANCH   7  17
ATOM     17  O   UNL     1      -5.013  11.113  18.103  0.00  0.00    +0.000 OA
BRANCH  17  19
ATOM     18  C   UNL     1      -6.833   9.942  19.102  0.00  0.00    +0.000 C 
ATOM     19  C   UNL     1      -6.440  11.114  18.222  0.00  0.00    +0.000 C 
ENDBRANCH  17  19
ENDBRANCH   7  17
ENDBRANCH   1  13
BRANCH   5  20
ATOM     20  N   UNL     1       2.963   5.935  20.133  0.00  0.00    +0.000 N 
ATOM     21  H   UNL     1       3.961   6.014  20.342  0.00  0.00    +0.000 HD
BRANCH  20  22
ATOM     22  S   UNL     1       2.730   4.533  19.179  0.00  0.00    +0.000 S 
ATOM     23  O   UNL     1       2.753   3.361  20.021  0.00  0.00    +0.000 OA
ATOM     24  O   UNL     1       1.630   4.825  18.286  0.00  0.00    +0.000 OA
BRANCH  22  25
ATOM     25  C   UNL     1       4.225   4.515  18.214  0.00  0.00    +0.000 A 
ATOM     26  C   UNL     1       5.444   4.817  18.837  0.00  0.00    +0.000 A 
ATOM     27  C   UNL     1       6.622   4.817  18.084  0.00  0.00    +0.000 A 
ATOM     28  C   UNL     1       6.572   4.507  16.728  0.00  0.00    +0.000 A 
ATOM     29  F   UNL     1       7.706   4.510  16.013  0.00  0.00    +0.000 F 
ATOM     30  C   UNL     1       5.360   4.199  16.119  0.00  0.00    +0.000 A 
ATOM     31  F   UNL     1       5.320   3.897  14.815  0.00  0.00    +0.000 F 
ATOM     32  C   UNL     1       4.177   4.198  16.852  0.00  0.00    +0.000 A 
ENDBRANCH  22  25
ENDBRANCH  20  22
ENDBRANCH   5  20
TORSDOF 6
ENDMDL
MODEL 2
REMARK VINA RESULT:      -8.4      0.503      1.206
REMARK  Name = 
REMARK  7 active torsions:
REMARK  status: ('A' for Active; 'I' for Inactive)
REMARK    1  A    between atoms: C_1  and  C_2
REMARK    2  A    between atoms: C_2  and  O_3
REMARK    3  A    between atoms: O_3  and  C_4
REMARK    4  A    between atoms: C_10  and  C_12
REMARK    5  A    between atoms: C_16  and  N_17
REMARK    6  A    between atoms: N_17  and  S_18
REMARK    7  A    between atoms: S_18  and  C_21
REMARK                            x       y       z     vdW  Elec       q    Type
REMARK                         _______ _______ _______ _____ _____    ______ ____
ROOT
ATOM      1  C   UNL     1       1.356   9.164  19.779  0.00  0.00    +0.000 A 
ATOM      2  C   UNL     1       1.560   9.442  18.422  0.00  0.00    +0.000 A 
ATOM      3  C   UNL     1       2.278   8.550  17.622  0.00  0.00    +0.000 A 
ATOM      4  C   UNL     1       2.799   7.381  18.178  0.00  0.00    +0.000 A 
ATOM      5  C   UNL     1       2.546   7.074  19.514  0.00  0.00    +0.000 A 
ATOM      6  C   UNL     1       1.809   7.952  20.311  0.00  0.00    +0.000 A 
ENDROOT
BRANCH   1  13
ATOM      7  C   UNL     1      -4.214  12.186  18.951  0.00  0.00    +0.000 C 
ATOM      8  O   UNL     1      -4.778  13.022  19.646  0.00  0.00    +0.000 OA
ATOM      9  N   UNL     1      -2.860  11.928  18.998  0.00  0.00    +0.000 N 
ATOM     10  C   UNL     1      -2.030  12.602  19.999  0.00  0.00    +0.000 C 
ATOM     11  C   UNL     1      -1.384  11.590  20.965  0.00  0.00    +0.000 C 
ATOM     12  N   UNL     1      -0.718  10.509  20.221  0.00  0.00    +0.000 N 
ATOM     13  C   UNL     1       0.573  10.145  20.586  0.00  0.00    +0.000 C 
ATOM     14  O   UNL     1       1.139  10.625  21.569  0.00  0.00    +0.000 OA
ATOM     15  C   UNL     1      -1.615   9.811  19.285  0.00  0.00    +0.000 C 
ATOM     16  C   UNL     1      -2.217  10.814  18.286  0.00  0.00    +0.000 C 
BRANCH   7  17
ATOM     17  O   UNL     1      -4.863  11.351  18.098  0.00  0.00    +0.000 OA
BRANCH  17  19
ATOM     18  C   UNL     1      -6.898  10.325  18.797  0.00  0.00    +0.000 C 
ATOM     19  C   UNL     1      -6.287  11.499  18.054  0.00  0.00    +0.000 C 
ENDBRANCH  17  19
ENDBRANCH   7  17
ENDBRANCH   1  13
BRANCH   5  20
ATOM     20  N   UNL     1       3.122   5.887  20.085  0.00  0.00    +0.000 N 
ATOM     21  H   UNL     1       4.131   5.991  20.217  0.00  0.00    +0.000 HD
BRANCH  20  22
ATOM     22  S   UNL     1       2.852   4.479  19.150  0.00  0.00    +0.000 S 
ATOM     23  O   UNL     1       2.925   3.311  19.995  0.00  0.00    +0.000 OA
ATOM     24  O   UNL     1       1.708   4.759  18.311  0.00  0.00    +0.000 OA
BRANCH  22  25
ATOM     25  C   UNL     1       4.298   4.466  18.112  0.00  0.00    +0.000 A 
ATOM     26  C   UNL     1       4.149   4.241  16.736  0.00  0.00    +0.000 A 
ATOM     27  C   UNL     1       5.280   4.217  15.914  0.00  0.00    +0.000 A 
ATOM     28  C   UNL     1       6.539   4.427  16.470  0.00  0.00    +0.000 A 
ATOM     29  F   UNL     1       7.617   4.402  15.675  0.00  0.00    +0.000 F 
ATOM     30  C   UNL     1       6.677   4.659  17.834  0.00  0.00    +0.000 A 
ATOM     31  F   UNL     1       7.891   4.864  18.361  0.00  0.00    +0.000 F 
ATOM     32  C   UNL     1       5.563   4.682  18.668  0.00  0.00    +0.000 A 
ENDBRANCH  22  25
ENDBRANCH  20  22
ENDBRANCH   5  20
TORSDOF 6
ENDMDL
MODEL 3
REMARK VINA RESULT:      -8.1      2.528      3.400
REMARK  Name = 
REMARK  7 active torsions:
REMARK  status: ('A' for Active; 'I' for Inactive)
REMARK    1  A    between atoms: C_1  and  C_2
REMARK    2  A    between atoms: C_2  and  O_3
REMARK    3  A    between atoms: O_3  and  C_4
REMARK    4  A    between atoms: C_10  and  C_12
REMARK    5  A    between atoms: C_16  and  N_17
REMARK    6  A    between atoms: N_17  and  S_18
REMARK    7  A    between atoms: S_18  and  C_21
REMARK                            x       y       z     vdW  Elec       q    Type
REMARK                         _______ _______ _______ _____ _____    ______ ____
ROOT
ATOM      1  C   UNL     1       1.114   8.851  19.810  0.00  0.00    +0.000 A 
ATOM      2  C   UNL     1       1.376   9.246  18.493  0.00  0.00    +0.000 A 
ATOM      3  C   UNL     1       2.277   8.522  17.708  0.00  0.00    +0.000 A 
ATOM      4  C   UNL     1       2.924   7.405  18.240  0.00  0.00    +0.000 A 
ATOM      5  C   UNL     1       2.619   6.977  19.532  0.00  0.00    +0.000 A 
ATOM      6  C   UNL     1       1.702   7.684  20.311  0.00  0.00    +0.000 A 
ENDROOT
BRANCH   1  13
ATOM      7  C   UNL     1      -0.599  15.007  19.865  0.00  0.00    +0.000 C 
ATOM      8  O   UNL     1      -1.387  15.608  20.584  0.00  0.00    +0.000 OA
ATOM      9  N   UNL     1       0.001  13.813  20.206  0.00  0.00    +0.000 N 
ATOM     10  C   UNL     1      -0.381  13.140  21.450  0.00  0.00    +0.000 C 
ATOM     11  C   UNL     1      -1.004  11.759  21.172  0.00  0.00    +0.000 C 
ATOM     12  N   UNL     1      -0.148  10.972  20.271  0.00  0.00    +0.000 N 
ATOM     13  C   UNL     1       0.136   9.652  20.602  0.00  0.00    +0.000 C 
ATOM     14  O   UNL     1      -0.383   9.091  21.568  0.00  0.00    +0.000 OA
ATOM     15  C   UNL     1       0.143  11.659  19.000  0.00  0.00    +0.000 C 
ATOM     16  C   UNL     1       0.815  13.015  19.277  0.00  0.00    +0.000 C 
BRANCH   7  17
ATOM     17  O   UNL     1      -0.271  15.401  18.607  0.00  0.00    +0.000 OA
BRANCH  17  19
ATOM     18  C   UNL     1      -0.619  17.605  17.768  0.00  0.00    +0.000 C 
ATOM     19  C   UNL     1       0.341  16.692  18.506  0.00  0.00    +0.000 C 
ENDBRANCH  17  19
ENDBRANCH   7  17
ENDBRANCH   1  13
BRANCH   5  20
ATOM     20  N   UNL     1       3.322   5.850  20.083  0.00  0.00    +0.000 N 
ATOM     21  H   UNL     1       4.329   6.019  20.113  0.00  0.00    +0.000 HD
BRANCH  20  22
ATOM     22  S   UNL     1       3.054   4.392  19.225  0.00  0.00    +0.000 S 
ATOM     23  O   UNL     1       3.246   3.265  20.107  0.00  0.00    +0.000 OA
ATOM     24  O   UNL     1       1.839   4.583  18.465  0.00  0.00    +0.000 OA
BRANCH  22  25
ATOM     25  C   UNL     1       4.418   4.403  18.083  0.00  0.00    +0.000 A 
ATOM     26  C   UNL     1       4.174   4.152  16.725  0.00  0.00    +0.000 A 
ATOM     27  C   UNL     1       5.241   4.146  15.822  0.00  0.00    +0.000 A 
ATOM     28  C   UNL     1       6.531   4.400  16.279  0.00  0.00    +0.000 A 
ATOM     29  F   UNL     1       7.549   4.392  15.407  0.00  0.00    +0.000 F 
ATOM     30  C   UNL     1       6.764   4.658  17.626  0.00  0.00    +0.000 A 
ATOM     31  F   UNL     1       8.006   4.906  18.058  0.00  0.00    +0.000 F 
ATOM     32  C   UNL     1       5.714   4.663  18.540  0.00  0.00    +0.000 A 
ENDBRANCH  22  25
ENDBRANCH  20  22
ENDBRANCH   5  20
TORSDOF 6
ENDMDL
MODEL 4
REMARK VINA RESULT:      -7.9      2.762      4.309
REMARK  Name = 
REMARK  7 active torsions:
REMARK  status: ('A' for Active; 'I' for Inactive)
REMARK    1  A    between atoms: C_1  and  C_2
REMARK    2  A    between atoms: C_2  and  O_3
REMARK    3  A    between atoms: O_3  and  C_4
REMARK    4  A    between atoms: C_10  and  C_12
REMARK    5  A    between atoms: C_16  and  N_17
REMARK    6  A    between atoms: N_17  and  S_18
REMARK    7  A    between atoms: S_18  and  C_21
REMARK                            x       y       z     vdW  Elec       q    Type
REMARK                         _______ _______ _______ _____ _____    ______ ____
ROOT
ATOM      1  C   UNL     1       1.123   9.272  19.434  0.00  0.00    +0.000 A 
ATOM      2  C   UNL     1       1.469   9.402  18.084  0.00  0.00    +0.000 A 
ATOM      3  C   UNL     1       2.307   8.462  17.479  0.00  0.00    +0.000 A 
ATOM      4  C   UNL     1       2.806   7.393  18.224  0.00  0.00    +0.000 A 
ATOM      5  C   UNL     1       2.415   7.229  19.552  0.00  0.00    +0.000 A 
ATOM      6  C   UNL     1       1.560   8.154  20.154  0.00  0.00    +0.000 A 
ENDROOT
BRANCH   1  13
ATOM      7  C   UNL     1       1.574  15.564  20.458  0.00  0.00    +0.000 C 
ATOM      8  O   UNL     1       0.797  16.340  21.000  0.00  0.00    +0.000 OA
ATOM      9  N   UNL     1       1.575  14.201  20.669  0.00  0.00    +0.000 N 
ATOM     10  C   UNL     1       0.534  13.596  21.503  0.00  0.00    +0.000 C 
ATOM     11  C   UNL     1      -0.325  12.605  20.696  0.00  0.00    +0.000 C 
ATOM     12  N   UNL     1       0.524  11.652  19.964  0.00  0.00    +0.000 N 
ATOM     13  C   UNL     1       0.218  10.298  20.029  0.00  0.00    +0.000 C 
ATOM     14  O   UNL     1      -0.794   9.879  20.594  0.00  0.00    +0.000 OA
ATOM     15  C   UNL     1       1.502  12.308  19.080  0.00  0.00    +0.000 C 
ATOM     16  C   UNL     1       2.396  13.257  19.895  0.00  0.00    +0.000 C 
BRANCH   7  17
ATOM     17  O   UNL     1       2.486  15.936  19.524  0.00  0.00    +0.000 OA
BRANCH  17  19
ATOM     18  C   UNL     1       2.895  16.743  17.317  0.00  0.00    +0.000 C 
ATOM     19  C   UNL     1       2.022  16.879  18.551  0.00  0.00    +0.000 C 
ENDBRANCH  17  19
ENDBRANCH   7  17
ENDBRANCH   1  13
BRANCH   5  20
ATOM     20  N   UNL     1       2.969   6.147  20.320  0.00  0.00    +0.000 N 
ATOM     21  H   UNL     1       3.963   6.295  20.507  0.00  0.00    +0.000 HD
BRANCH  20  22
ATOM     22  S   UNL     1       2.791   4.618  19.572  0.00  0.00    +0.000 S 
ATOM     23  O   UNL     1       2.935   3.573  20.558  0.00  0.00    +0.000 OA
ATOM     24  O   UNL     1       1.633   4.717  18.711  0.00  0.00    +0.000 OA
BRANCH  22  25
ATOM     25  C   UNL     1       4.237   4.565  18.536  0.00  0.00    +0.000 A 
ATOM     26  C   UNL     1       4.111   4.129  17.209  0.00  0.00    +0.000 A 
ATOM     27  C   UNL     1       5.243   4.072  16.391  0.00  0.00    +0.000 A 
ATOM     28  C   UNL     1       6.479   4.460  16.900  0.00  0.00    +0.000 A 
ATOM     29  F   UNL     1       7.560   4.402  16.109  0.00  0.00    +0.000 F 
ATOM     30  C   UNL     1       6.595   4.901  18.214  0.00  0.00    +0.000 A 
ATOM     31  F   UNL     1       7.786   5.276  18.695  0.00  0.00    +0.000 F 
ATOM     32  C   UNL     1       5.479   4.959  19.044  0.00  0.00    +0.000 A 
ENDBRANCH  22  25
ENDBRANCH  20  22
ENDBRANCH   5  20
TORSDOF 6
ENDMDL
MODEL 5
REMARK VINA RESULT:      -7.9      2.749      3.360
REMARK  Name = 
REMARK  7 active torsions:
REMARK  status: ('A' for Active; 'I' for Inactive)
REMARK    1  A    between atoms: C_1  and  C_2
REMARK    2  A    between atoms: C_2  and  O_3
REMARK    3  A    between atoms: O_3  and  C_4
REMARK    4  A    between atoms: C_10  and  C_12
REMARK    5  A    between atoms: C_16  and  N_17
REMARK    6  A    between atoms: N_17  and  S_18
REMARK    7  A    between atoms: S_18  and  C_21
REMARK                            x       y       z     vdW  Elec       q    Type
REMARK                         _______ _______ _______ _____ _____    ______ ____
ROOT
ATOM      1  C   UNL     1       1.844   8.036  19.167  0.00  0.00    +0.000 A 
ATOM      2  C   UNL     1       1.395   7.757  20.463  0.00  0.00    +0.000 A 
ATOM      3  C   UNL     1       1.567   6.483  21.008  0.00  0.00    +0.000 A 
ATOM      4  C   UNL     1       2.184   5.482  20.256  0.00  0.00    +0.000 A 
ATOM      5  C   UNL     1       2.685   5.774  18.988  0.00  0.00    +0.000 A 
ATOM      6  C   UNL     1       2.534   7.053  18.449  0.00  0.00    +0.000 A 
ENDROOT
BRANCH   1  13
ATOM      7  C   UNL     1      -1.086  13.275  21.358  0.00  0.00    +0.000 C 
ATOM      8  O   UNL     1      -1.250  14.373  20.839  0.00  0.00    +0.000 OA
ATOM      9  N   UNL     1      -0.829  12.119  20.653  0.00  0.00    +0.000 N 
ATOM     10  C   UNL     1      -0.631  12.183  19.203  0.00  0.00    +0.000 C 
ATOM     11  C   UNL     1       0.783  11.716  18.809  0.00  0.00    +0.000 C 
ATOM     12  N   UNL     1       1.097  10.419  19.428  0.00  0.00    +0.000 N 
ATOM     13  C   UNL     1       1.644   9.416  18.636  0.00  0.00    +0.000 C 
ATOM     14  O   UNL     1       1.967   9.608  17.462  0.00  0.00    +0.000 OA
ATOM     15  C   UNL     1       0.958  10.427  20.894  0.00  0.00    +0.000 C 
ATOM     16  C   UNL     1      -0.471  10.840  21.286  0.00  0.00    +0.000 C 
BRANCH   7  17
ATOM     17  O   UNL     1      -1.062  13.070  22.700  0.00  0.00    +0.000 OA
BRANCH  17  19
ATOM     18  C   UNL     1      -3.346  12.660  23.245  0.00  0.00    +0.000 C 
ATOM     19  C   UNL     1      -2.174  13.607  23.426  0.00  0.00    +0.000 C 
ENDBRANCH  17  19
ENDBRANCH   7  17
ENDBRANCH   1  13
BRANCH   5  20
ATOM     20  N   UNL     1       3.281   4.724  18.208  0.00  0.00    +0.000 N 
ATOM     21  H   UNL     1       2.775   3.843  18.323  0.00  0.00    +0.000 HD
BRANCH  20  22
ATOM     22  S   UNL     1       4.927   4.443  18.585  0.00  0.00    +0.000 S 
ATOM     23  O   UNL     1       5.440   5.537  19.375  0.00  0.00    +0.000 OA
ATOM     24  O   UNL     1       5.017   3.065  19.018  0.00  0.00    +0.000 OA
BRANCH  22  25
ATOM     25  C   UNL     1       5.679   4.559  16.977  0.00  0.00    +0.000 A 
ATOM     26  C   UNL     1       7.018   4.961  16.876  0.00  0.00    +0.000 A 
ATOM     27  C   UNL     1       7.614   5.067  15.615  0.00  0.00    +0.000 A 
ATOM     28  C   UNL     1       6.874   4.762  14.477  0.00  0.00    +0.000 A 
ATOM     29  F   UNL     1       7.452   4.867  13.272  0.00  0.00    +0.000 F 
ATOM     30  C   UNL     1       5.548   4.354  14.586  0.00  0.00    +0.000 A 
ATOM     31  F   UNL     1       4.844   4.058  13.486  0.00  0.00    +0.000 F 
ATOM     32  C   UNL     1       4.938   4.247  15.832  0.00  0.00    +0.000 A 
ENDBRANCH  22  25
ENDBRANCH  20  22
ENDBRANCH   5  20
TORSDOF 6
ENDMDL
MODEL 6
REMARK VINA RESULT:      -7.8      1.732      2.126
REMARK  Name = 
REMARK  7 active torsions:
REMARK  status: ('A' for Active; 'I' for Inactive)
REMARK    1  A    between atoms: C_1  and  C_2
REMARK    2  A    between atoms: C_2  and  O_3
REMARK    3  A    between atoms: O_3  and  C_4
REMARK    4  A    between atoms: C_10  and  C_12
REMARK    5  A    between atoms: C_16  and  N_17
REMARK    6  A    between atoms: N_17  and  S_18
REMARK    7  A    between atoms: S_18  and  C_21
REMARK                            x       y       z     vdW  Elec       q    Type
REMARK                         _______ _______ _______ _____ _____    ______ ____
ROOT
ATOM      1  C   UNL     1       1.866   8.047  19.850  0.00  0.00    +0.000 A 
ATOM      2  C   UNL     1       2.146   8.875  18.757  0.00  0.00    +0.000 A 
ATOM      3  C   UNL     1       2.765   8.352  17.619  0.00  0.00    +0.000 A 
ATOM      4  C   UNL     1       3.110   7.000  17.574  0.00  0.00    +0.000 A 
ATOM      5  C   UNL     1       2.778   6.163  18.638  0.00  0.00    +0.000 A 
ATOM      6  C   UNL     1       2.139   6.678  19.767  0.00  0.00    +0.000 A 
ENDROOT
BRANCH   1  13
ATOM      7  C   UNL     1      -2.565  12.586  20.630  0.00  0.00    +0.000 C 
ATOM      8  O   UNL     1      -3.039  13.069  21.650  0.00  0.00    +0.000 OA
ATOM      9  N   UNL     1      -1.346  11.944  20.574  0.00  0.00    +0.000 N 
ATOM     10  C   UNL     1      -0.591  11.716  21.808  0.00  0.00    +0.000 C 
ATOM     11  C   UNL     1      -0.402  10.212  22.080  0.00  0.00    +0.000 C 
ATOM     12  N   UNL     1       0.123   9.527  20.888  0.00  0.00    +0.000 N 
ATOM     13  C   UNL     1       1.195   8.655  21.036  0.00  0.00    +0.000 C 
ATOM     14  O   UNL     1       1.656   8.361  22.141  0.00  0.00    +0.000 OA
ATOM     15  C   UNL     1      -0.714   9.722  19.692  0.00  0.00    +0.000 C 
ATOM     16  C   UNL     1      -0.857  11.223  19.389  0.00  0.00    +0.000 C 
BRANCH   7  17
ATOM     17  O   UNL     1      -3.213  12.554  19.437  0.00  0.00    +0.000 OA
BRANCH  17  19
ATOM     18  C   UNL     1      -5.080  11.846  18.133  0.00  0.00    +0.000 C 
ATOM     19  C   UNL     1      -4.621  12.301  19.506  0.00  0.00    +0.000 C 
ENDBRANCH  17  19
ENDBRANCH   7  17
ENDBRANCH   1  13
BRANCH   5  20
ATOM     20  N   UNL     1       3.176   4.782  18.596  0.00  0.00    +0.000 N 
ATOM     21  H   UNL     1       2.616   4.214  19.236  0.00  0.00    +0.000 HD
BRANCH  20  22
ATOM     22  S   UNL     1       4.827   4.535  18.974  0.00  0.00    +0.000 S 
ATOM     23  O   UNL     1       5.321   5.647  19.751  0.00  0.00    +0.000 OA
ATOM     24  O   UNL     1       4.943   3.164  19.421  0.00  0.00    +0.000 OA
BRANCH  22  25
ATOM     25  C   UNL     1       5.574   4.646  17.363  0.00  0.00    +0.000 A 
ATOM     26  C   UNL     1       6.870   5.169  17.246  0.00  0.00    +0.000 A 
ATOM     27  C   UNL     1       7.461   5.272  15.983  0.00  0.00    +0.000 A 
ATOM     28  C   UNL     1       6.760   4.845  14.858  0.00  0.00    +0.000 A 
ATOM     29  F   UNL     1       7.333   4.948  13.651  0.00  0.00    +0.000 F 
ATOM     30  C   UNL     1       5.479   4.319  14.984  0.00  0.00    +0.000 A 
ATOM     31  F   UNL     1       4.812   3.907  13.899  0.00  0.00    +0.000 F 
ATOM     32  C   UNL     1       4.874   4.213  16.232  0.00  0.00    +0.000 A 
ENDBRANCH  22  25
ENDBRANCH  20  22
ENDBRANCH   5  20
TORSDOF 6
ENDMDL
MODEL 7
REMARK VINA RESULT:      -7.8      4.944     10.066
REMARK  Name = 
REMARK  7 active torsions:
REMARK  status: ('A' for Active; 'I' for Inactive)
REMARK    1  A    between atoms: C_1  and  C_2
REMARK    2  A    between atoms: C_2  and  O_3
REMARK    3  A    between atoms: O_3  and  C_4
REMARK    4  A    between atoms: C_10  and  C_12
REMARK    5  A    between atoms: C_16  and  N_17
REMARK    6  A    between atoms: N_17  and  S_18
REMARK    7  A    between atoms: S_18  and  C_21
REMARK                            x       y       z     vdW  Elec       q    Type
REMARK                         _______ _______ _______ _____ _____    ______ ____
ROOT
ATOM      1  C   UNL     1       1.344   9.155  18.730  0.00  0.00    +0.000 A 
ATOM      2  C   UNL     1       1.144   9.057  20.112  0.00  0.00    +0.000 A 
ATOM      3  C   UNL     1       0.116   9.775  20.728  0.00  0.00    +0.000 A 
ATOM      4  C   UNL     1      -0.712  10.598  19.963  0.00  0.00    +0.000 A 
ATOM      5  C   UNL     1      -0.552  10.651  18.579  0.00  0.00    +0.000 A 
ATOM      6  C   UNL     1       0.461   9.918  17.958  0.00  0.00    +0.000 A 
ENDROOT
BRANCH   1  13
ATOM      7  C   UNL     1       3.811   3.367  19.848  0.00  0.00    +0.000 C 
ATOM      8  O   UNL     1       4.761   2.793  19.331  0.00  0.00    +0.000 OA
ATOM      9  N   UNL     1       3.637   4.735  19.837  0.00  0.00    +0.000 N 
ATOM     10  C   UNL     1       4.569   5.577  19.083  0.00  0.00    +0.000 C 
ATOM     11  C   UNL     1       3.848   6.340  17.956  0.00  0.00    +0.000 C 
ATOM     12  N   UNL     1       2.655   7.030  18.470  0.00  0.00    +0.000 N 
ATOM     13  C   UNL     1       2.450   8.360  18.123  0.00  0.00    +0.000 C 
ATOM     14  O   UNL     1       3.177   8.949  17.321  0.00  0.00    +0.000 OA
ATOM     15  C   UNL     1       1.711   6.127  19.151  0.00  0.00    +0.000 C 
ATOM     16  C   UNL     1       2.418   5.406  20.312  0.00  0.00    +0.000 C 
BRANCH   7  17
ATOM     17  O   UNL     1       2.767   2.725  20.434  0.00  0.00    +0.000 OA
BRANCH  17  19
ATOM     18  C   UNL     1       1.351   2.494  18.531  0.00  0.00    +0.000 C 
ATOM     19  C   UNL     1       2.105   1.752  19.618  0.00  0.00    +0.000 C 
ENDBRANCH  17  19
ENDBRANCH   7  17
ENDBRANCH   1  13
BRANCH   5  20
ATOM     20  N   UNL     1      -1.384  11.535  17.808  0.00  0.00    +0.000 N 
ATOM     21  H   UNL     1      -1.765  12.286  18.387  0.00  0.00    +0.000 HD
BRANCH  20  22
ATOM     22  S   UNL     1      -2.693  10.743  17.039  0.00  0.00    +0.000 S 
ATOM     23  O   UNL     1      -2.649  10.996  15.618  0.00  0.00    +0.000 OA
ATOM     24  O   UNL     1      -2.739   9.405  17.586  0.00  0.00    +0.000 OA
BRANCH  22  25
ATOM     25  C   UNL     1      -4.080  11.646  17.691  0.00  0.00    +0.000 A 
ATOM     26  C   UNL     1      -4.085  12.006  19.046  0.00  0.00    +0.000 A 
ATOM     27  C   UNL     1      -5.176  12.705  19.571  0.00  0.00    +0.000 A 
ATOM     28  C   UNL     1      -6.240  13.044  18.740  0.00  0.00    +0.000 A 
ATOM     29  F   UNL     1      -7.282  13.714  19.250  0.00  0.00    +0.000 F 
ATOM     30  C   UNL     1      -6.223  12.692  17.394  0.00  0.00    +0.000 A 
ATOM     31  F   UNL     1      -7.247  13.026  16.599  0.00  0.00    +0.000 F 
ATOM     32  C   UNL     1      -5.147  11.993  16.856  0.00  0.00    +0.000 A 
ENDBRANCH  22  25
ENDBRANCH  20  22
ENDBRANCH   5  20
TORSDOF 6
ENDMDL
MODEL 8
REMARK VINA RESULT:      -7.8      2.741      3.977
REMARK  Name = 
REMARK  7 active torsions:
REMARK  status: ('A' for Active; 'I' for Inactive)
REMARK    1  A    between atoms: C_1  and  C_2
REMARK    2  A    between atoms: C_2  and  O_3
REMARK    3  A    between atoms: O_3  and  C_4
REMARK    4  A    between atoms: C_10  and  C_12
REMARK    5  A    between atoms: C_16  and  N_17
REMARK    6  A    between atoms: N_17  and  S_18
REMARK    7  A    between atoms: S_18  and  C_21
REMARK                            x       y       z     vdW  Elec       q    Type
REMARK                         _______ _______ _______ _____ _____    ______ ____
ROOT
ATOM      1  C   UNL     1       1.335   8.926  19.575  0.00  0.00    +0.000 A 
ATOM      2  C   UNL     1       1.633   9.173  18.230  0.00  0.00    +0.000 A 
ATOM      3  C   UNL     1       2.465   8.303  17.522  0.00  0.00    +0.000 A 
ATOM      4  C   UNL     1       3.007   7.185  18.160  0.00  0.00    +0.000 A 
ATOM      5  C   UNL     1       2.663   6.905  19.481  0.00  0.00    +0.000 A 
ATOM      6  C   UNL     1       1.814   7.761  20.185  0.00  0.00    +0.000 A 
ENDROOT
BRANCH   1  13
ATOM      7  C   UNL     1       0.952  15.297  19.884  0.00  0.00    +0.000 C 
ATOM      8  O   UNL     1       0.203  16.020  20.529  0.00  0.00    +0.000 OA
ATOM      9  N   UNL     1       1.230  13.986  20.209  0.00  0.00    +0.000 N 
ATOM     10  C   UNL     1       0.526  13.353  21.327  0.00  0.00    +0.000 C 
ATOM     11  C   UNL     1      -0.318  12.156  20.852  0.00  0.00    +0.000 C 
ATOM     12  N   UNL     1       0.485  11.246  20.021  0.00  0.00    +0.000 N 
ATOM     13  C   UNL     1       0.433   9.882  20.281  0.00  0.00    +0.000 C 
ATOM     14  O   UNL     1      -0.336   9.401  21.115  0.00  0.00    +0.000 OA
ATOM     15  C   UNL     1       1.108  11.914  18.865  0.00  0.00    +0.000 C 
ATOM     16  C   UNL     1       1.995  13.076  19.344  0.00  0.00    +0.000 C 
BRANCH   7  17
ATOM     17  O   UNL     1       1.547  15.671  18.722  0.00  0.00    +0.000 OA
BRANCH  17  19
ATOM     18  C   UNL     1       3.841  16.316  18.624  0.00  0.00    +0.000 C 
ATOM     19  C   UNL     1       2.417  16.806  18.812  0.00  0.00    +0.000 C 
ENDBRANCH  17  19
ENDBRANCH   7  17
ENDBRANCH   1  13
BRANCH   5  20
ATOM     20  N   UNL     1       3.259   5.774  20.139  0.00  0.00    +0.000 N 
ATOM     21  H   UNL     1       4.261   5.917  20.289  0.00  0.00    +0.000 HD
BRANCH  20  22
ATOM     22  S   UNL     1       3.055   4.303  19.288  0.00  0.00    +0.000 S 
ATOM     23  O   UNL     1       3.273   3.189  20.179  0.00  0.00    +0.000 OA
ATOM     24  O   UNL     1       1.845   4.447  18.508  0.00  0.00    +0.000 OA
BRANCH  22  25
ATOM     25  C   UNL     1       4.435   4.355  18.165  0.00  0.00    +0.000 A 
ATOM     26  C   UNL     1       5.715   4.624  18.668  0.00  0.00    +0.000 A 
ATOM     27  C   UNL     1       6.804   4.679  17.792  0.00  0.00    +0.000 A 
ATOM     28  C   UNL     1       6.605   4.455  16.433  0.00  0.00    +0.000 A 
ATOM     29  F   UNL     1       7.653   4.510  15.600  0.00  0.00    +0.000 F 
ATOM     30  C   UNL     1       5.333   4.178  15.943  0.00  0.00    +0.000 A 
ATOM     31  F   UNL     1       5.150   3.959  14.635  0.00  0.00    +0.000 F 
ATOM     32  C   UNL     1       4.238   4.124  16.799  0.00  0.00    +0.000 A 
ENDBRANCH  22  25
ENDBRANCH  20  22
ENDBRANCH   5  20
TORSDOF 6
ENDMDL
MODEL 9
REMARK VINA RESULT:      -7.8      2.862      3.634
REMARK  Name = 
REMARK  7 active torsions:
REMARK  status: ('A' for Active; 'I' for Inactive)
REMARK    1  A    between atoms: C_1  and  C_2
REMARK    2  A    between atoms: C_2  and  O_3
REMARK    3  A    between atoms: O_3  and  C_4
REMARK    4  A    between atoms: C_10  and  C_12
REMARK    5  A    between atoms: C_16  and  N_17
REMARK    6  A    between atoms: N_17  and  S_18
REMARK    7  A    between atoms: S_18  and  C_21
REMARK                            x       y       z     vdW  Elec       q    Type
REMARK                         _______ _______ _______ _____ _____    ______ ____
ROOT
ATOM      1  C   UNL     1       1.899   7.325  19.089  0.00  0.00    +0.000 A 
ATOM      2  C   UNL     1       1.692   7.111  20.456  0.00  0.00    +0.000 A 
ATOM      3  C   UNL     1       1.723   5.816  20.978  0.00  0.00    +0.000 A 
ATOM      4  C   UNL     1       1.955   4.730  20.132  0.00  0.00    +0.000 A 
ATOM      5  C   UNL     1       2.219   4.947  18.781  0.00  0.00    +0.000 A 
ATOM      6  C   UNL     1       2.212   6.242  18.260  0.00  0.00    +0.000 A 
ENDROOT
BRANCH   1  13
ATOM      7  C   UNL     1      -0.750  12.752  21.180  0.00  0.00    +0.000 C 
ATOM      8  O   UNL     1      -0.772  13.871  20.683  0.00  0.00    +0.000 OA
ATOM      9  N   UNL     1      -0.533  11.593  20.465  0.00  0.00    +0.000 N 
ATOM     10  C   UNL     1      -0.203  11.673  19.039  0.00  0.00    +0.000 C 
ATOM     11  C   UNL     1       1.194  11.092  18.754  0.00  0.00    +0.000 C 
ATOM     12  N   UNL     1       1.340   9.758  19.357  0.00  0.00    +0.000 N 
ATOM     13  C   UNL     1       1.866   8.729  18.585  0.00  0.00    +0.000 C 
ATOM     14  O   UNL     1       2.306   8.918  17.450  0.00  0.00    +0.000 OA
ATOM     15  C   UNL     1       1.074   9.745  20.806  0.00  0.00    +0.000 C 
ATOM     16  C   UNL     1      -0.343  10.274  21.087  0.00  0.00    +0.000 C 
BRANCH   7  17
ATOM     17  O   UNL     1      -0.861  12.515  22.513  0.00  0.00    +0.000 OA
BRANCH  17  19
ATOM     18  C   UNL     1      -3.057  12.268  23.409  0.00  0.00    +0.000 C 
ATOM     19  C   UNL     1      -1.907  13.231  23.181  0.00  0.00    +0.000 C 
ENDBRANCH  17  19
ENDBRANCH   7  17
ENDBRANCH   1  13
BRANCH   5  20
ATOM     20  N   UNL     1       2.415   3.818  17.913  0.00  0.00    +0.000 N 
ATOM     21  H   UNL     1       1.648   3.147  17.996  0.00  0.00    +0.000 HD
BRANCH  20  22
ATOM     22  S   UNL     1       3.883   2.983  18.198  0.00  0.00    +0.000 S 
ATOM     23  O   UNL     1       4.000   2.668  19.602  0.00  0.00    +0.000 OA
ATOM     24  O   UNL     1       3.986   1.975  17.166  0.00  0.00    +0.000 OA
BRANCH  22  25
ATOM     25  C   UNL     1       5.080   4.251  17.842  0.00  0.00    +0.000 A 
ATOM     26  C   UNL     1       5.158   4.771  16.542  0.00  0.00    +0.000 A 
ATOM     27  C   UNL     1       6.103   5.759  16.250  0.00  0.00    +0.000 A 
ATOM     28  C   UNL     1       6.949   6.220  17.255  0.00  0.00    +0.000 A 
ATOM     29  F   UNL     1       7.854   7.166  16.966  0.00  0.00    +0.000 F 
ATOM     30  C   UNL     1       6.860   5.705  18.544  0.00  0.00    +0.000 A 
ATOM     31  F   UNL     1       7.673   6.157  19.506  0.00  0.00    +0.000 F 
ATOM     32  C   UNL     1       5.927   4.719  18.851  0.00  0.00    +0.000 A 
ENDBRANCH  22  25
ENDBRANCH  20  22
ENDBRANCH   5  20
TORSDOF 6
ENDMDL
