MODEL 1
REMARK VINA RESULT:      -7.8      0.000      0.000
REMARK  Name = 
REMARK  3 active torsions:
REMARK  status: ('A' for Active; 'I' for Inactive)
REMARK    1  A    between atoms: C_2  and  C_3
REMARK    2  A    between atoms: C_3  and  C_4
REMARK    3  A    between atoms: C_17  and  C_18
REMARK                            x       y       z     vdW  Elec       q    Type
REMARK                         _______ _______ _______ _____ _____    ______ ____
ROOT
ATOM      1  O   UNL     1       7.688   6.326  18.202  0.00  0.00    +0.000 OA
ATOM      2  C   UNL     1       7.081   5.612  17.397  0.00  0.00    +0.000 C 
ATOM      3  N   UNL     1       7.404   5.730  16.064  0.00  0.00    +0.000 N 
ATOM      4  C   UNL     1       6.765   5.071  15.057  0.00  0.00    +0.000 A 
ATOM      5  N   UNL     1       5.592   4.492  15.100  0.00  0.00    +0.000 NA
ATOM      6  C   UNL     1       5.344   3.863  13.904  0.00  0.00    +0.000 A 
ATOM      7  C   UNL     1       6.369   3.934  12.987  0.00  0.00    +0.000 A 
ATOM      8  S   UNL     1       7.611   4.954  13.580  0.00  0.00    +0.000 S 
ATOM      9  H   UNL     1       8.198   6.311  15.841  0.00  0.00    +0.000 HD
ENDROOT
BRANCH   7  10
ATOM     10  C   UNL     1       6.412   3.213  11.649  0.00  0.00    +0.000 C 
ATOM     11  C   UNL     1       7.483   2.084  11.521  0.00  0.00    +0.000 C 
ATOM     12  C   UNL     1       6.429   1.247  10.780  0.00  0.00    +0.000 C 
ATOM     13  C   UNL     1       5.359   2.073  11.517  0.00  0.00    +0.000 C 
ENDBRANCH   7  10
BRANCH   2  14
ATOM     14  C   UNL     1       6.050   4.559  17.799  0.00  0.00    +0.000 C 
BRANCH  14  15
ATOM     15  C   UNL     1       4.779   5.092  18.375  0.00  0.00    +0.000 A 
ATOM     16  C   UNL     1       4.195   6.299  18.057  0.00  0.00    +0.000 A 
ATOM     17  N   UNL     1       3.000   6.391  18.715  0.00  0.00    +0.000 N 
ATOM     18  C   UNL     1       2.780   5.255  19.459  0.00  0.00    +0.000 A 
ATOM     19  C   UNL     1       1.691   4.905  20.265  0.00  0.00    +0.000 A 
ATOM     20  C   UNL     1       1.733   3.663  20.904  0.00  0.00    +0.000 A 
ATOM     21  C   UNL     1       2.817   2.807  20.740  0.00  0.00    +0.000 A 
ATOM     22  C   UNL     1       3.897   3.172  19.926  0.00  0.00    +0.000 A 
ATOM     23  C   UNL     1       3.885   4.422  19.274  0.00  0.00    +0.000 A 
ATOM     24  H   UNL     1       2.359   7.170  18.656  0.00  0.00    +0.000 HD
ENDBRANCH  14  15
ENDBRANCH   2  14
TORSDOF 3
ENDMDL
MODEL 2
REMARK VINA RESULT:      -7.7      1.031      1.043
REMARK  Name = 
REMARK  3 active torsions:
REMARK  status: ('A' for Active; 'I' for Inactive)
REMARK    1  A    between atoms: C_2  and  C_3
REMARK    2  A    between atoms: C_3  and  C_4
REMARK    3  A    between atoms: C_17  and  C_18
REMARK                            x       y       z     vdW  Elec       q    Type
REMARK                         _______ _______ _______ _____ _____    ______ ____
ROOT
ATOM      1  O   UNL     1       7.744   6.524  18.107  0.00  0.00    +0.000 OA
ATOM      2  C   UNL     1       7.188   5.726  17.345  0.00  0.00    +0.000 C 
ATOM      3  N   UNL     1       7.404   5.870  15.994  0.00  0.00    +0.000 N 
ATOM      4  C   UNL     1       6.796   5.119  15.033  0.00  0.00    +0.000 A 
ATOM      5  N   UNL     1       5.717   4.389  15.155  0.00  0.00    +0.000 NA
ATOM      6  C   UNL     1       5.480   3.719  13.979  0.00  0.00    +0.000 A 
ATOM      7  C   UNL     1       6.424   3.916  12.997  0.00  0.00    +0.000 A 
ATOM      8  S   UNL     1       7.553   5.100  13.504  0.00  0.00    +0.000 S 
ATOM      9  H   UNL     1       8.097   6.550  15.717  0.00  0.00    +0.000 HD
ENDROOT
BRANCH   7  10
ATOM     10  C   UNL     1       6.477   3.191  11.660  0.00  0.00    +0.000 C 
ATOM     11  C   UNL     1       7.563   2.076  11.536  0.00  0.00    +0.000 C 
ATOM     12  C   UNL     1       6.520   1.223  10.797  0.00  0.00    +0.000 C 
ATOM     13  C   UNL     1       5.440   2.037  11.532  0.00  0.00    +0.000 C 
ENDBRANCH   7  10
BRANCH   2  14
ATOM     14  C   UNL     1       6.336   4.548  17.817  0.00  0.00    +0.000 C 
BRANCH  14  15
ATOM     15  C   UNL     1       4.914   4.873  18.140  0.00  0.00    +0.000 A 
ATOM     16  C   UNL     1       4.392   6.139  18.294  0.00  0.00    +0.000 A 
ATOM     17  N   UNL     1       3.044   6.033  18.489  0.00  0.00    +0.000 N 
ATOM     18  C   UNL     1       2.663   4.712  18.460  0.00  0.00    +0.000 A 
ATOM     19  C   UNL     1       1.393   4.138  18.591  0.00  0.00    +0.000 A 
ATOM     20  C   UNL     1       1.300   2.747  18.507  0.00  0.00    +0.000 A 
ATOM     21  C   UNL     1       2.431   1.964  18.297  0.00  0.00    +0.000 A 
ATOM     22  C   UNL     1       3.693   2.554  18.165  0.00  0.00    +0.000 A 
ATOM     23  C   UNL     1       3.818   3.956  18.251  0.00  0.00    +0.000 A 
ATOM     24  H   UNL     1       2.409   6.809  18.622  0.00  0.00    +0.000 HD
ENDBRANCH  14  15
ENDBRANCH   2  14
TORSDOF 3
ENDMDL
MODEL 3
REMARK VINA RESULT:      -7.5      3.484      5.145
REMARK  Name = 
REMARK  3 active torsions:
REMARK  status: ('A' for Active; 'I' for Inactive)
REMARK    1  A    between atoms: C_2  and  C_3
REMARK    2  A    between atoms: C_3  and  C_4
REMARK    3  A    between atoms: C_17  and  C_18
REMARK                            x       y       z     vdW  Elec       q    Type
REMARK                         _______ _______ _______ _____ _____    ______ ____
ROOT
ATOM      1  O   UNL     1       0.698   4.514  20.515  0.00  0.00    +0.000 OA
ATOM      2  C   UNL     1       1.805   4.749  20.020  0.00  0.00    +0.000 C 
ATOM      3  N   UNL     1       2.268   3.895  19.045  0.00  0.00    +0.000 N 
ATOM      4  C   UNL     1       3.501   3.981  18.469  0.00  0.00    +0.000 A 
ATOM      5  N   UNL     1       4.546   4.629  18.916  0.00  0.00    +0.000 NA
ATOM      6  C   UNL     1       5.568   4.540  18.000  0.00  0.00    +0.000 A 
ATOM      7  C   UNL     1       5.254   3.863  16.843  0.00  0.00    +0.000 A 
ATOM      8  S   UNL     1       3.689   3.181  16.974  0.00  0.00    +0.000 S 
ATOM      9  H   UNL     1       1.623   3.194  18.714  0.00  0.00    +0.000 HD
ENDROOT
BRANCH   7  10
ATOM     10  C   UNL     1       6.148   3.740  15.619  0.00  0.00    +0.000 C 
ATOM     11  C   UNL     1       5.536   4.253  14.278  0.00  0.00    +0.000 C 
ATOM     12  C   UNL     1       6.907   4.864  13.951  0.00  0.00    +0.000 C 
ATOM     13  C   UNL     1       7.168   4.907  15.468  0.00  0.00    +0.000 C 
ENDBRANCH   7  10
BRANCH   2  14
ATOM     14  C   UNL     1       2.654   5.969  20.372  0.00  0.00    +0.000 C 
BRANCH  14  15
ATOM     15  C   UNL     1       2.226   7.254  19.741  0.00  0.00    +0.000 A 
ATOM     16  C   UNL     1       2.427   7.611  18.425  0.00  0.00    +0.000 A 
ATOM     17  N   UNL     1       1.814   8.812  18.201  0.00  0.00    +0.000 N 
ATOM     18  C   UNL     1       1.202   9.253  19.351  0.00  0.00    +0.000 A 
ATOM     19  C   UNL     1       0.447  10.408  19.582  0.00  0.00    +0.000 A 
ATOM     20  C   UNL     1      -0.071  10.597  20.866  0.00  0.00    +0.000 A 
ATOM     21  C   UNL     1       0.155   9.666  21.874  0.00  0.00    +0.000 A 
ATOM     22  C   UNL     1       0.910   8.513  21.625  0.00  0.00    +0.000 A 
ATOM     23  C   UNL     1       1.450   8.300  20.340  0.00  0.00    +0.000 A 
ATOM     24  H   UNL     1       1.796   9.304  17.318  0.00  0.00    +0.000 HD
ENDBRANCH  14  15
ENDBRANCH   2  14
TORSDOF 3
ENDMDL
MODEL 4
REMARK VINA RESULT:      -7.5      5.795      7.995
REMARK  Name = 
REMARK  3 active torsions:
REMARK  status: ('A' for Active; 'I' for Inactive)
REMARK    1  A    between atoms: C_2  and  C_3
REMARK    2  A    between atoms: C_3  and  C_4
REMARK    3  A    between atoms: C_17  and  C_18
REMARK                            x       y       z     vdW  Elec       q    Type
REMARK                         _______ _______ _______ _____ _____    ______ ____
ROOT
ATOM      1  O   UNL     1       0.864   9.752  22.455  0.00  0.00    +0.000 OA
ATOM      2  C   UNL     1       1.117   9.246  21.358  0.00  0.00    +0.000 C 
ATOM      3  N   UNL     1       1.530   7.933  21.336  0.00  0.00    +0.000 N 
ATOM      4  C   UNL     1       1.922   7.269  20.212  0.00  0.00    +0.000 A 
ATOM      5  N   UNL     1       2.280   7.785  19.064  0.00  0.00    +0.000 NA
ATOM      6  C   UNL     1       2.517   6.777  18.160  0.00  0.00    +0.000 A 
ATOM      7  C   UNL     1       2.280   5.505  18.633  0.00  0.00    +0.000 A 
ATOM      8  S   UNL     1       1.906   5.565  20.303  0.00  0.00    +0.000 S 
ATOM      9  H   UNL     1       1.490   7.432  22.210  0.00  0.00    +0.000 HD
ENDROOT
BRANCH   7  10
ATOM     10  C   UNL     1       2.329   4.230  17.805  0.00  0.00    +0.000 C 
ATOM     11  C   UNL     1       3.751   3.639  17.552  0.00  0.00    +0.000 C 
ATOM     12  C   UNL     1       3.153   2.245  17.794  0.00  0.00    +0.000 C 
ATOM     13  C   UNL     1       2.063   2.937  18.632  0.00  0.00    +0.000 C 
ENDBRANCH   7  10
BRANCH   2  14
ATOM     14  C   UNL     1       0.929   9.965  20.023  0.00  0.00    +0.000 C 
BRANCH  14  15
ATOM     15  C   UNL     1      -0.386  10.652  19.844  0.00  0.00    +0.000 A 
ATOM     16  C   UNL     1      -0.924  11.595  20.694  0.00  0.00    +0.000 A 
ATOM     17  N   UNL     1      -2.088  12.058  20.148  0.00  0.00    +0.000 N 
ATOM     18  C   UNL     1      -2.325  11.441  18.942  0.00  0.00    +0.000 A 
ATOM     19  C   UNL     1      -3.374  11.616  18.032  0.00  0.00    +0.000 A 
ATOM     20  C   UNL     1      -3.352  10.850  16.864  0.00  0.00    +0.000 A 
ATOM     21  C   UNL     1      -2.322   9.948  16.617  0.00  0.00    +0.000 A 
ATOM     22  C   UNL     1      -1.278   9.788  17.536  0.00  0.00    +0.000 A 
ATOM     23  C   UNL     1      -1.277  10.544  18.726  0.00  0.00    +0.000 A 
ATOM     24  H   UNL     1      -2.686  12.764  20.558  0.00  0.00    +0.000 HD
ENDBRANCH  14  15
ENDBRANCH   2  14
TORSDOF 3
ENDMDL
MODEL 5
REMARK VINA RESULT:      -7.3      1.157      2.167
REMARK  Name = 
REMARK  3 active torsions:
REMARK  status: ('A' for Active; 'I' for Inactive)
REMARK    1  A    between atoms: C_2  and  C_3
REMARK    2  A    between atoms: C_3  and  C_4
REMARK    3  A    between atoms: C_17  and  C_18
REMARK                            x       y       z     vdW  Elec       q    Type
REMARK                         _______ _______ _______ _____ _____    ______ ____
ROOT
ATOM      1  O   UNL     1       7.813   6.504  18.159  0.00  0.00    +0.000 OA
ATOM      2  C   UNL     1       7.263   5.702  17.398  0.00  0.00    +0.000 C 
ATOM      3  N   UNL     1       7.433   5.880  16.044  0.00  0.00    +0.000 N 
ATOM      4  C   UNL     1       6.823   5.126  15.086  0.00  0.00    +0.000 A 
ATOM      5  N   UNL     1       5.775   4.356  15.225  0.00  0.00    +0.000 NA
ATOM      6  C   UNL     1       5.526   3.700  14.043  0.00  0.00    +0.000 A 
ATOM      7  C   UNL     1       6.432   3.950  13.037  0.00  0.00    +0.000 A 
ATOM      8  S   UNL     1       7.533   5.164  13.535  0.00  0.00    +0.000 S 
ATOM      9  H   UNL     1       8.092   6.589  15.761  0.00  0.00    +0.000 HD
ENDROOT
BRANCH   7  10
ATOM     10  C   UNL     1       6.471   3.254  11.685  0.00  0.00    +0.000 C 
ATOM     11  C   UNL     1       7.543   2.130  11.532  0.00  0.00    +0.000 C 
ATOM     12  C   UNL     1       6.487   1.305  10.780  0.00  0.00    +0.000 C 
ATOM     13  C   UNL     1       5.419   2.115  11.537  0.00  0.00    +0.000 C 
ENDBRANCH   7  10
BRANCH   2  14
ATOM     14  C   UNL     1       6.468   4.485  17.870  0.00  0.00    +0.000 C 
BRANCH  14  15
ATOM     15  C   UNL     1       5.187   4.789  18.577  0.00  0.00    +0.000 A 
ATOM     16  C   UNL     1       4.677   4.096  19.653  0.00  0.00    +0.000 A 
ATOM     17  N   UNL     1       3.543   4.728  20.080  0.00  0.00    +0.000 N 
ATOM     18  C   UNL     1       3.298   5.837  19.304  0.00  0.00    +0.000 A 
ATOM     19  C   UNL     1       2.272   6.785  19.388  0.00  0.00    +0.000 A 
ATOM     20  C   UNL     1       2.279   7.829  18.460  0.00  0.00    +0.000 A 
ATOM     21  C   UNL     1       3.273   7.922  17.492  0.00  0.00    +0.000 A 
ATOM     22  C   UNL     1       4.294   6.967  17.424  0.00  0.00    +0.000 A 
ATOM     23  C   UNL     1       4.310   5.899  18.344  0.00  0.00    +0.000 A 
ATOM     24  H   UNL     1       2.970   4.437  20.860  0.00  0.00    +0.000 HD
ENDBRANCH  14  15
ENDBRANCH   2  14
TORSDOF 3
ENDMDL
MODEL 6
REMARK VINA RESULT:      -7.2      2.201      7.068
REMARK  Name = 
REMARK  3 active torsions:
REMARK  status: ('A' for Active; 'I' for Inactive)
REMARK    1  A    between atoms: C_2  and  C_3
REMARK    2  A    between atoms: C_3  and  C_4
REMARK    3  A    between atoms: C_17  and  C_18
REMARK                            x       y       z     vdW  Elec       q    Type
REMARK                         _______ _______ _______ _____ _____    ______ ____
ROOT
ATOM      1  O   UNL     1       7.121   7.656  16.759  0.00  0.00    +0.000 OA
ATOM      2  C   UNL     1       6.732   6.593  17.252  0.00  0.00    +0.000 C 
ATOM      3  N   UNL     1       5.602   6.624  18.036  0.00  0.00    +0.000 N 
ATOM      4  C   UNL     1       5.104   5.549  18.711  0.00  0.00    +0.000 A 
ATOM      5  N   UNL     1       5.724   4.436  19.006  0.00  0.00    +0.000 NA
ATOM      6  C   UNL     1       4.847   3.569  19.615  0.00  0.00    +0.000 A 
ATOM      7  C   UNL     1       3.555   4.030  19.722  0.00  0.00    +0.000 A 
ATOM      8  S   UNL     1       3.470   5.656  19.192  0.00  0.00    +0.000 S 
ATOM      9  H   UNL     1       5.095   7.496  18.065  0.00  0.00    +0.000 HD
ENDROOT
BRANCH   7  10
ATOM     10  C   UNL     1       2.366   3.224  20.224  0.00  0.00    +0.000 C 
ATOM     11  C   UNL     1       0.986   3.953  20.183  0.00  0.00    +0.000 C 
ATOM     12  C   UNL     1       0.369   2.635  19.693  0.00  0.00    +0.000 C 
ATOM     13  C   UNL     1       1.763   2.265  19.156  0.00  0.00    +0.000 C 
ENDBRANCH   7  10
BRANCH   2  14
ATOM     14  C   UNL     1       7.388   5.239  16.985  0.00  0.00    +0.000 C 
BRANCH  14  15
ATOM     15  C   UNL     1       6.856   4.489  15.808  0.00  0.00    +0.000 A 
ATOM     16  C   UNL     1       5.885   3.511  15.848  0.00  0.00    +0.000 A 
ATOM     17  N   UNL     1       5.599   3.130  14.567  0.00  0.00    +0.000 N 
ATOM     18  C   UNL     1       6.363   3.849  13.677  0.00  0.00    +0.000 A 
ATOM     19  C   UNL     1       6.389   3.810  12.278  0.00  0.00    +0.000 A 
ATOM     20  C   UNL     1       7.270   4.674  11.623  0.00  0.00    +0.000 A 
ATOM     21  C   UNL     1       8.087   5.543  12.339  0.00  0.00    +0.000 A 
ATOM     22  C   UNL     1       8.046   5.571  13.739  0.00  0.00    +0.000 A 
ATOM     23  C   UNL     1       7.170   4.706  14.426  0.00  0.00    +0.000 A 
ATOM     24  H   UNL     1       4.916   2.432  14.303  0.00  0.00    +0.000 HD
ENDBRANCH  14  15
ENDBRANCH   2  14
TORSDOF 3
ENDMDL
MODEL 7
REMARK VINA RESULT:      -7.1      1.596      2.274
REMARK  Name = 
REMARK  3 active torsions:
REMARK  status: ('A' for Active; 'I' for Inactive)
REMARK    1  A    between atoms: C_2  and  C_3
REMARK    2  A    between atoms: C_3  and  C_4
REMARK    3  A    between atoms: C_17  and  C_18
REMARK                            x       y       z     vdW  Elec       q    Type
REMARK                         _______ _______ _______ _____ _____    ______ ____
ROOT
ATOM      1  O   UNL     1       7.631   5.466  20.175  0.00  0.00    +0.000 OA
ATOM      2  C   UNL     1       6.882   5.507  19.194  0.00  0.00    +0.000 C 
ATOM      3  N   UNL     1       7.447   5.357  17.948  0.00  0.00    +0.000 N 
ATOM      4  C   UNL     1       6.761   5.462  16.775  0.00  0.00    +0.000 A 
ATOM      5  N   UNL     1       5.589   6.011  16.583  0.00  0.00    +0.000 NA
ATOM      6  C   UNL     1       5.207   5.834  15.274  0.00  0.00    +0.000 A 
ATOM      7  C   UNL     1       6.084   5.100  14.507  0.00  0.00    +0.000 A 
ATOM      8  S   UNL     1       7.501   4.761  15.407  0.00  0.00    +0.000 S 
ATOM      9  H   UNL     1       8.424   5.108  17.922  0.00  0.00    +0.000 HD
ENDROOT
BRANCH   7  10
ATOM     10  C   UNL     1       5.841   4.641  13.078  0.00  0.00    +0.000 C 
ATOM     11  C   UNL     1       6.933   3.705  12.470  0.00  0.00    +0.000 C 
ATOM     12  C   UNL     1       5.797   2.882  11.843  0.00  0.00    +0.000 C 
ATOM     13  C   UNL     1       4.888   3.414  12.966  0.00  0.00    +0.000 C 
ENDBRANCH   7  10
BRANCH   2  14
ATOM     14  C   UNL     1       5.363   5.640  19.286  0.00  0.00    +0.000 C 
BRANCH  14  15
ATOM     15  C   UNL     1       4.607   4.352  19.327  0.00  0.00    +0.000 A 
ATOM     16  C   UNL     1       5.129   3.103  19.066  0.00  0.00    +0.000 A 
ATOM     17  N   UNL     1       4.158   2.169  19.297  0.00  0.00    +0.000 N 
ATOM     18  C   UNL     1       3.000   2.783  19.716  0.00  0.00    +0.000 A 
ATOM     19  C   UNL     1       1.769   2.227  20.084  0.00  0.00    +0.000 A 
ATOM     20  C   UNL     1       0.758   3.103  20.484  0.00  0.00    +0.000 A 
ATOM     21  C   UNL     1       0.971   4.477  20.519  0.00  0.00    +0.000 A 
ATOM     22  C   UNL     1       2.209   5.016  20.151  0.00  0.00    +0.000 A 
ATOM     23  C   UNL     1       3.247   4.156  19.737  0.00  0.00    +0.000 A 
ATOM     24  H   UNL     1       4.271   1.170  19.192  0.00  0.00    +0.000 HD
ENDBRANCH  14  15
ENDBRANCH   2  14
TORSDOF 3
ENDMDL
MODEL 8
REMARK VINA RESULT:      -7.0      1.745      2.710
REMARK  Name = 
REMARK  3 active torsions:
REMARK  status: ('A' for Active; 'I' for Inactive)
REMARK    1  A    between atoms: C_2  and  C_3
REMARK    2  A    between atoms: C_3  and  C_4
REMARK    3  A    between atoms: C_17  and  C_18
REMARK                            x       y       z     vdW  Elec       q    Type
REMARK                         _______ _______ _______ _____ _____    ______ ____
ROOT
ATOM      1  O   UNL     1       6.546   4.895  19.819  0.00  0.00    +0.000 OA
ATOM      2  C   UNL     1       5.960   4.694  18.751  0.00  0.00    +0.000 C 
ATOM      3  N   UNL     1       6.674   4.858  17.586  0.00  0.00    +0.000 N 
ATOM      4  C   UNL     1       6.141   4.751  16.336  0.00  0.00    +0.000 A 
ATOM      5  N   UNL     1       4.877   4.799  16.001  0.00  0.00    +0.000 NA
ATOM      6  C   UNL     1       4.749   4.563  14.653  0.00  0.00    +0.000 A 
ATOM      7  C   UNL     1       5.927   4.288  13.997  0.00  0.00    +0.000 A 
ATOM      8  S   UNL     1       7.250   4.489  15.066  0.00  0.00    +0.000 S 
ATOM      9  H   UNL     1       7.664   5.021  17.682  0.00  0.00    +0.000 HD
ENDROOT
BRANCH   7  10
ATOM     10  C   UNL     1       6.052   3.858  12.543  0.00  0.00    +0.000 C 
ATOM     11  C   UNL     1       6.545   2.396  12.308  0.00  0.00    +0.000 C 
ATOM     12  C   UNL     1       5.503   2.286  11.184  0.00  0.00    +0.000 C 
ATOM     13  C   UNL     1       4.709   3.387  11.911  0.00  0.00    +0.000 C 
ENDBRANCH   7  10
BRANCH   2  14
ATOM     14  C   UNL     1       4.517   4.204  18.650  0.00  0.00    +0.000 C 
BRANCH  14  15
ATOM     15  C   UNL     1       3.502   5.045  19.355  0.00  0.00    +0.000 A 
ATOM     16  C   UNL     1       2.919   4.753  20.569  0.00  0.00    +0.000 A 
ATOM     17  N   UNL     1       2.118   5.801  20.929  0.00  0.00    +0.000 N 
ATOM     18  C   UNL     1       2.169   6.787  19.972  0.00  0.00    +0.000 A 
ATOM     19  C   UNL     1       1.535   8.035  19.931  0.00  0.00    +0.000 A 
ATOM     20  C   UNL     1       1.783   8.850  18.823  0.00  0.00    +0.000 A 
ATOM     21  C   UNL     1       2.631   8.434  17.802  0.00  0.00    +0.000 A 
ATOM     22  C   UNL     1       3.260   7.184  17.861  0.00  0.00    +0.000 A 
ATOM     23  C   UNL     1       3.024   6.339  18.964  0.00  0.00    +0.000 A 
ATOM     24  H   UNL     1       1.576   5.856  21.781  0.00  0.00    +0.000 HD
ENDBRANCH  14  15
ENDBRANCH   2  14
TORSDOF 3
ENDMDL
MODEL 9
REMARK VINA RESULT:      -7.0      1.683      2.025
REMARK  Name = 
REMARK  3 active torsions:
REMARK  status: ('A' for Active; 'I' for Inactive)
REMARK    1  A    between atoms: C_2  and  C_3
REMARK    2  A    between atoms: C_3  and  C_4
REMARK    3  A    between atoms: C_17  and  C_18
REMARK                            x       y       z     vdW  Elec       q    Type
REMARK                         _______ _______ _______ _____ _____    ______ ____
ROOT
ATOM      1  O   UNL     1       6.451   5.078  19.972  0.00  0.00    +0.000 OA
ATOM      2  C   UNL     1       5.982   5.315  18.855  0.00  0.00    +0.000 C 
ATOM      3  N   UNL     1       6.630   4.788  17.761  0.00  0.00    +0.000 N 
ATOM      4  C   UNL     1       6.278   5.032  16.467  0.00  0.00    +0.000 A 
ATOM      5  N   UNL     1       5.523   6.000  16.014  0.00  0.00    +0.000 NA
ATOM      6  C   UNL     1       5.337   5.845  14.661  0.00  0.00    +0.000 A 
ATOM      7  C   UNL     1       5.918   4.720  14.120  0.00  0.00    +0.000 A 
ATOM      8  S   UNL     1       6.857   3.921  15.309  0.00  0.00    +0.000 S 
ATOM      9  H   UNL     1       7.384   4.145  17.948  0.00  0.00    +0.000 HD
ENDROOT
BRANCH   7  10
ATOM     10  C   UNL     1       5.750   4.238  12.687  0.00  0.00    +0.000 C 
ATOM     11  C   UNL     1       6.692   3.074  12.248  0.00  0.00    +0.000 C 
ATOM     12  C   UNL     1       5.492   2.456  11.514  0.00  0.00    +0.000 C 
ATOM     13  C   UNL     1       4.589   3.218  12.500  0.00  0.00    +0.000 C 
ENDBRANCH   7  10
BRANCH   2  14
ATOM     14  C   UNL     1       4.688   6.093  18.620  0.00  0.00    +0.000 C 
BRANCH  14  15
ATOM     15  C   UNL     1       3.467   5.518  19.262  0.00  0.00    +0.000 A 
ATOM     16  C   UNL     1       2.695   6.136  20.222  0.00  0.00    +0.000 A 
ATOM     17  N   UNL     1       1.617   5.340  20.492  0.00  0.00    +0.000 N 
ATOM     18  C   UNL     1       1.661   4.205  19.717  0.00  0.00    +0.000 A 
ATOM     19  C   UNL     1       0.765   3.132  19.641  0.00  0.00    +0.000 A 
ATOM     20  C   UNL     1       1.061   2.104  18.743  0.00  0.00    +0.000 A 
ATOM     21  C   UNL     1       2.203   2.151  17.951  0.00  0.00    +0.000 A 
ATOM     22  C   UNL     1       3.087   3.233  18.036  0.00  0.00    +0.000 A 
ATOM     23  C   UNL     1       2.817   4.282  18.938  0.00  0.00    +0.000 A 
ATOM     24  H   UNL     1       0.883   5.555  21.153  0.00  0.00    +0.000 HD
ENDBRANCH  14  15
ENDBRANCH   2  14
TORSDOF 3
ENDMDL
