MODEL 1
REMARK VINA RESULT:      -8.1      0.000      0.000
REMARK  Name = 
REMARK  5 active torsions:
REMARK  status: ('A' for Active; 'I' for Inactive)
REMARK    1  A    between atoms: C_2  and  O_3
REMARK    2  A    between atoms: C_2  and  C_4
REMARK    3  A    between atoms: N_6  and  C_7
REMARK    4  A    between atoms: C_7  and  C_8
REMARK    5  A    between atoms: C_12  and  C_13
REMARK                            x       y       z     vdW  Elec       q    Type
REMARK                         _______ _______ _______ _____ _____    ______ ____
ROOT
ATOM      1  C   UNL     1       2.201   4.310  18.589  0.00  0.00    +0.000 A 
ATOM      2  C   UNL     1       2.376   5.639  18.575  0.00  0.00    +0.000 A 
ATOM      3  N   UNL     1       3.337   6.348  17.861  0.00  0.00    +0.000 N 
ATOM      4  C   UNL     1       4.223   5.631  17.020  0.00  0.00    +0.000 A 
ATOM      5  C   UNL     1       5.229   6.229  16.246  0.00  0.00    +0.000 A 
ATOM      6  C   UNL     1       6.084   5.473  15.433  0.00  0.00    +0.000 A 
ATOM      7  C   UNL     1       5.953   4.091  15.365  0.00  0.00    +0.000 A 
ATOM      8  C   UNL     1       4.968   3.461  16.115  0.00  0.00    +0.000 A 
ATOM      9  C   UNL     1       4.122   4.223  16.935  0.00  0.00    +0.000 A 
ATOM     10  C   UNL     1       3.111   3.509  17.753  0.00  0.00    +0.000 A 
ATOM     11  O   UNL     1       3.030   2.283  17.761  0.00  0.00    +0.000 OA
ENDROOT
BRANCH   1  13
ATOM     12  O   UNL     1       0.835   4.186  20.534  0.00  0.00    +0.000 OA
ATOM     13  C   UNL     1       1.148   3.725  19.443  0.00  0.00    +0.000 C 
BRANCH  13  14
ATOM     14  O   UNL     1       0.559   2.621  18.936  0.00  0.00    +0.000 OA
ATOM     15  H   UNL     1       0.605   2.561  17.949  0.00  0.00    +0.000 HD
ENDBRANCH  13  14
ENDBRANCH   1  13
BRANCH   3  16
ATOM     16  C   UNL     1       3.453   7.818  18.002  0.00  0.00    +0.000 C 
BRANCH  16  17
ATOM     17  C   UNL     1       2.164   8.447  18.490  0.00  0.00    +0.000 A 
ATOM     18  C   UNL     1       1.302   9.094  17.591  0.00  0.00    +0.000 A 
ATOM     19  C   UNL     1       0.153   9.743  18.043  0.00  0.00    +0.000 A 
ATOM     20  C   UNL     1      -0.157   9.750  19.401  0.00  0.00    +0.000 A 
ATOM     21  C   UNL     1       0.664   9.082  20.319  0.00  0.00    +0.000 A 
ATOM     22  C   UNL     1       1.810   8.416  19.849  0.00  0.00    +0.000 A 
BRANCH  21  23
ATOM     23  C   UNL     1       0.349   9.088  21.794  0.00  0.00    +0.000 C 
ATOM     24  F   UNL     1      -0.666   8.250  22.143  0.00  0.00    +0.000 F 
ATOM     25  F   UNL     1       1.417   8.722  22.557  0.00  0.00    +0.000 F 
ATOM     26  F   UNL     1      -0.017  10.323  22.239  0.00  0.00    +0.000 F 
ENDBRANCH  21  23
ENDBRANCH  16  17
ENDBRANCH   3  16
TORSDOF 5
ENDMDL
MODEL 2
REMARK VINA RESULT:      -8.0      0.712      1.090
REMARK  Name = 
REMARK  5 active torsions:
REMARK  status: ('A' for Active; 'I' for Inactive)
REMARK    1  A    between atoms: C_2  and  O_3
REMARK    2  A    between atoms: C_2  and  C_4
REMARK    3  A    between atoms: N_6  and  C_7
REMARK    4  A    between atoms: C_7  and  C_8
REMARK    5  A    between atoms: C_12  and  C_13
REMARK                            x       y       z     vdW  Elec       q    Type
REMARK                         _______ _______ _______ _____ _____    ______ ____
ROOT
ATOM      1  C   UNL     1       2.484   4.671  19.449  0.00  0.00    +0.000 A 
ATOM      2  C   UNL     1       2.501   5.991  19.221  0.00  0.00    +0.000 A 
ATOM      3  N   UNL     1       3.216   6.660  18.232  0.00  0.00    +0.000 N 
ATOM      4  C   UNL     1       3.994   5.899  17.327  0.00  0.00    +0.000 A 
ATOM      5  C   UNL     1       4.754   6.454  16.286  0.00  0.00    +0.000 A 
ATOM      6  C   UNL     1       5.514   5.656  15.419  0.00  0.00    +0.000 A 
ATOM      7  C   UNL     1       5.529   4.274  15.565  0.00  0.00    +0.000 A 
ATOM      8  C   UNL     1       4.789   3.687  16.583  0.00  0.00    +0.000 A 
ATOM      9  C   UNL     1       4.039   4.492  17.454  0.00  0.00    +0.000 A 
ATOM     10  C   UNL     1       3.297   3.830  18.554  0.00  0.00    +0.000 A 
ATOM     11  O   UNL     1       3.358   2.616  18.742  0.00  0.00    +0.000 OA
ENDROOT
BRANCH   1  13
ATOM     12  O   UNL     1       2.151   3.971  21.699  0.00  0.00    +0.000 OA
ATOM     13  C   UNL     1       1.692   4.137  20.575  0.00  0.00    +0.000 C 
BRANCH  13  14
ATOM     14  O   UNL     1       0.415   3.825  20.270  0.00  0.00    +0.000 OA
ATOM     15  H   UNL     1       0.123   2.948  20.622  0.00  0.00    +0.000 HD
ENDBRANCH  13  14
ENDBRANCH   1  13
BRANCH   3  16
ATOM     16  C   UNL     1       3.190   8.139  18.149  0.00  0.00    +0.000 C 
BRANCH  16  17
ATOM     17  C   UNL     1       1.889   8.717  18.670  0.00  0.00    +0.000 A 
ATOM     18  C   UNL     1       0.974   9.318  17.794  0.00  0.00    +0.000 A 
ATOM     19  C   UNL     1      -0.188   9.920  18.275  0.00  0.00    +0.000 A 
ATOM     20  C   UNL     1      -0.458   9.926  19.642  0.00  0.00    +0.000 A 
ATOM     21  C   UNL     1       0.418   9.303  20.539  0.00  0.00    +0.000 A 
ATOM     22  C   UNL     1       1.578   8.682  20.040  0.00  0.00    +0.000 A 
BRANCH  21  23
ATOM     23  C   UNL     1       0.148   9.308  22.023  0.00  0.00    +0.000 C 
ATOM     24  F   UNL     1       1.222   8.948  22.779  0.00  0.00    +0.000 F 
ATOM     25  F   UNL     1      -0.238  10.532  22.478  0.00  0.00    +0.000 F 
ATOM     26  F   UNL     1      -0.855   8.451  22.369  0.00  0.00    +0.000 F 
ENDBRANCH  21  23
ENDBRANCH  16  17
ENDBRANCH   3  16
TORSDOF 5
ENDMDL
MODEL 3
REMARK VINA RESULT:      -8.0      2.715      4.080
REMARK  Name = 
REMARK  5 active torsions:
REMARK  status: ('A' for Active; 'I' for Inactive)
REMARK    1  A    between atoms: C_2  and  O_3
REMARK    2  A    between atoms: C_2  and  C_4
REMARK    3  A    between atoms: N_6  and  C_7
REMARK    4  A    between atoms: C_7  and  C_8
REMARK    5  A    between atoms: C_12  and  C_13
REMARK                            x       y       z     vdW  Elec       q    Type
REMARK                         _______ _______ _______ _____ _____    ______ ____
ROOT
ATOM      1  C   UNL     1       6.034   6.299  17.925  0.00  0.00    +0.000 A 
ATOM      2  C   UNL     1       4.958   7.071  17.718  0.00  0.00    +0.000 A 
ATOM      3  N   UNL     1       3.632   6.655  17.652  0.00  0.00    +0.000 N 
ATOM      4  C   UNL     1       3.340   5.285  17.854  0.00  0.00    +0.000 A 
ATOM      5  C   UNL     1       2.046   4.743  17.818  0.00  0.00    +0.000 A 
ATOM      6  C   UNL     1       1.811   3.376  18.020  0.00  0.00    +0.000 A 
ATOM      7  C   UNL     1       2.867   2.509  18.272  0.00  0.00    +0.000 A 
ATOM      8  C   UNL     1       4.163   3.007  18.316  0.00  0.00    +0.000 A 
ATOM      9  C   UNL     1       4.393   4.374  18.103  0.00  0.00    +0.000 A 
ATOM     10  C   UNL     1       5.794   4.859  18.117  0.00  0.00    +0.000 A 
ATOM     11  O   UNL     1       6.745   4.094  18.265  0.00  0.00    +0.000 OA
ENDROOT
BRANCH   1  13
ATOM     12  O   UNL     1       7.772   7.666  17.045  0.00  0.00    +0.000 OA
ATOM     13  C   UNL     1       7.378   6.911  17.925  0.00  0.00    +0.000 C 
BRANCH  13  14
ATOM     14  O   UNL     1       8.158   6.561  18.969  0.00  0.00    +0.000 OA
ATOM     15  H   UNL     1       7.903   5.701  19.388  0.00  0.00    +0.000 HD
ENDBRANCH  13  14
ENDBRANCH   1  13
BRANCH   3  16
ATOM     16  C   UNL     1       2.551   7.620  17.343  0.00  0.00    +0.000 C 
BRANCH  16  17
ATOM     17  C   UNL     1       1.980   8.256  18.595  0.00  0.00    +0.000 A 
ATOM     18  C   UNL     1       2.078   7.605  19.833  0.00  0.00    +0.000 A 
ATOM     19  C   UNL     1       1.488   8.146  20.975  0.00  0.00    +0.000 A 
ATOM     20  C   UNL     1       0.793   9.352  20.898  0.00  0.00    +0.000 A 
ATOM     21  C   UNL     1       0.707  10.043  19.683  0.00  0.00    +0.000 A 
ATOM     22  C   UNL     1       1.323   9.497  18.543  0.00  0.00    +0.000 A 
BRANCH  21  23
ATOM     23  C   UNL     1      -0.049  11.344  19.579  0.00  0.00    +0.000 C 
ATOM     24  F   UNL     1      -1.401  11.190  19.509  0.00  0.00    +0.000 F 
ATOM     25  F   UNL     1       0.180  12.167  20.640  0.00  0.00    +0.000 F 
ATOM     26  F   UNL     1       0.302  12.059  18.473  0.00  0.00    +0.000 F 
ENDBRANCH  21  23
ENDBRANCH  16  17
ENDBRANCH   3  16
TORSDOF 5
ENDMDL
MODEL 4
REMARK VINA RESULT:      -8.0      4.502      5.906
REMARK  Name = 
REMARK  5 active torsions:
REMARK  status: ('A' for Active; 'I' for Inactive)
REMARK    1  A    between atoms: C_2  and  O_3
REMARK    2  A    between atoms: C_2  and  C_4
REMARK    3  A    between atoms: N_6  and  C_7
REMARK    4  A    between atoms: C_7  and  C_8
REMARK    5  A    between atoms: C_12  and  C_13
REMARK                            x       y       z     vdW  Elec       q    Type
REMARK                         _______ _______ _______ _____ _____    ______ ____
ROOT
ATOM      1  C   UNL     1       6.242   4.051  14.241  0.00  0.00    +0.000 A 
ATOM      2  C   UNL     1       5.509   3.255  15.032  0.00  0.00    +0.000 A 
ATOM      3  N   UNL     1       5.398   3.326  16.417  0.00  0.00    +0.000 N 
ATOM      4  C   UNL     1       6.090   4.354  17.101  0.00  0.00    +0.000 A 
ATOM      5  C   UNL     1       6.054   4.534  18.492  0.00  0.00    +0.000 A 
ATOM      6  C   UNL     1       6.764   5.567  19.122  0.00  0.00    +0.000 A 
ATOM      7  C   UNL     1       7.526   6.456  18.375  0.00  0.00    +0.000 A 
ATOM      8  C   UNL     1       7.586   6.312  16.995  0.00  0.00    +0.000 A 
ATOM      9  C   UNL     1       6.882   5.270  16.371  0.00  0.00    +0.000 A 
ATOM     10  C   UNL     1       7.006   5.124  14.901  0.00  0.00    +0.000 A 
ATOM     11  O   UNL     1       7.733   5.857  14.233  0.00  0.00    +0.000 OA
ENDROOT
BRANCH   1  13
ATOM     12  O   UNL     1       5.393   3.188  12.193  0.00  0.00    +0.000 OA
ATOM     13  C   UNL     1       6.271   3.803  12.786  0.00  0.00    +0.000 C 
BRANCH  13  14
ATOM     14  O   UNL     1       7.356   4.293  12.151  0.00  0.00    +0.000 OA
ATOM     15  H   UNL     1       7.151   5.026  11.518  0.00  0.00    +0.000 HD
ENDBRANCH  13  14
ENDBRANCH   1  13
BRANCH   3  16
ATOM     16  C   UNL     1       4.599   2.326  17.164  0.00  0.00    +0.000 C 
BRANCH  16  17
ATOM     17  C   UNL     1       3.442   2.962  17.909  0.00  0.00    +0.000 A 
ATOM     18  C   UNL     1       2.563   3.833  17.249  0.00  0.00    +0.000 A 
ATOM     19  C   UNL     1       1.543   4.482  17.945  0.00  0.00    +0.000 A 
ATOM     20  C   UNL     1       1.381   4.265  19.312  0.00  0.00    +0.000 A 
ATOM     21  C   UNL     1       2.221   3.373  19.992  0.00  0.00    +0.000 A 
ATOM     22  C   UNL     1       3.234   2.711  19.275  0.00  0.00    +0.000 A 
BRANCH  21  23
ATOM     23  C   UNL     1       2.068   3.134  21.473  0.00  0.00    +0.000 C 
ATOM     24  F   UNL     1       2.917   2.192  21.969  0.00  0.00    +0.000 F 
ATOM     25  F   UNL     1       2.288   4.260  22.209  0.00  0.00    +0.000 F 
ATOM     26  F   UNL     1       0.813   2.716  21.802  0.00  0.00    +0.000 F 
ENDBRANCH  21  23
ENDBRANCH  16  17
ENDBRANCH   3  16
TORSDOF 5
ENDMDL
MODEL 5
REMARK VINA RESULT:      -7.9      2.556      4.055
REMARK  Name = 
REMARK  5 active torsions:
REMARK  status: ('A' for Active; 'I' for Inactive)
REMARK    1  A    between atoms: C_2  and  O_3
REMARK    2  A    between atoms: C_2  and  C_4
REMARK    3  A    between atoms: N_6  and  C_7
REMARK    4  A    between atoms: C_7  and  C_8
REMARK    5  A    between atoms: C_12  and  C_13
REMARK                            x       y       z     vdW  Elec       q    Type
REMARK                         _______ _______ _______ _____ _____    ______ ____
ROOT
ATOM      1  C   UNL     1       5.499   4.763  18.984  0.00  0.00    +0.000 A 
ATOM      2  C   UNL     1       4.787   5.794  18.507  0.00  0.00    +0.000 A 
ATOM      3  N   UNL     1       3.429   5.801  18.201  0.00  0.00    +0.000 N 
ATOM      4  C   UNL     1       2.675   4.625  18.434  0.00  0.00    +0.000 A 
ATOM      5  C   UNL     1       1.302   4.508  18.172  0.00  0.00    +0.000 A 
ATOM      6  C   UNL     1       0.603   3.318  18.416  0.00  0.00    +0.000 A 
ATOM      7  C   UNL     1       1.258   2.208  18.937  0.00  0.00    +0.000 A 
ATOM      8  C   UNL     1       2.617   2.286  19.211  0.00  0.00    +0.000 A 
ATOM      9  C   UNL     1       3.314   3.476  18.956  0.00  0.00    +0.000 A 
ATOM     10  C   UNL     1       4.772   3.504  19.222  0.00  0.00    +0.000 A 
ATOM     11  O   UNL     1       5.381   2.511  19.614  0.00  0.00    +0.000 OA
ENDROOT
BRANCH   1  13
ATOM     12  O   UNL     1       7.409   5.570  20.151  0.00  0.00    +0.000 OA
ATOM     13  C   UNL     1       6.948   4.927  19.216  0.00  0.00    +0.000 C 
BRANCH  13  14
ATOM     14  O   UNL     1       7.738   4.325  18.303  0.00  0.00    +0.000 OA
ATOM     15  H   UNL     1       8.115   4.945  17.629  0.00  0.00    +0.000 HD
ENDBRANCH  13  14
ENDBRANCH   1  13
BRANCH   3  16
ATOM     16  C   UNL     1       2.793   7.002  17.612  0.00  0.00    +0.000 C 
BRANCH  16  17
ATOM     17  C   UNL     1       2.115   7.860  18.661  0.00  0.00    +0.000 A 
ATOM     18  C   UNL     1       2.100   7.463  20.006  0.00  0.00    +0.000 A 
ATOM     19  C   UNL     1       1.412   8.207  20.964  0.00  0.00    +0.000 A 
ATOM     20  C   UNL     1       0.732   9.366  20.594  0.00  0.00    +0.000 A 
ATOM     21  C   UNL     1       0.758   9.808  19.265  0.00  0.00    +0.000 A 
ATOM     22  C   UNL     1       1.471   9.059  18.312  0.00  0.00    +0.000 A 
BRANCH  21  23
ATOM     23  C   UNL     1       0.019  11.054  18.844  0.00  0.00    +0.000 C 
ATOM     24  F   UNL     1       0.832  12.047  18.388  0.00  0.00    +0.000 F 
ATOM     25  F   UNL     1      -0.878  10.816  17.847  0.00  0.00    +0.000 F 
ATOM     26  F   UNL     1      -0.698  11.599  19.867  0.00  0.00    +0.000 F 
ENDBRANCH  21  23
ENDBRANCH  16  17
ENDBRANCH   3  16
TORSDOF 5
ENDMDL
MODEL 6
REMARK VINA RESULT:      -7.9      1.991      2.503
REMARK  Name = 
REMARK  5 active torsions:
REMARK  status: ('A' for Active; 'I' for Inactive)
REMARK    1  A    between atoms: C_2  and  O_3
REMARK    2  A    between atoms: C_2  and  C_4
REMARK    3  A    between atoms: N_6  and  C_7
REMARK    4  A    between atoms: C_7  and  C_8
REMARK    5  A    between atoms: C_12  and  C_13
REMARK                            x       y       z     vdW  Elec       q    Type
REMARK                         _______ _______ _______ _____ _____    ______ ____
ROOT
ATOM      1  C   UNL     1       2.770   4.117  18.688  0.00  0.00    +0.000 A 
ATOM      2  C   UNL     1       2.448   5.323  18.201  0.00  0.00    +0.000 A 
ATOM      3  N   UNL     1       3.327   6.324  17.798  0.00  0.00    +0.000 N 
ATOM      4  C   UNL     1       4.718   6.070  17.861  0.00  0.00    +0.000 A 
ATOM      5  C   UNL     1       5.703   6.993  17.480  0.00  0.00    +0.000 A 
ATOM      6  C   UNL     1       7.070   6.694  17.567  0.00  0.00    +0.000 A 
ATOM      7  C   UNL     1       7.492   5.454  18.033  0.00  0.00    +0.000 A 
ATOM      8  C   UNL     1       6.547   4.512  18.419  0.00  0.00    +0.000 A 
ATOM      9  C   UNL     1       5.181   4.822  18.339  0.00  0.00    +0.000 A 
ATOM     10  C   UNL     1       4.205   3.805  18.801  0.00  0.00    +0.000 A 
ATOM     11  O   UNL     1       4.563   2.733  19.284  0.00  0.00    +0.000 OA
ENDROOT
BRANCH   1  13
ATOM     12  O   UNL     1       0.790   3.511  19.861  0.00  0.00    +0.000 OA
ATOM     13  C   UNL     1       1.698   3.190  19.103  0.00  0.00    +0.000 C 
BRANCH  13  14
ATOM     14  O   UNL     1       1.800   1.944  18.596  0.00  0.00    +0.000 OA
ATOM     15  H   UNL     1       2.708   1.718  18.273  0.00  0.00    +0.000 HD
ENDBRANCH  13  14
ENDBRANCH   1  13
BRANCH   3  16
ATOM     16  C   UNL     1       2.819   7.639  17.346  0.00  0.00    +0.000 C 
BRANCH  16  17
ATOM     17  C   UNL     1       1.992   8.329  18.412  0.00  0.00    +0.000 A 
ATOM     18  C   UNL     1       2.089   7.935  19.755  0.00  0.00    +0.000 A 
ATOM     19  C   UNL     1       1.275   8.511  20.730  0.00  0.00    +0.000 A 
ATOM     20  C   UNL     1       0.355   9.497  20.380  0.00  0.00    +0.000 A 
ATOM     21  C   UNL     1       0.259   9.937  19.053  0.00  0.00    +0.000 A 
ATOM     22  C   UNL     1       1.098   9.362  18.082  0.00  0.00    +0.000 A 
BRANCH  21  23
ATOM     23  C   UNL     1      -0.739  10.995  18.654  0.00  0.00    +0.000 C 
ATOM     24  F   UNL     1      -1.502  10.654  17.579  0.00  0.00    +0.000 F 
ATOM     25  F   UNL     1      -1.613  11.292  19.655  0.00  0.00    +0.000 F 
ATOM     26  F   UNL     1      -0.138  12.174  18.325  0.00  0.00    +0.000 F 
ENDBRANCH  21  23
ENDBRANCH  16  17
ENDBRANCH   3  16
TORSDOF 5
ENDMDL
MODEL 7
REMARK VINA RESULT:      -7.9      3.605      6.511
REMARK  Name = 
REMARK  5 active torsions:
REMARK  status: ('A' for Active; 'I' for Inactive)
REMARK    1  A    between atoms: C_2  and  O_3
REMARK    2  A    between atoms: C_2  and  C_4
REMARK    3  A    between atoms: N_6  and  C_7
REMARK    4  A    between atoms: C_7  and  C_8
REMARK    5  A    between atoms: C_12  and  C_13
REMARK                            x       y       z     vdW  Elec       q    Type
REMARK                         _______ _______ _______ _____ _____    ______ ____
ROOT
ATOM      1  C   UNL     1       2.089   6.982  18.800  0.00  0.00    +0.000 A 
ATOM      2  C   UNL     1       2.564   6.191  17.828  0.00  0.00    +0.000 A 
ATOM      3  N   UNL     1       2.797   4.822  17.904  0.00  0.00    +0.000 N 
ATOM      4  C   UNL     1       2.478   4.145  19.106  0.00  0.00    +0.000 A 
ATOM      5  C   UNL     1       2.661   2.768  19.305  0.00  0.00    +0.000 A 
ATOM      6  C   UNL     1       2.335   2.147  20.519  0.00  0.00    +0.000 A 
ATOM      7  C   UNL     1       1.807   2.887  21.570  0.00  0.00    +0.000 A 
ATOM      8  C   UNL     1       1.611   4.253  21.412  0.00  0.00    +0.000 A 
ATOM      9  C   UNL     1       1.949   4.871  20.198  0.00  0.00    +0.000 A 
ATOM     10  C   UNL     1       1.764   6.337  20.084  0.00  0.00    +0.000 A 
ATOM     11  O   UNL     1       1.368   7.019  21.028  0.00  0.00    +0.000 OA
ENDROOT
BRANCH   1  13
ATOM     12  O   UNL     1       2.341   8.981  17.533  0.00  0.00    +0.000 OA
ATOM     13  C   UNL     1       1.942   8.430  18.552  0.00  0.00    +0.000 C 
BRANCH  13  14
ATOM     14  O   UNL     1       1.345   9.116  19.549  0.00  0.00    +0.000 OA
ATOM     15  H   UNL     1       1.726   8.934  20.444  0.00  0.00    +0.000 HD
ENDBRANCH  13  14
ENDBRANCH   1  13
BRANCH   3  16
ATOM     16  C   UNL     1       3.396   4.092  16.762  0.00  0.00    +0.000 C 
BRANCH  16  17
ATOM     17  C   UNL     1       4.869   4.406  16.594  0.00  0.00    +0.000 A 
ATOM     18  C   UNL     1       5.512   4.176  15.369  0.00  0.00    +0.000 A 
ATOM     19  C   UNL     1       6.883   4.389  15.229  0.00  0.00    +0.000 A 
ATOM     20  C   UNL     1       7.634   4.844  16.311  0.00  0.00    +0.000 A 
ATOM     21  C   UNL     1       7.015   5.117  17.538  0.00  0.00    +0.000 A 
ATOM     22  C   UNL     1       5.628   4.915  17.661  0.00  0.00    +0.000 A 
BRANCH  21  23
ATOM     23  C   UNL     1       7.813   5.599  18.723  0.00  0.00    +0.000 C 
ATOM     24  F   UNL     1       8.853   4.784  19.054  0.00  0.00    +0.000 F 
ATOM     25  F   UNL     1       8.353   6.833  18.521  0.00  0.00    +0.000 F 
ATOM     26  F   UNL     1       7.052   5.707  19.849  0.00  0.00    +0.000 F 
ENDBRANCH  21  23
ENDBRANCH  16  17
ENDBRANCH   3  16
TORSDOF 5
ENDMDL
MODEL 8
REMARK VINA RESULT:      -7.8      3.816      5.973
REMARK  Name = 
REMARK  5 active torsions:
REMARK  status: ('A' for Active; 'I' for Inactive)
REMARK    1  A    between atoms: C_2  and  O_3
REMARK    2  A    between atoms: C_2  and  C_4
REMARK    3  A    between atoms: N_6  and  C_7
REMARK    4  A    between atoms: C_7  and  C_8
REMARK    5  A    between atoms: C_12  and  C_13
REMARK                            x       y       z     vdW  Elec       q    Type
REMARK                         _______ _______ _______ _____ _____    ______ ____
ROOT
ATOM      1  C   UNL     1       2.216   6.660  19.496  0.00  0.00    +0.000 A 
ATOM      2  C   UNL     1       3.153   6.739  18.541  0.00  0.00    +0.000 A 
ATOM      3  N   UNL     1       3.716   5.681  17.833  0.00  0.00    +0.000 N 
ATOM      4  C   UNL     1       3.254   4.369  18.093  0.00  0.00    +0.000 A 
ATOM      5  C   UNL     1       3.737   3.222  17.444  0.00  0.00    +0.000 A 
ATOM      6  C   UNL     1       3.249   1.943  17.743  0.00  0.00    +0.000 A 
ATOM      7  C   UNL     1       2.255   1.773  18.699  0.00  0.00    +0.000 A 
ATOM      8  C   UNL     1       1.750   2.884  19.364  0.00  0.00    +0.000 A 
ATOM      9  C   UNL     1       2.250   4.161  19.067  0.00  0.00    +0.000 A 
ATOM     10  C   UNL     1       1.716   5.315  19.829  0.00  0.00    +0.000 A 
ATOM     11  O   UNL     1       0.890   5.175  20.728  0.00  0.00    +0.000 OA
ENDROOT
BRANCH   1  13
ATOM     12  O   UNL     1       1.398   8.893  19.567  0.00  0.00    +0.000 OA
ATOM     13  C   UNL     1       1.762   7.892  20.171  0.00  0.00    +0.000 C 
BRANCH  13  14
ATOM     14  O   UNL     1       1.793   7.841  21.520  0.00  0.00    +0.000 OA
ATOM     15  H   UNL     1       1.917   6.929  21.882  0.00  0.00    +0.000 HD
ENDBRANCH  13  14
ENDBRANCH   1  13
BRANCH   3  16
ATOM     16  C   UNL     1       4.799   5.920  16.851  0.00  0.00    +0.000 C 
BRANCH  16  17
ATOM     17  C   UNL     1       6.114   6.261  17.524  0.00  0.00    +0.000 A 
ATOM     18  C   UNL     1       6.794   5.300  18.286  0.00  0.00    +0.000 A 
ATOM     19  C   UNL     1       7.963   5.627  18.972  0.00  0.00    +0.000 A 
ATOM     20  C   UNL     1       8.477   6.921  18.901  0.00  0.00    +0.000 A 
ATOM     21  C   UNL     1       7.840   7.893  18.120  0.00  0.00    +0.000 A 
ATOM     22  C   UNL     1       6.672   7.546  17.417  0.00  0.00    +0.000 A 
BRANCH  21  23
ATOM     23  C   UNL     1       8.375   9.301  18.040  0.00  0.00    +0.000 C 
ATOM     24  F   UNL     1       8.961   9.733  19.190  0.00  0.00    +0.000 F 
ATOM     25  F   UNL     1       9.313   9.448  17.063  0.00  0.00    +0.000 F 
ATOM     26  F   UNL     1       7.399  10.209  17.755  0.00  0.00    +0.000 F 
ENDBRANCH  21  23
ENDBRANCH  16  17
ENDBRANCH   3  16
TORSDOF 5
ENDMDL
MODEL 9
REMARK VINA RESULT:      -7.7      2.115      3.794
REMARK  Name = 
REMARK  5 active torsions:
REMARK  status: ('A' for Active; 'I' for Inactive)
REMARK    1  A    between atoms: C_2  and  O_3
REMARK    2  A    between atoms: C_2  and  C_4
REMARK    3  A    between atoms: N_6  and  C_7
REMARK    4  A    between atoms: C_7  and  C_8
REMARK    5  A    between atoms: C_12  and  C_13
REMARK                            x       y       z     vdW  Elec       q    Type
REMARK                         _______ _______ _______ _____ _____    ______ ____
ROOT
ATOM      1  C   UNL     1       5.196   5.427  17.682  0.00  0.00    +0.000 A 
ATOM      2  C   UNL     1       4.538   6.089  18.645  0.00  0.00    +0.000 A 
ATOM      3  N   UNL     1       3.360   5.698  19.272  0.00  0.00    +0.000 N 
ATOM      4  C   UNL     1       2.777   4.459  18.910  0.00  0.00    +0.000 A 
ATOM      5  C   UNL     1       1.596   3.952  19.471  0.00  0.00    +0.000 A 
ATOM      6  C   UNL     1       1.057   2.721  19.072  0.00  0.00    +0.000 A 
ATOM      7  C   UNL     1       1.690   1.955  18.101  0.00  0.00    +0.000 A 
ATOM      8  C   UNL     1       2.863   2.423  17.522  0.00  0.00    +0.000 A 
ATOM      9  C   UNL     1       3.392   3.660  17.918  0.00  0.00    +0.000 A 
ATOM     10  C   UNL     1       4.622   4.143  17.245  0.00  0.00    +0.000 A 
ATOM     11  O   UNL     1       5.155   3.514  16.333  0.00  0.00    +0.000 OA
ENDROOT
BRANCH   1  13
ATOM     12  O   UNL     1       6.492   7.181  16.730  0.00  0.00    +0.000 OA
ATOM     13  C   UNL     1       6.419   6.016  17.101  0.00  0.00    +0.000 C 
BRANCH  13  14
ATOM     14  O   UNL     1       7.459   5.163  16.990  0.00  0.00    +0.000 OA
ATOM     15  H   UNL     1       8.083   5.387  16.255  0.00  0.00    +0.000 HD
ENDBRANCH  13  14
ENDBRANCH   1  13
BRANCH   3  16
ATOM     16  C   UNL     1       2.709   6.574  20.274  0.00  0.00    +0.000 C 
BRANCH  16  17
ATOM     17  C   UNL     1       2.024   7.763  19.633  0.00  0.00    +0.000 A 
ATOM     18  C   UNL     1       2.235   8.062  18.278  0.00  0.00    +0.000 A 
ATOM     19  C   UNL     1       1.670   9.198  17.700  0.00  0.00    +0.000 A 
ATOM     20  C   UNL     1       0.879  10.053  18.465  0.00  0.00    +0.000 A 
ATOM     21  C   UNL     1       0.621   9.763  19.811  0.00  0.00    +0.000 A 
ATOM     22  C   UNL     1       1.181   8.604  20.378  0.00  0.00    +0.000 A 
BRANCH  21  23
ATOM     23  C   UNL     1      -0.224  10.682  20.657  0.00  0.00    +0.000 C 
ATOM     24  F   UNL     1       0.378  11.868  20.951  0.00  0.00    +0.000 F 
ATOM     25  F   UNL     1      -1.407  10.999  20.061  0.00  0.00    +0.000 F 
ATOM     26  F   UNL     1      -0.551  10.124  21.857  0.00  0.00    +0.000 F 
ENDBRANCH  21  23
ENDBRANCH  16  17
ENDBRANCH   3  16
TORSDOF 5
ENDMDL
