MODEL 1
REMARK VINA RESULT:      -5.8      0.000      0.000
REMARK  Name = 
REMARK  3 active torsions:
REMARK  status: ('A' for Active; 'I' for Inactive)
REMARK    1  A    between atoms: C_1  and  C_2
REMARK    2  A    between atoms: C_5  and  N_6
REMARK    3  A    between atoms: C_10  and  C_11
REMARK                            x       y       z     vdW  Elec       q    Type
REMARK                         _______ _______ _______ _____ _____    ______ ____
ROOT
ATOM      1  C   UNL     1       1.563   4.491  17.836  0.00  0.00    +0.000 C 
ATOM      2  C   UNL     1       3.028   4.693  17.553  0.00  0.00    +0.000 A 
ATOM      3  C   UNL     1       3.791   3.608  17.091  0.00  0.00    +0.000 A 
ATOM      4  C   UNL     1       5.147   3.761  16.796  0.00  0.00    +0.000 A 
ATOM      5  C   UNL     1       5.747   5.012  16.957  0.00  0.00    +0.000 A 
ATOM      6  C   UNL     1       5.005   6.102  17.431  0.00  0.00    +0.000 A 
ATOM      7  C   UNL     1       3.643   5.950  17.738  0.00  0.00    +0.000 A 
ATOM      8  C   UNL     1       2.868   7.130  18.262  0.00  0.00    +0.000 C 
ENDROOT
BRANCH   5   9
ATOM      9  N   UNL     1       7.165   5.186  16.620  0.00  0.00    +0.000 N 
ATOM     10  O   UNL     1       7.978   4.392  17.114  0.00  0.00    +0.000 OA
ATOM     11  O   UNL     1       7.469   6.115  15.858  0.00  0.00    +0.000 OA
ENDBRANCH   5   9
TORSDOF 1
ENDMDL
MODEL 2
REMARK VINA RESULT:      -5.7      0.701      2.271
REMARK  Name = 
REMARK  3 active torsions:
REMARK  status: ('A' for Active; 'I' for Inactive)
REMARK    1  A    between atoms: C_1  and  C_2
REMARK    2  A    between atoms: C_5  and  N_6
REMARK    3  A    between atoms: C_10  and  C_11
REMARK                            x       y       z     vdW  Elec       q    Type
REMARK                         _______ _______ _______ _____ _____    ______ ____
ROOT
ATOM      1  C   UNL     1       1.812   5.141  18.246  0.00  0.00    +0.000 C 
ATOM      2  C   UNL     1       3.208   5.038  17.691  0.00  0.00    +0.000 A 
ATOM      3  C   UNL     1       3.959   6.211  17.508  0.00  0.00    +0.000 A 
ATOM      4  C   UNL     1       5.265   6.156  17.018  0.00  0.00    +0.000 A 
ATOM      5  C   UNL     1       5.831   4.915  16.713  0.00  0.00    +0.000 A 
ATOM      6  C   UNL     1       5.091   3.736  16.874  0.00  0.00    +0.000 A 
ATOM      7  C   UNL     1       3.774   3.788  17.358  0.00  0.00    +0.000 A 
ATOM      8  C   UNL     1       2.992   2.511  17.508  0.00  0.00    +0.000 C 
ENDROOT
BRANCH   5   9
ATOM      9  N   UNL     1       7.214   4.848  16.225  0.00  0.00    +0.000 N 
ATOM     10  O   UNL     1       7.476   5.413  15.153  0.00  0.00    +0.000 OA
ATOM     11  O   UNL     1       8.041   4.235  16.915  0.00  0.00    +0.000 OA
ENDBRANCH   5   9
TORSDOF 1
ENDMDL
MODEL 3
REMARK VINA RESULT:      -5.6      0.562      2.070
REMARK  Name = 
REMARK  3 active torsions:
REMARK  status: ('A' for Active; 'I' for Inactive)
REMARK    1  A    between atoms: C_1  and  C_2
REMARK    2  A    between atoms: C_5  and  N_6
REMARK    3  A    between atoms: C_10  and  C_11
REMARK                            x       y       z     vdW  Elec       q    Type
REMARK                         _______ _______ _______ _____ _____    ______ ____
ROOT
ATOM      1  C   UNL     1       1.654   4.847  18.176  0.00  0.00    +0.000 C 
ATOM      2  C   UNL     1       3.098   4.961  17.766  0.00  0.00    +0.000 A 
ATOM      3  C   UNL     1       3.666   6.236  17.608  0.00  0.00    +0.000 A 
ATOM      4  C   UNL     1       5.007   6.384  17.251  0.00  0.00    +0.000 A 
ATOM      5  C   UNL     1       5.793   5.246  17.054  0.00  0.00    +0.000 A 
ATOM      6  C   UNL     1       5.240   3.965  17.191  0.00  0.00    +0.000 A 
ATOM      7  C   UNL     1       3.889   3.813  17.542  0.00  0.00    +0.000 A 
ATOM      8  C   UNL     1       3.311   2.429  17.668  0.00  0.00    +0.000 C 
ENDROOT
BRANCH   5   9
ATOM      9  N   UNL     1       7.212   5.394  16.707  0.00  0.00    +0.000 N 
ATOM     10  O   UNL     1       7.957   4.421  16.891  0.00  0.00    +0.000 OA
ATOM     11  O   UNL     1       7.583   6.483  16.246  0.00  0.00    +0.000 OA
ENDBRANCH   5   9
TORSDOF 1
ENDMDL
MODEL 4
REMARK VINA RESULT:      -5.6      1.176      1.307
REMARK  Name = 
REMARK  3 active torsions:
REMARK  status: ('A' for Active; 'I' for Inactive)
REMARK    1  A    between atoms: C_1  and  C_2
REMARK    2  A    between atoms: C_5  and  N_6
REMARK    3  A    between atoms: C_10  and  C_11
REMARK                            x       y       z     vdW  Elec       q    Type
REMARK                         _______ _______ _______ _____ _____    ______ ____
ROOT
ATOM      1  C   UNL     1       1.570   4.419  17.683  0.00  0.00    +0.000 C 
ATOM      2  C   UNL     1       3.072   4.481  17.769  0.00  0.00    +0.000 A 
ATOM      3  C   UNL     1       3.841   3.788  16.820  0.00  0.00    +0.000 A 
ATOM      4  C   UNL     1       5.235   3.839  16.852  0.00  0.00    +0.000 A 
ATOM      5  C   UNL     1       5.871   4.596  17.840  0.00  0.00    +0.000 A 
ATOM      6  C   UNL     1       5.121   5.281  18.805  0.00  0.00    +0.000 A 
ATOM      7  C   UNL     1       3.718   5.225  18.781  0.00  0.00    +0.000 A 
ATOM      8  C   UNL     1       2.932   5.955  19.837  0.00  0.00    +0.000 C 
ENDROOT
BRANCH   5   9
ATOM      9  N   UNL     1       7.337   4.678  17.861  0.00  0.00    +0.000 N 
ATOM     10  O   UNL     1       7.882   4.999  18.927  0.00  0.00    +0.000 OA
ATOM     11  O   UNL     1       7.946   4.416  16.814  0.00  0.00    +0.000 OA
ENDBRANCH   5   9
TORSDOF 1
ENDMDL
MODEL 5
REMARK VINA RESULT:      -5.5      1.450      2.451
REMARK  Name = 
REMARK  3 active torsions:
REMARK  status: ('A' for Active; 'I' for Inactive)
REMARK    1  A    between atoms: C_1  and  C_2
REMARK    2  A    between atoms: C_5  and  N_6
REMARK    3  A    between atoms: C_10  and  C_11
REMARK                            x       y       z     vdW  Elec       q    Type
REMARK                         _______ _______ _______ _____ _____    ______ ____
ROOT
ATOM      1  C   UNL     1       2.547   5.856  18.709  0.00  0.00    +0.000 C 
ATOM      2  C   UNL     1       3.589   5.550  17.667  0.00  0.00    +0.000 A 
ATOM      3  C   UNL     1       4.378   6.597  17.162  0.00  0.00    +0.000 A 
ATOM      4  C   UNL     1       5.370   6.352  16.211  0.00  0.00    +0.000 A 
ATOM      5  C   UNL     1       5.582   5.045  15.763  0.00  0.00    +0.000 A 
ATOM      6  C   UNL     1       4.794   3.990  16.244  0.00  0.00    +0.000 A 
ATOM      7  C   UNL     1       3.789   4.235  17.193  0.00  0.00    +0.000 A 
ATOM      8  C   UNL     1       2.943   3.091  17.685  0.00  0.00    +0.000 C 
ENDROOT
BRANCH   5   9
ATOM      9  N   UNL     1       6.644   4.776  14.785  0.00  0.00    +0.000 N 
ATOM     10  O   UNL     1       6.462   3.856  13.975  0.00  0.00    +0.000 OA
ATOM     11  O   UNL     1       7.658   5.487  14.823  0.00  0.00    +0.000 OA
ENDBRANCH   5   9
TORSDOF 1
ENDMDL
MODEL 6
REMARK VINA RESULT:      -5.5      0.933      1.127
REMARK  Name = 
REMARK  3 active torsions:
REMARK  status: ('A' for Active; 'I' for Inactive)
REMARK    1  A    between atoms: C_1  and  C_2
REMARK    2  A    between atoms: C_5  and  N_6
REMARK    3  A    between atoms: C_10  and  C_11
REMARK                            x       y       z     vdW  Elec       q    Type
REMARK                         _______ _______ _______ _____ _____    ______ ____
ROOT
ATOM      1  C   UNL     1       1.894   4.718  18.508  0.00  0.00    +0.000 C 
ATOM      2  C   UNL     1       3.162   4.879  17.714  0.00  0.00    +0.000 A 
ATOM      3  C   UNL     1       3.812   3.734  17.223  0.00  0.00    +0.000 A 
ATOM      4  C   UNL     1       4.977   3.842  16.463  0.00  0.00    +0.000 A 
ATOM      5  C   UNL     1       5.499   5.108  16.184  0.00  0.00    +0.000 A 
ATOM      6  C   UNL     1       4.874   6.261  16.678  0.00  0.00    +0.000 A 
ATOM      7  C   UNL     1       3.706   6.156  17.451  0.00  0.00    +0.000 A 
ATOM      8  C   UNL     1       3.060   7.405  17.986  0.00  0.00    +0.000 C 
ENDROOT
BRANCH   5   9
ATOM      9  N   UNL     1       6.708   5.230  15.361  0.00  0.00    +0.000 N 
ATOM     10  O   UNL     1       7.613   5.971  15.769  0.00  0.00    +0.000 OA
ATOM     11  O   UNL     1       6.758   4.580  14.306  0.00  0.00    +0.000 OA
ENDBRANCH   5   9
TORSDOF 1
ENDMDL
MODEL 7
REMARK VINA RESULT:      -5.4      4.178      4.700
REMARK  Name = 
REMARK  3 active torsions:
REMARK  status: ('A' for Active; 'I' for Inactive)
REMARK    1  A    between atoms: C_1  and  C_2
REMARK    2  A    between atoms: C_5  and  N_6
REMARK    3  A    between atoms: C_10  and  C_11
REMARK                            x       y       z     vdW  Elec       q    Type
REMARK                         _______ _______ _______ _____ _____    ______ ____
ROOT
ATOM      1  C   UNL     1       5.125   5.869  16.460  0.00  0.00    +0.000 C 
ATOM      2  C   UNL     1       4.022   5.104  17.142  0.00  0.00    +0.000 A 
ATOM      3  C   UNL     1       3.972   3.707  17.003  0.00  0.00    +0.000 A 
ATOM      4  C   UNL     1       2.979   2.959  17.638  0.00  0.00    +0.000 A 
ATOM      5  C   UNL     1       2.028   3.612  18.426  0.00  0.00    +0.000 A 
ATOM      6  C   UNL     1       2.052   5.007  18.563  0.00  0.00    +0.000 A 
ATOM      7  C   UNL     1       3.044   5.763  17.919  0.00  0.00    +0.000 A 
ATOM      8  C   UNL     1       3.043   7.261  18.066  0.00  0.00    +0.000 C 
ENDROOT
BRANCH   5   9
ATOM      9  N   UNL     1       0.998   2.829  19.120  0.00  0.00    +0.000 N 
ATOM     10  O   UNL     1       0.266   2.102  18.434  0.00  0.00    +0.000 OA
ATOM     11  O   UNL     1       0.924   2.935  20.353  0.00  0.00    +0.000 OA
ENDBRANCH   5   9
TORSDOF 1
ENDMDL
MODEL 8
REMARK VINA RESULT:      -5.4      1.298      2.288
REMARK  Name = 
REMARK  3 active torsions:
REMARK  status: ('A' for Active; 'I' for Inactive)
REMARK    1  A    between atoms: C_1  and  C_2
REMARK    2  A    between atoms: C_5  and  N_6
REMARK    3  A    between atoms: C_10  and  C_11
REMARK                            x       y       z     vdW  Elec       q    Type
REMARK                         _______ _______ _______ _____ _____    ______ ____
ROOT
ATOM      1  C   UNL     1       2.370   6.439  18.683  0.00  0.00    +0.000 C 
ATOM      2  C   UNL     1       3.462   5.886  17.805  0.00  0.00    +0.000 A 
ATOM      3  C   UNL     1       4.500   6.736  17.389  0.00  0.00    +0.000 A 
ATOM      4  C   UNL     1       5.543   6.257  16.594  0.00  0.00    +0.000 A 
ATOM      5  C   UNL     1       5.552   4.912  16.214  0.00  0.00    +0.000 A 
ATOM      6  C   UNL     1       4.517   4.054  16.606  0.00  0.00    +0.000 A 
ATOM      7  C   UNL     1       3.462   4.534  17.398  0.00  0.00    +0.000 A 
ATOM      8  C   UNL     1       2.351   3.599  17.795  0.00  0.00    +0.000 C 
ENDROOT
BRANCH   5   9
ATOM      9  N   UNL     1       6.661   4.395  15.402  0.00  0.00    +0.000 N 
ATOM     10  O   UNL     1       7.816   4.622  15.791  0.00  0.00    +0.000 OA
ATOM     11  O   UNL     1       6.379   3.758  14.377  0.00  0.00    +0.000 OA
ENDBRANCH   5   9
TORSDOF 1
ENDMDL
MODEL 9
REMARK VINA RESULT:      -5.4      1.635      2.255
REMARK  Name = 
REMARK  3 active torsions:
REMARK  status: ('A' for Active; 'I' for Inactive)
REMARK    1  A    between atoms: C_1  and  C_2
REMARK    2  A    between atoms: C_5  and  N_6
REMARK    3  A    between atoms: C_10  and  C_11
REMARK                            x       y       z     vdW  Elec       q    Type
REMARK                         _______ _______ _______ _____ _____    ______ ____
ROOT
ATOM      1  C   UNL     1       2.314   7.156  18.285  0.00  0.00    +0.000 C 
ATOM      2  C   UNL     1       3.643   6.476  18.085  0.00  0.00    +0.000 A 
ATOM      3  C   UNL     1       4.474   6.896  17.033  0.00  0.00    +0.000 A 
ATOM      4  C   UNL     1       5.723   6.307  16.828  0.00  0.00    +0.000 A 
ATOM      5  C   UNL     1       6.151   5.292  17.688  0.00  0.00    +0.000 A 
ATOM      6  C   UNL     1       5.329   4.849  18.733  0.00  0.00    +0.000 A 
ATOM      7  C   UNL     1       4.068   5.433  18.936  0.00  0.00    +0.000 A 
ATOM      8  C   UNL     1       3.195   4.932  20.055  0.00  0.00    +0.000 C 
ENDROOT
BRANCH   5   9
ATOM      9  N   UNL     1       7.476   4.689  17.496  0.00  0.00    +0.000 N 
ATOM     10  O   UNL     1       7.834   4.439  16.336  0.00  0.00    +0.000 OA
ATOM     11  O   UNL     1       8.162   4.468  18.504  0.00  0.00    +0.000 OA
ENDBRANCH   5   9
TORSDOF 1
ENDMDL
