MODEL 1
REMARK VINA RESULT:      -6.8      0.000      0.000
REMARK  Name = 
REMARK  3 active torsions:
REMARK  status: ('A' for Active; 'I' for Inactive)
REMARK    1  A    between atoms: N_8  and  C_9
REMARK    2  A    between atoms: C_9  and  C_10
REMARK    3  A    between atoms: C_10  and  C_11
REMARK                            x       y       z     vdW  Elec       q    Type
REMARK                         _______ _______ _______ _____ _____    ______ ____
ROOT
ATOM      1  O   UNL     1       5.479   6.675  15.712  0.00  0.00    +0.000 OA
ATOM      2  C   UNL     1       5.973   6.374  16.795  0.00  0.00    +0.000 A 
ATOM      3  C   UNL     1       7.302   6.944  17.161  0.00  0.00    +0.000 A 
ATOM      4  C   UNL     1       7.880   6.627  18.328  0.00  0.00    +0.000 A 
ATOM      5  C   UNL     1       7.220   5.732  19.234  0.00  0.00    +0.000 A 
ATOM      6  F   UNL     1       7.834   5.424  20.394  0.00  0.00    +0.000 F 
ATOM      7  C   UNL     1       6.033   5.202  18.926  0.00  0.00    +0.000 A 
ATOM      8  N   UNL     1       5.391   5.513  17.734  0.00  0.00    +0.000 N 
ENDROOT
BRANCH   8   9
ATOM      9  C   UNL     1       4.126   4.851  17.404  0.00  0.00    +0.000 C 
BRANCH   9  10
ATOM     10  C   UNL     1       2.865   5.623  17.819  0.00  0.00    +0.000 C 
BRANCH  10  11
ATOM     11  C   UNL     1       1.793   4.758  18.483  0.00  0.00    +0.000 C 
ATOM     12  C   UNL     1       1.762   3.312  17.998  0.00  0.00    +0.000 C 
ATOM     13  C   UNL     1       0.917   2.608  19.052  0.00  0.00    +0.000 C 
ATOM     14  C   UNL     1       1.171   3.364  20.356  0.00  0.00    +0.000 C 
ATOM     15  C   UNL     1       2.019   4.579  19.985  0.00  0.00    +0.000 C 
ENDBRANCH  10  11
ENDBRANCH   9  10
ENDBRANCH   8   9
TORSDOF 3
ENDMDL
MODEL 2
REMARK VINA RESULT:      -6.7      1.693      2.068
REMARK  Name = 
REMARK  3 active torsions:
REMARK  status: ('A' for Active; 'I' for Inactive)
REMARK    1  A    between atoms: N_8  and  C_9
REMARK    2  A    between atoms: C_9  and  C_10
REMARK    3  A    between atoms: C_10  and  C_11
REMARK                            x       y       z     vdW  Elec       q    Type
REMARK                         _______ _______ _______ _____ _____    ______ ____
ROOT
ATOM      1  O   UNL     1       5.883   3.943  19.069  0.00  0.00    +0.000 OA
ATOM      2  C   UNL     1       6.272   5.009  18.600  0.00  0.00    +0.000 A 
ATOM      3  C   UNL     1       7.579   5.561  19.061  0.00  0.00    +0.000 A 
ATOM      4  C   UNL     1       8.030   6.729  18.583  0.00  0.00    +0.000 A 
ATOM      5  C   UNL     1       7.254   7.459  17.622  0.00  0.00    +0.000 A 
ATOM      6  F   UNL     1       7.730   8.636  17.171  0.00  0.00    +0.000 F 
ATOM      7  C   UNL     1       6.076   6.990  17.200  0.00  0.00    +0.000 A 
ATOM      8  N   UNL     1       5.575   5.777  17.658  0.00  0.00    +0.000 N 
ENDROOT
BRANCH   8   9
ATOM      9  C   UNL     1       4.246   5.338  17.225  0.00  0.00    +0.000 C 
BRANCH   9  10
ATOM     10  C   UNL     1       3.082   5.865  18.076  0.00  0.00    +0.000 C 
BRANCH  10  11
ATOM     11  C   UNL     1       1.992   4.829  18.352  0.00  0.00    +0.000 C 
ATOM     12  C   UNL     1       2.423   3.384  18.118  0.00  0.00    +0.000 C 
ATOM     13  C   UNL     1       1.335   2.577  18.815  0.00  0.00    +0.000 C 
ATOM     14  C   UNL     1       0.858   3.447  19.978  0.00  0.00    +0.000 C 
ATOM     15  C   UNL     1       1.562   4.792  19.820  0.00  0.00    +0.000 C 
ENDBRANCH  10  11
ENDBRANCH   9  10
ENDBRANCH   8   9
TORSDOF 3
ENDMDL
MODEL 3
REMARK VINA RESULT:      -6.6      2.349      2.898
REMARK  Name = 
REMARK  3 active torsions:
REMARK  status: ('A' for Active; 'I' for Inactive)
REMARK    1  A    between atoms: N_8  and  C_9
REMARK    2  A    between atoms: C_9  and  C_10
REMARK    3  A    between atoms: C_10  and  C_11
REMARK                            x       y       z     vdW  Elec       q    Type
REMARK                         _______ _______ _______ _____ _____    ______ ____
ROOT
ATOM      1  O   UNL     1       6.863   5.200  19.515  0.00  0.00    +0.000 OA
ATOM      2  C   UNL     1       6.475   5.116  18.353  0.00  0.00    +0.000 A 
ATOM      3  C   UNL     1       7.419   4.604  17.317  0.00  0.00    +0.000 A 
ATOM      4  C   UNL     1       7.036   4.513  16.036  0.00  0.00    +0.000 A 
ATOM      5  C   UNL     1       5.713   4.911  15.652  0.00  0.00    +0.000 A 
ATOM      6  F   UNL     1       5.365   4.818  14.353  0.00  0.00    +0.000 F 
ATOM      7  C   UNL     1       4.852   5.381  16.559  0.00  0.00    +0.000 A 
ATOM      8  N   UNL     1       5.200   5.480  17.901  0.00  0.00    +0.000 N 
ENDROOT
BRANCH   8   9
ATOM      9  C   UNL     1       4.251   6.070  18.848  0.00  0.00    +0.000 C 
BRANCH   9  10
ATOM     10  C   UNL     1       2.776   5.738  18.578  0.00  0.00    +0.000 C 
BRANCH  10  11
ATOM     11  C   UNL     1       2.337   4.372  19.106  0.00  0.00    +0.000 C 
ATOM     12  C   UNL     1       1.389   4.434  20.300  0.00  0.00    +0.000 C 
ATOM     13  C   UNL     1       0.821   3.022  20.369  0.00  0.00    +0.000 C 
ATOM     14  C   UNL     1       0.801   2.515  18.927  0.00  0.00    +0.000 C 
ATOM     15  C   UNL     1       1.510   3.579  18.092  0.00  0.00    +0.000 C 
ENDBRANCH  10  11
ENDBRANCH   9  10
ENDBRANCH   8   9
TORSDOF 3
ENDMDL
MODEL 4
REMARK VINA RESULT:      -6.6      2.272      2.786
REMARK  Name = 
REMARK  3 active torsions:
REMARK  status: ('A' for Active; 'I' for Inactive)
REMARK    1  A    between atoms: N_8  and  C_9
REMARK    2  A    between atoms: C_9  and  C_10
REMARK    3  A    between atoms: C_10  and  C_11
REMARK                            x       y       z     vdW  Elec       q    Type
REMARK                         _______ _______ _______ _____ _____    ______ ____
ROOT
ATOM      1  O   UNL     1       7.216   5.259  20.156  0.00  0.00    +0.000 OA
ATOM      2  C   UNL     1       6.799   5.441  19.016  0.00  0.00    +0.000 A 
ATOM      3  C   UNL     1       7.470   6.464  18.161  0.00  0.00    +0.000 A 
ATOM      4  C   UNL     1       7.034   6.701  16.916  0.00  0.00    +0.000 A 
ATOM      5  C   UNL     1       5.913   5.972  16.398  0.00  0.00    +0.000 A 
ATOM      6  F   UNL     1       5.492   6.244  15.147  0.00  0.00    +0.000 F 
ATOM      7  C   UNL     1       5.289   5.058  17.146  0.00  0.00    +0.000 A 
ATOM      8  N   UNL     1       5.715   4.769  18.437  0.00  0.00    +0.000 N 
ENDROOT
BRANCH   8   9
ATOM      9  C   UNL     1       4.957   3.812  19.248  0.00  0.00    +0.000 C 
BRANCH   9  10
ATOM     10  C   UNL     1       3.898   3.009  18.478  0.00  0.00    +0.000 C 
BRANCH  10  11
ATOM     11  C   UNL     1       2.552   2.902  19.196  0.00  0.00    +0.000 C 
ATOM     12  C   UNL     1       2.656   2.566  20.681  0.00  0.00    +0.000 C 
ATOM     13  C   UNL     1       1.267   2.898  21.212  0.00  0.00    +0.000 C 
ATOM     14  C   UNL     1       0.754   4.043  20.339  0.00  0.00    +0.000 C 
ATOM     15  C   UNL     1       1.786   4.226  19.228  0.00  0.00    +0.000 C 
ENDBRANCH  10  11
ENDBRANCH   9  10
ENDBRANCH   8   9
TORSDOF 3
ENDMDL
MODEL 5
REMARK VINA RESULT:      -6.6      0.840      1.282
REMARK  Name = 
REMARK  3 active torsions:
REMARK  status: ('A' for Active; 'I' for Inactive)
REMARK    1  A    between atoms: N_8  and  C_9
REMARK    2  A    between atoms: C_9  and  C_10
REMARK    3  A    between atoms: C_10  and  C_11
REMARK                            x       y       z     vdW  Elec       q    Type
REMARK                         _______ _______ _______ _____ _____    ______ ____
ROOT
ATOM      1  O   UNL     1       5.186   6.839  15.918  0.00  0.00    +0.000 OA
ATOM      2  C   UNL     1       5.742   6.478  16.951  0.00  0.00    +0.000 A 
ATOM      3  C   UNL     1       7.107   7.001  17.251  0.00  0.00    +0.000 A 
ATOM      4  C   UNL     1       7.752   6.618  18.362  0.00  0.00    +0.000 A 
ATOM      5  C   UNL     1       7.133   5.696  19.269  0.00  0.00    +0.000 A 
ATOM      6  F   UNL     1       7.814   5.322  20.370  0.00  0.00    +0.000 F 
ATOM      7  C   UNL     1       5.915   5.207  19.019  0.00  0.00    +0.000 A 
ATOM      8  N   UNL     1       5.203   5.587  17.887  0.00  0.00    +0.000 N 
ENDROOT
BRANCH   8   9
ATOM      9  C   UNL     1       3.903   4.968  17.614  0.00  0.00    +0.000 C 
BRANCH   9  10
ATOM     10  C   UNL     1       3.824   3.465  17.922  0.00  0.00    +0.000 C 
BRANCH  10  11
ATOM     11  C   UNL     1       2.716   3.086  18.904  0.00  0.00    +0.000 C 
ATOM     12  C   UNL     1       3.160   3.027  20.363  0.00  0.00    +0.000 C 
ATOM     13  C   UNL     1       1.844   3.022  21.129  0.00  0.00    +0.000 C 
ATOM     14  C   UNL     1       0.864   3.823  20.272  0.00  0.00    +0.000 C 
ATOM     15  C   UNL     1       1.592   4.122  18.963  0.00  0.00    +0.000 C 
ENDBRANCH  10  11
ENDBRANCH   9  10
ENDBRANCH   8   9
TORSDOF 3
ENDMDL
MODEL 6
REMARK VINA RESULT:      -6.6      2.968      5.750
REMARK  Name = 
REMARK  3 active torsions:
REMARK  status: ('A' for Active; 'I' for Inactive)
REMARK    1  A    between atoms: N_8  and  C_9
REMARK    2  A    between atoms: C_9  and  C_10
REMARK    3  A    between atoms: C_10  and  C_11
REMARK                            x       y       z     vdW  Elec       q    Type
REMARK                         _______ _______ _______ _____ _____    ______ ____
ROOT
ATOM      1  O   UNL     1       4.914   1.998  20.067  0.00  0.00    +0.000 OA
ATOM      2  C   UNL     1       3.851   2.612  20.096  0.00  0.00    +0.000 A 
ATOM      3  C   UNL     1       3.025   2.558  21.338  0.00  0.00    +0.000 A 
ATOM      4  C   UNL     1       1.852   3.203  21.402  0.00  0.00    +0.000 A 
ATOM      5  C   UNL     1       1.380   3.949  20.271  0.00  0.00    +0.000 A 
ATOM      6  F   UNL     1       0.191   4.575  20.364  0.00  0.00    +0.000 F 
ATOM      7  C   UNL     1       2.097   4.005  19.144  0.00  0.00    +0.000 A 
ATOM      8  N   UNL     1       3.325   3.364  19.038  0.00  0.00    +0.000 N 
ENDROOT
BRANCH   8   9
ATOM      9  C   UNL     1       4.042   3.391  17.760  0.00  0.00    +0.000 C 
BRANCH   9  10
ATOM     10  C   UNL     1       4.265   4.793  17.173  0.00  0.00    +0.000 C 
BRANCH  10  11
ATOM     11  C   UNL     1       5.358   5.597  17.875  0.00  0.00    +0.000 C 
ATOM     12  C   UNL     1       6.576   4.777  18.289  0.00  0.00    +0.000 C 
ATOM     13  C   UNL     1       7.627   5.838  18.590  0.00  0.00    +0.000 C 
ATOM     14  C   UNL     1       7.309   7.008  17.660  0.00  0.00    +0.000 C 
ATOM     15  C   UNL     1       5.990   6.659  16.973  0.00  0.00    +0.000 C 
ENDBRANCH  10  11
ENDBRANCH   9  10
ENDBRANCH   8   9
TORSDOF 3
ENDMDL
MODEL 7
REMARK VINA RESULT:      -6.5      2.359      2.821
REMARK  Name = 
REMARK  3 active torsions:
REMARK  status: ('A' for Active; 'I' for Inactive)
REMARK    1  A    between atoms: N_8  and  C_9
REMARK    2  A    between atoms: C_9  and  C_10
REMARK    3  A    between atoms: C_10  and  C_11
REMARK                            x       y       z     vdW  Elec       q    Type
REMARK                         _______ _______ _______ _____ _____    ______ ____
ROOT
ATOM      1  O   UNL     1       5.679   4.346  19.395  0.00  0.00    +0.000 OA
ATOM      2  C   UNL     1       5.845   4.508  18.189  0.00  0.00    +0.000 A 
ATOM      3  C   UNL     1       6.913   5.445  17.732  0.00  0.00    +0.000 A 
ATOM      4  C   UNL     1       7.114   5.659  16.424  0.00  0.00    +0.000 A 
ATOM      5  C   UNL     1       6.299   4.989  15.453  0.00  0.00    +0.000 A 
ATOM      6  F   UNL     1       6.519   5.237  14.147  0.00  0.00    +0.000 F 
ATOM      7  C   UNL     1       5.330   4.152  15.837  0.00  0.00    +0.000 A 
ATOM      8  N   UNL     1       5.095   3.889  17.181  0.00  0.00    +0.000 N 
ENDROOT
BRANCH   8   9
ATOM      9  C   UNL     1       3.975   3.023  17.559  0.00  0.00    +0.000 C 
BRANCH   9  10
ATOM     10  C   UNL     1       2.588   3.546  17.156  0.00  0.00    +0.000 C 
BRANCH  10  11
ATOM     11  C   UNL     1       1.649   3.799  18.336  0.00  0.00    +0.000 C 
ATOM     12  C   UNL     1       1.499   2.615  19.287  0.00  0.00    +0.000 C 
ATOM     13  C   UNL     1       0.861   3.237  20.522  0.00  0.00    +0.000 C 
ATOM     14  C   UNL     1       1.375   4.676  20.571  0.00  0.00    +0.000 C 
ATOM     15  C   UNL     1       2.157   4.893  19.277  0.00  0.00    +0.000 C 
ENDBRANCH  10  11
ENDBRANCH   9  10
ENDBRANCH   8   9
TORSDOF 3
ENDMDL
MODEL 8
REMARK VINA RESULT:      -6.5      2.270      2.828
REMARK  Name = 
REMARK  3 active torsions:
REMARK  status: ('A' for Active; 'I' for Inactive)
REMARK    1  A    between atoms: N_8  and  C_9
REMARK    2  A    between atoms: C_9  and  C_10
REMARK    3  A    between atoms: C_10  and  C_11
REMARK                            x       y       z     vdW  Elec       q    Type
REMARK                         _______ _______ _______ _____ _____    ______ ____
ROOT
ATOM      1  O   UNL     1       5.793   5.460  19.651  0.00  0.00    +0.000 OA
ATOM      2  C   UNL     1       5.900   5.295  18.439  0.00  0.00    +0.000 A 
ATOM      3  C   UNL     1       7.204   4.819  17.891  0.00  0.00    +0.000 A 
ATOM      4  C   UNL     1       7.362   4.642  16.572  0.00  0.00    +0.000 A 
ATOM      5  C   UNL     1       6.276   4.913  15.676  0.00  0.00    +0.000 A 
ATOM      6  F   UNL     1       6.473   4.736  14.355  0.00  0.00    +0.000 F 
ATOM      7  C   UNL     1       5.101   5.348  16.140  0.00  0.00    +0.000 A 
ATOM      8  N   UNL     1       4.887   5.533  17.501  0.00  0.00    +0.000 N 
ENDROOT
BRANCH   8   9
ATOM      9  C   UNL     1       3.608   6.083  17.959  0.00  0.00    +0.000 C 
BRANCH   9  10
ATOM     10  C   UNL     1       2.437   5.089  17.952  0.00  0.00    +0.000 C 
BRANCH  10  11
ATOM     11  C   UNL     1       2.418   4.139  19.150  0.00  0.00    +0.000 C 
ATOM     12  C   UNL     1       2.502   4.833  20.506  0.00  0.00    +0.000 C 
ATOM     13  C   UNL     1       2.081   3.743  21.483  0.00  0.00    +0.000 C 
ATOM     14  C   UNL     1       1.094   2.862  20.717  0.00  0.00    +0.000 C 
ATOM     15  C   UNL     1       1.103   3.366  19.276  0.00  0.00    +0.000 C 
ENDBRANCH  10  11
ENDBRANCH   9  10
ENDBRANCH   8   9
TORSDOF 3
ENDMDL
MODEL 9
REMARK VINA RESULT:      -6.5      2.918      5.647
REMARK  Name = 
REMARK  3 active torsions:
REMARK  status: ('A' for Active; 'I' for Inactive)
REMARK    1  A    between atoms: N_8  and  C_9
REMARK    2  A    between atoms: C_9  and  C_10
REMARK    3  A    between atoms: C_10  and  C_11
REMARK                            x       y       z     vdW  Elec       q    Type
REMARK                         _______ _______ _______ _____ _____    ______ ____
ROOT
ATOM      1  O   UNL     1       3.036   1.604  18.817  0.00  0.00    +0.000 OA
ATOM      2  C   UNL     1       2.691   2.671  19.316  0.00  0.00    +0.000 A 
ATOM      3  C   UNL     1       1.271   2.837  19.745  0.00  0.00    +0.000 A 
ATOM      4  C   UNL     1       0.854   3.993  20.281  0.00  0.00    +0.000 A 
ATOM      5  C   UNL     1       1.773   5.082  20.442  0.00  0.00    +0.000 A 
ATOM      6  F   UNL     1       1.318   6.234  20.972  0.00  0.00    +0.000 F 
ATOM      7  C   UNL     1       3.047   4.962  20.058  0.00  0.00    +0.000 A 
ATOM      8  N   UNL     1       3.528   3.778  19.511  0.00  0.00    +0.000 N 
ENDROOT
BRANCH   8   9
ATOM      9  C   UNL     1       4.912   3.715  19.036  0.00  0.00    +0.000 C 
BRANCH   9  10
ATOM     10  C   UNL     1       5.521   5.067  18.635  0.00  0.00    +0.000 C 
BRANCH  10  11
ATOM     11  C   UNL     1       5.769   5.220  17.134  0.00  0.00    +0.000 C 
ATOM     12  C   UNL     1       7.158   4.784  16.678  0.00  0.00    +0.000 C 
ATOM     13  C   UNL     1       7.010   4.669  15.167  0.00  0.00    +0.000 C 
ATOM     14  C   UNL     1       5.556   4.264  14.925  0.00  0.00    +0.000 C 
ATOM     15  C   UNL     1       4.866   4.322  16.286  0.00  0.00    +0.000 C 
ENDBRANCH  10  11
ENDBRANCH   9  10
ENDBRANCH   8   9
TORSDOF 3
ENDMDL
