MODEL 1
REMARK VINA RESULT:      -8.5      0.000      0.000
REMARK  Name = 
REMARK  4 active torsions:
REMARK  status: ('A' for Active; 'I' for Inactive)
REMARK    1  A    between atoms: C_4  and  O_5
REMARK    2  A    between atoms: C_15  and  C_16
REMARK    3  A    between atoms: C_19  and  O_20
REMARK    4  A    between atoms: C_21  and  O_22
REMARK                            x       y       z     vdW  Elec       q    Type
REMARK                         _______ _______ _______ _____ _____    ______ ____
ROOT
ATOM      1  O   UNL     1       2.989   6.960  17.413  0.00  0.00    +0.000 OA
ATOM      2  C   UNL     1       2.718   6.710  18.579  0.00  0.00    +0.000 A 
ATOM      3  C   UNL     1       1.957   7.714  19.328  0.00  0.00    +0.000 A 
ATOM      4  C   UNL     1       1.820   9.027  18.861  0.00  0.00    +0.000 A 
ATOM      5  C   UNL     1       1.030   9.938  19.556  0.00  0.00    +0.000 A 
ATOM      6  C   UNL     1       0.375   9.532  20.721  0.00  0.00    +0.000 A 
ATOM      7  C   UNL     1       0.534   8.229  21.197  0.00  0.00    +0.000 A 
ATOM      8  C   UNL     1       1.337   7.321  20.500  0.00  0.00    +0.000 A 
ATOM      9  O   UNL     1       1.438   6.054  21.016  0.00  0.00    +0.000 OA
ATOM     10  C   UNL     1       2.339   5.185  20.442  0.00  0.00    +0.000 A 
ATOM     11  C   UNL     1       2.478   3.970  21.112  0.00  0.00    +0.000 A 
ATOM     12  C   UNL     1       3.363   3.016  20.631  0.00  0.00    +0.000 A 
ATOM     13  C   UNL     1       4.140   3.295  19.503  0.00  0.00    +0.000 A 
ATOM     14  C   UNL     1       4.036   4.515  18.791  0.00  0.00    +0.000 A 
ATOM     15  C   UNL     1       3.075   5.445  19.271  0.00  0.00    +0.000 A 
ENDROOT
BRANCH  14  16
ATOM     16  C   UNL     1       4.943   4.734  17.626  0.00  0.00    +0.000 A 
ATOM     17  C   UNL     1       4.800   4.020  16.417  0.00  0.00    +0.000 A 
ATOM     18  C   UNL     1       5.707   4.153  15.356  0.00  0.00    +0.000 A 
ATOM     19  C   UNL     1       6.722   5.088  15.452  0.00  0.00    +0.000 A 
ATOM     20  C   UNL     1       6.830   5.878  16.588  0.00  0.00    +0.000 A 
ATOM     21  C   UNL     1       5.973   5.698  17.670  0.00  0.00    +0.000 A 
BRANCH  19  22
ATOM     22  O   UNL     1       7.638   5.268  14.454  0.00  0.00    +0.000 OA
ATOM     23  H   UNL     1       7.230   5.828  13.773  0.00  0.00    +0.000 HD
ENDBRANCH  19  22
BRANCH  20  24
ATOM     24  O   UNL     1       7.794   6.844  16.655  0.00  0.00    +0.000 OA
ATOM     25  H   UNL     1       7.902   7.142  15.730  0.00  0.00    +0.000 HD
ENDBRANCH  20  24
ENDBRANCH  14  16
BRANCH   4  26
ATOM     26  O   UNL     1       2.435   9.481  17.724  0.00  0.00    +0.000 OA
ATOM     27  H   UNL     1       3.200  10.032  18.008  0.00  0.00    +0.000 HD
ENDBRANCH   4  26
TORSDOF 4
ENDMDL
MODEL 2
REMARK VINA RESULT:      -8.2      0.652      1.401
REMARK  Name = 
REMARK  4 active torsions:
REMARK  status: ('A' for Active; 'I' for Inactive)
REMARK    1  A    between atoms: C_4  and  O_5
REMARK    2  A    between atoms: C_15  and  C_16
REMARK    3  A    between atoms: C_19  and  O_20
REMARK    4  A    between atoms: C_21  and  O_22
REMARK                            x       y       z     vdW  Elec       q    Type
REMARK                         _______ _______ _______ _____ _____    ______ ____
ROOT
ATOM      1  O   UNL     1       3.275   6.718  17.523  0.00  0.00    +0.000 OA
ATOM      2  C   UNL     1       2.946   6.417  18.662  0.00  0.00    +0.000 A 
ATOM      3  C   UNL     1       2.126   7.375  19.406  0.00  0.00    +0.000 A 
ATOM      4  C   UNL     1       1.986   8.704  18.983  0.00  0.00    +0.000 A 
ATOM      5  C   UNL     1       1.141   9.571  19.669  0.00  0.00    +0.000 A 
ATOM      6  C   UNL     1       0.433   9.107  20.780  0.00  0.00    +0.000 A 
ATOM      7  C   UNL     1       0.593   7.789  21.213  0.00  0.00    +0.000 A 
ATOM      8  C   UNL     1       1.451   6.924  20.526  0.00  0.00    +0.000 A 
ATOM      9  O   UNL     1       1.550   5.640  20.997  0.00  0.00    +0.000 OA
ATOM     10  C   UNL     1       2.499   4.812  20.440  0.00  0.00    +0.000 A 
ATOM     11  C   UNL     1       2.626   3.573  21.069  0.00  0.00    +0.000 A 
ATOM     12  C   UNL     1       3.555   2.656  20.601  0.00  0.00    +0.000 A 
ATOM     13  C   UNL     1       4.386   2.995  19.529  0.00  0.00    +0.000 A 
ATOM     14  C   UNL     1       4.296   4.239  18.860  0.00  0.00    +0.000 A 
ATOM     15  C   UNL     1       3.291   5.132  19.322  0.00  0.00    +0.000 A 
ENDROOT
BRANCH  14  16
ATOM     16  C   UNL     1       5.260   4.522  17.756  0.00  0.00    +0.000 A 
ATOM     17  C   UNL     1       6.305   5.460  17.892  0.00  0.00    +0.000 A 
ATOM     18  C   UNL     1       7.153   5.799  16.827  0.00  0.00    +0.000 A 
ATOM     19  C   UNL     1       7.029   5.121  15.628  0.00  0.00    +0.000 A 
ATOM     20  C   UNL     1       6.076   4.121  15.493  0.00  0.00    +0.000 A 
ATOM     21  C   UNL     1       5.188   3.833  16.526  0.00  0.00    +0.000 A 
BRANCH  19  22
ATOM     22  O   UNL     1       7.823   5.402  14.552  0.00  0.00    +0.000 OA
ATOM     23  H   UNL     1       7.387   5.046  13.760  0.00  0.00    +0.000 HD
ENDBRANCH  19  22
BRANCH  20  24
ATOM     24  O   UNL     1       5.997   3.410  14.329  0.00  0.00    +0.000 OA
ATOM     25  H   UNL     1       6.718   2.753  14.397  0.00  0.00    +0.000 HD
ENDBRANCH  20  24
ENDBRANCH  14  16
BRANCH   4  26
ATOM     26  O   UNL     1       2.652   9.214  17.901  0.00  0.00    +0.000 OA
ATOM     27  H   UNL     1       3.527   9.532  18.222  0.00  0.00    +0.000 HD
ENDBRANCH   4  26
TORSDOF 4
ENDMDL
MODEL 3
REMARK VINA RESULT:      -7.5      1.572      5.982
REMARK  Name = 
REMARK  4 active torsions:
REMARK  status: ('A' for Active; 'I' for Inactive)
REMARK    1  A    between atoms: C_4  and  O_5
REMARK    2  A    between atoms: C_15  and  C_16
REMARK    3  A    between atoms: C_19  and  O_20
REMARK    4  A    between atoms: C_21  and  O_22
REMARK                            x       y       z     vdW  Elec       q    Type
REMARK                         _______ _______ _______ _____ _____    ______ ____
ROOT
ATOM      1  O   UNL     1       4.256   7.246  17.859  0.00  0.00    +0.000 OA
ATOM      2  C   UNL     1       4.077   6.036  17.831  0.00  0.00    +0.000 A 
ATOM      3  C   UNL     1       4.743   5.277  16.771  0.00  0.00    +0.000 A 
ATOM      4  C   UNL     1       5.291   5.912  15.649  0.00  0.00    +0.000 A 
ATOM      5  C   UNL     1       5.983   5.172  14.695  0.00  0.00    +0.000 A 
ATOM      6  C   UNL     1       6.126   3.793  14.865  0.00  0.00    +0.000 A 
ATOM      7  C   UNL     1       5.557   3.160  15.971  0.00  0.00    +0.000 A 
ATOM      8  C   UNL     1       4.855   3.906  16.922  0.00  0.00    +0.000 A 
ATOM      9  O   UNL     1       4.334   3.223  17.991  0.00  0.00    +0.000 OA
ATOM     10  C   UNL     1       3.509   3.902  18.861  0.00  0.00    +0.000 A 
ATOM     11  C   UNL     1       2.913   3.102  19.836  0.00  0.00    +0.000 A 
ATOM     12  C   UNL     1       2.056   3.673  20.765  0.00  0.00    +0.000 A 
ATOM     13  C   UNL     1       1.762   5.037  20.692  0.00  0.00    +0.000 A 
ATOM     14  C   UNL     1       2.339   5.889  19.719  0.00  0.00    +0.000 A 
ATOM     15  C   UNL     1       3.263   5.286  18.822  0.00  0.00    +0.000 A 
ENDROOT
BRANCH  14  16
ATOM     16  C   UNL     1       1.925   7.323  19.697  0.00  0.00    +0.000 A 
ATOM     17  C   UNL     1       1.499   8.001  20.860  0.00  0.00    +0.000 A 
ATOM     18  C   UNL     1       1.018   9.317  20.826  0.00  0.00    +0.000 A 
ATOM     19  C   UNL     1       1.052  10.016  19.632  0.00  0.00    +0.000 A 
ATOM     20  C   UNL     1       1.560   9.411  18.491  0.00  0.00    +0.000 A 
ATOM     21  C   UNL     1       1.972   8.081  18.507  0.00  0.00    +0.000 A 
BRANCH  19  22
ATOM     22  O   UNL     1       0.599  11.301  19.532  0.00  0.00    +0.000 OA
ATOM     23  H   UNL     1       1.373  11.889  19.519  0.00  0.00    +0.000 HD
ENDBRANCH  19  22
BRANCH  20  24
ATOM     24  O   UNL     1       1.651  10.123  17.328  0.00  0.00    +0.000 OA
ATOM     25  H   UNL     1       0.950   9.746  16.759  0.00  0.00    +0.000 HD
ENDBRANCH  20  24
ENDBRANCH  14  16
BRANCH   4  26
ATOM     26  O   UNL     1       5.185   7.260  15.431  0.00  0.00    +0.000 OA
ATOM     27  H   UNL     1       5.173   7.697  16.312  0.00  0.00    +0.000 HD
ENDBRANCH   4  26
TORSDOF 4
ENDMDL
MODEL 4
REMARK VINA RESULT:      -7.5      1.725      6.056
REMARK  Name = 
REMARK  4 active torsions:
REMARK  status: ('A' for Active; 'I' for Inactive)
REMARK    1  A    between atoms: C_4  and  O_5
REMARK    2  A    between atoms: C_15  and  C_16
REMARK    3  A    between atoms: C_19  and  O_20
REMARK    4  A    between atoms: C_21  and  O_22
REMARK                            x       y       z     vdW  Elec       q    Type
REMARK                         _______ _______ _______ _____ _____    ______ ____
ROOT
ATOM      1  O   UNL     1       4.199   7.433  17.662  0.00  0.00    +0.000 OA
ATOM      2  C   UNL     1       4.060   6.221  17.746  0.00  0.00    +0.000 A 
ATOM      3  C   UNL     1       4.755   5.389  16.761  0.00  0.00    +0.000 A 
ATOM      4  C   UNL     1       5.287   5.935  15.586  0.00  0.00    +0.000 A 
ATOM      5  C   UNL     1       6.006   5.132  14.705  0.00  0.00    +0.000 A 
ATOM      6  C   UNL     1       6.193   3.781  15.002  0.00  0.00    +0.000 A 
ATOM      7  C   UNL     1       5.641   3.234  16.162  0.00  0.00    +0.000 A 
ATOM      8  C   UNL     1       4.911   4.042  17.039  0.00  0.00    +0.000 A 
ATOM      9  O   UNL     1       4.408   3.445  18.166  0.00  0.00    +0.000 OA
ATOM     10  C   UNL     1       3.558   4.173  18.968  0.00  0.00    +0.000 A 
ATOM     11  C   UNL     1       2.985   3.448  20.013  0.00  0.00    +0.000 A 
ATOM     12  C   UNL     1       2.106   4.074  20.884  0.00  0.00    +0.000 A 
ATOM     13  C   UNL     1       1.767   5.415  20.685  0.00  0.00    +0.000 A 
ATOM     14  C   UNL     1       2.321   6.192  19.638  0.00  0.00    +0.000 A 
ATOM     15  C   UNL     1       3.267   5.539  18.801  0.00  0.00    +0.000 A 
ENDROOT
BRANCH  14  16
ATOM     16  C   UNL     1       1.860   7.603  19.482  0.00  0.00    +0.000 A 
ATOM     17  C   UNL     1       1.604   8.176  18.218  0.00  0.00    +0.000 A 
ATOM     18  C   UNL     1       1.264   9.527  18.061  0.00  0.00    +0.000 A 
ATOM     19  C   UNL     1       1.073  10.307  19.188  0.00  0.00    +0.000 A 
ATOM     20  C   UNL     1       1.218   9.748  20.450  0.00  0.00    +0.000 A 
ATOM     21  C   UNL     1       1.624   8.426  20.605  0.00  0.00    +0.000 A 
BRANCH  19  22
ATOM     22  O   UNL     1       0.741  11.630  19.104  0.00  0.00    +0.000 OA
ATOM     23  H   UNL     1      -0.187  11.686  18.821  0.00  0.00    +0.000 HD
ENDBRANCH  19  22
BRANCH  20  24
ATOM     24  O   UNL     1       0.968  10.503  21.560  0.00  0.00    +0.000 OA
ATOM     25  H   UNL     1       1.604  11.243  21.497  0.00  0.00    +0.000 HD
ENDBRANCH  20  24
ENDBRANCH  14  16
BRANCH   4  26
ATOM     26  O   UNL     1       5.137   7.252  15.243  0.00  0.00    +0.000 OA
ATOM     27  H   UNL     1       4.983   7.284  14.271  0.00  0.00    +0.000 HD
ENDBRANCH   4  26
TORSDOF 4
ENDMDL
MODEL 5
REMARK VINA RESULT:      -7.4      6.133     10.226
REMARK  Name = 
REMARK  4 active torsions:
REMARK  status: ('A' for Active; 'I' for Inactive)
REMARK    1  A    between atoms: C_4  and  O_5
REMARK    2  A    between atoms: C_15  and  C_16
REMARK    3  A    between atoms: C_19  and  O_20
REMARK    4  A    between atoms: C_21  and  O_22
REMARK                            x       y       z     vdW  Elec       q    Type
REMARK                         _______ _______ _______ _____ _____    ______ ____
ROOT
ATOM      1  O   UNL     1      -2.841  12.943  19.985  0.00  0.00    +0.000 OA
ATOM      2  C   UNL     1      -2.323  11.904  19.603  0.00  0.00    +0.000 A 
ATOM      3  C   UNL     1      -2.779  11.348  18.328  0.00  0.00    +0.000 A 
ATOM      4  C   UNL     1      -3.966  11.782  17.722  0.00  0.00    +0.000 A 
ATOM      5  C   UNL     1      -4.335  11.288  16.474  0.00  0.00    +0.000 A 
ATOM      6  C   UNL     1      -3.514  10.359  15.831  0.00  0.00    +0.000 A 
ATOM      7  C   UNL     1      -2.345   9.911  16.448  0.00  0.00    +0.000 A 
ATOM      8  C   UNL     1      -1.983  10.402  17.706  0.00  0.00    +0.000 A 
ATOM      9  O   UNL     1      -0.816   9.929  18.248  0.00  0.00    +0.000 OA
ATOM     10  C   UNL     1      -0.512  10.274  19.546  0.00  0.00    +0.000 A 
ATOM     11  C   UNL     1       0.619   9.641  20.063  0.00  0.00    +0.000 A 
ATOM     12  C   UNL     1       1.020   9.904  21.365  0.00  0.00    +0.000 A 
ATOM     13  C   UNL     1       0.266  10.770  22.162  0.00  0.00    +0.000 A 
ATOM     14  C   UNL     1      -0.889  11.434  21.683  0.00  0.00    +0.000 A 
ATOM     15  C   UNL     1      -1.237  11.193  20.326  0.00  0.00    +0.000 A 
ENDROOT
BRANCH  14  16
ATOM     16  C   UNL     1      -1.650  12.303  22.629  0.00  0.00    +0.000 A 
ATOM     17  C   UNL     1      -1.233  13.613  22.949  0.00  0.00    +0.000 A 
ATOM     18  C   UNL     1      -1.891  14.396  23.908  0.00  0.00    +0.000 A 
ATOM     19  C   UNL     1      -3.047  13.912  24.493  0.00  0.00    +0.000 A 
ATOM     20  C   UNL     1      -3.541  12.668  24.125  0.00  0.00    +0.000 A 
ATOM     21  C   UNL     1      -2.851  11.861  23.225  0.00  0.00    +0.000 A 
BRANCH  19  22
ATOM     22  O   UNL     1      -3.736  14.625  25.434  0.00  0.00    +0.000 OA
ATOM     23  H   UNL     1      -4.680  14.581  25.208  0.00  0.00    +0.000 HD
ENDBRANCH  19  22
BRANCH  20  24
ATOM     24  O   UNL     1      -4.717  12.220  24.657  0.00  0.00    +0.000 OA
ATOM     25  H   UNL     1      -5.255  13.028  24.769  0.00  0.00    +0.000 HD
ENDBRANCH  20  24
ENDBRANCH  14  16
BRANCH   4  26
ATOM     26  O   UNL     1      -4.808  12.691  18.303  0.00  0.00    +0.000 OA
ATOM     27  H   UNL     1      -5.098  13.312  17.596  0.00  0.00    +0.000 HD
ENDBRANCH   4  26
TORSDOF 4
ENDMDL
MODEL 6
REMARK VINA RESULT:      -7.2      3.098      6.996
REMARK  Name = 
REMARK  4 active torsions:
REMARK  status: ('A' for Active; 'I' for Inactive)
REMARK    1  A    between atoms: C_4  and  O_5
REMARK    2  A    between atoms: C_15  and  C_16
REMARK    3  A    between atoms: C_19  and  O_20
REMARK    4  A    between atoms: C_21  and  O_22
REMARK                            x       y       z     vdW  Elec       q    Type
REMARK                         _______ _______ _______ _____ _____    ______ ____
ROOT
ATOM      1  O   UNL     1       4.011   4.158  15.408  0.00  0.00    +0.000 OA
ATOM      2  C   UNL     1       5.189   4.453  15.553  0.00  0.00    +0.000 A 
ATOM      3  C   UNL     1       6.035   4.472  14.357  0.00  0.00    +0.000 A 
ATOM      4  C   UNL     1       5.622   3.876  13.158  0.00  0.00    +0.000 A 
ATOM      5  C   UNL     1       6.415   3.976  12.019  0.00  0.00    +0.000 A 
ATOM      6  C   UNL     1       7.623   4.674  12.080  0.00  0.00    +0.000 A 
ATOM      7  C   UNL     1       8.043   5.246  13.282  0.00  0.00    +0.000 A 
ATOM      8  C   UNL     1       7.247   5.135  14.427  0.00  0.00    +0.000 A 
ATOM      9  O   UNL     1       7.713   5.731  15.570  0.00  0.00    +0.000 OA
ATOM     10  C   UNL     1       7.032   5.509  16.747  0.00  0.00    +0.000 A 
ATOM     11  C   UNL     1       7.650   6.037  17.881  0.00  0.00    +0.000 A 
ATOM     12  C   UNL     1       7.061   5.871  19.125  0.00  0.00    +0.000 A 
ATOM     13  C   UNL     1       5.875   5.140  19.240  0.00  0.00    +0.000 A 
ATOM     14  C   UNL     1       5.212   4.584  18.119  0.00  0.00    +0.000 A 
ATOM     15  C   UNL     1       5.807   4.827  16.851  0.00  0.00    +0.000 A 
ENDROOT
BRANCH  14  16
ATOM     16  C   UNL     1       3.975   3.782  18.353  0.00  0.00    +0.000 A 
ATOM     17  C   UNL     1       3.852   2.445  17.917  0.00  0.00    +0.000 A 
ATOM     18  C   UNL     1       2.659   1.720  18.049  0.00  0.00    +0.000 A 
ATOM     19  C   UNL     1       1.593   2.295  18.719  0.00  0.00    +0.000 A 
ATOM     20  C   UNL     1       1.717   3.572  19.249  0.00  0.00    +0.000 A 
ATOM     21  C   UNL     1       2.875   4.319  19.057  0.00  0.00    +0.000 A 
BRANCH  19  22
ATOM     22  O   UNL     1       0.404   1.643  18.882  0.00  0.00    +0.000 OA
ATOM     23  H   UNL     1       0.449   1.148  19.717  0.00  0.00    +0.000 HD
ENDBRANCH  19  22
BRANCH  20  24
ATOM     24  O   UNL     1       0.685   4.113  19.964  0.00  0.00    +0.000 OA
ATOM     25  H   UNL     1       1.030   4.173  20.877  0.00  0.00    +0.000 HD
ENDBRANCH  20  24
ENDBRANCH  14  16
BRANCH   4  26
ATOM     26  O   UNL     1       4.448   3.182  13.038  0.00  0.00    +0.000 OA
ATOM     27  H   UNL     1       4.552   2.345  13.547  0.00  0.00    +0.000 HD
ENDBRANCH   4  26
TORSDOF 4
ENDMDL
MODEL 7
REMARK VINA RESULT:      -7.1      1.866      4.360
REMARK  Name = 
REMARK  4 active torsions:
REMARK  status: ('A' for Active; 'I' for Inactive)
REMARK    1  A    between atoms: C_4  and  O_5
REMARK    2  A    between atoms: C_15  and  C_16
REMARK    3  A    between atoms: C_19  and  O_20
REMARK    4  A    between atoms: C_21  and  O_22
REMARK                            x       y       z     vdW  Elec       q    Type
REMARK                         _______ _______ _______ _____ _____    ______ ____
ROOT
ATOM      1  O   UNL     1       5.274   4.348  18.974  0.00  0.00    +0.000 OA
ATOM      2  C   UNL     1       4.137   4.715  19.233  0.00  0.00    +0.000 A 
ATOM      3  C   UNL     1       3.341   3.874  20.130  0.00  0.00    +0.000 A 
ATOM      4  C   UNL     1       3.718   2.558  20.427  0.00  0.00    +0.000 A 
ATOM      5  C   UNL     1       2.983   1.809  21.341  0.00  0.00    +0.000 A 
ATOM      6  C   UNL     1       1.869   2.380  21.960  0.00  0.00    +0.000 A 
ATOM      7  C   UNL     1       1.481   3.683  21.644  0.00  0.00    +0.000 A 
ATOM      8  C   UNL     1       2.218   4.428  20.718  0.00  0.00    +0.000 A 
ATOM      9  O   UNL     1       1.790   5.706  20.464  0.00  0.00    +0.000 OA
ATOM     10  C   UNL     1       2.398   6.409  19.447  0.00  0.00    +0.000 A 
ATOM     11  C   UNL     1       1.812   7.643  19.166  0.00  0.00    +0.000 A 
ATOM     12  C   UNL     1       2.334   8.438  18.157  0.00  0.00    +0.000 A 
ATOM     13  C   UNL     1       3.417   7.980  17.401  0.00  0.00    +0.000 A 
ATOM     14  C   UNL     1       4.044   6.735  17.647  0.00  0.00    +0.000 A 
ATOM     15  C   UNL     1       3.526   5.972  18.730  0.00  0.00    +0.000 A 
ENDROOT
BRANCH  14  16
ATOM     16  C   UNL     1       5.164   6.317  16.754  0.00  0.00    +0.000 A 
ATOM     17  C   UNL     1       6.491   6.754  16.957  0.00  0.00    +0.000 A 
ATOM     18  C   UNL     1       7.528   6.441  16.066  0.00  0.00    +0.000 A 
ATOM     19  C   UNL     1       7.269   5.594  15.003  0.00  0.00    +0.000 A 
ATOM     20  C   UNL     1       5.997   5.065  14.834  0.00  0.00    +0.000 A 
ATOM     21  C   UNL     1       4.950   5.430  15.676  0.00  0.00    +0.000 A 
BRANCH  19  22
ATOM     22  O   UNL     1       8.234   5.250  14.099  0.00  0.00    +0.000 OA
ATOM     23  H   UNL     1       7.817   4.705  13.411  0.00  0.00    +0.000 HD
ENDBRANCH  19  22
BRANCH  20  24
ATOM     24  O   UNL     1       5.759   4.180  13.820  0.00  0.00    +0.000 OA
ATOM     25  H   UNL     1       5.696   3.312  14.268  0.00  0.00    +0.000 HD
ENDBRANCH  20  24
ENDBRANCH  14  16
BRANCH   4  26
ATOM     26  O   UNL     1       4.801   1.947  19.854  0.00  0.00    +0.000 OA
ATOM     27  H   UNL     1       5.600   2.255  20.340  0.00  0.00    +0.000 HD
ENDBRANCH   4  26
TORSDOF 4
ENDMDL
MODEL 8
REMARK VINA RESULT:      -7.1      6.195     10.184
REMARK  Name = 
REMARK  4 active torsions:
REMARK  status: ('A' for Active; 'I' for Inactive)
REMARK    1  A    between atoms: C_4  and  O_5
REMARK    2  A    between atoms: C_15  and  C_16
REMARK    3  A    between atoms: C_19  and  O_20
REMARK    4  A    between atoms: C_21  and  O_22
REMARK                            x       y       z     vdW  Elec       q    Type
REMARK                         _______ _______ _______ _____ _____    ______ ____
ROOT
ATOM      1  O   UNL     1      -2.863  13.001  20.071  0.00  0.00    +0.000 OA
ATOM      2  C   UNL     1      -2.363  11.952  19.690  0.00  0.00    +0.000 A 
ATOM      3  C   UNL     1      -2.831  11.400  18.418  0.00  0.00    +0.000 A 
ATOM      4  C   UNL     1      -4.010  11.853  17.812  0.00  0.00    +0.000 A 
ATOM      5  C   UNL     1      -4.390  11.362  16.566  0.00  0.00    +0.000 A 
ATOM      6  C   UNL     1      -3.587  10.417  15.925  0.00  0.00    +0.000 A 
ATOM      7  C   UNL     1      -2.425   9.949  16.542  0.00  0.00    +0.000 A 
ATOM      8  C   UNL     1      -2.053  10.438  17.798  0.00  0.00    +0.000 A 
ATOM      9  O   UNL     1      -0.893   9.946  18.340  0.00  0.00    +0.000 OA
ATOM     10  C   UNL     1      -0.581  10.290  19.637  0.00  0.00    +0.000 A 
ATOM     11  C   UNL     1       0.538   9.638  20.154  0.00  0.00    +0.000 A 
ATOM     12  C   UNL     1       0.946   9.898  21.454  0.00  0.00    +0.000 A 
ATOM     13  C   UNL     1       0.209  10.779  22.250  0.00  0.00    +0.000 A 
ATOM     14  C   UNL     1      -0.935  11.463  21.771  0.00  0.00    +0.000 A 
ATOM     15  C   UNL     1      -1.290  11.224  20.415  0.00  0.00    +0.000 A 
ENDROOT
BRANCH  14  16
ATOM     16  C   UNL     1      -1.680  12.348  22.714  0.00  0.00    +0.000 A 
ATOM     17  C   UNL     1      -2.906  11.963  23.297  0.00  0.00    +0.000 A 
ATOM     18  C   UNL     1      -3.656  12.828  24.107  0.00  0.00    +0.000 A 
ATOM     19  C   UNL     1      -3.133  14.067  24.432  0.00  0.00    +0.000 A 
ATOM     20  C   UNL     1      -1.882  14.436  23.957  0.00  0.00    +0.000 A 
ATOM     21  C   UNL     1      -1.169  13.608  23.096  0.00  0.00    +0.000 A 
BRANCH  19  22
ATOM     22  O   UNL     1      -3.812  14.956  25.216  0.00  0.00    +0.000 OA
ATOM     23  H   UNL     1      -3.441  14.904  26.114  0.00  0.00    +0.000 HD
ENDBRANCH  19  22
BRANCH  20  24
ATOM     24  O   UNL     1      -1.341  15.634  24.330  0.00  0.00    +0.000 OA
ATOM     25  H   UNL     1      -2.013  16.294  24.069  0.00  0.00    +0.000 HD
ENDBRANCH  20  24
ENDBRANCH  14  16
BRANCH   4  26
ATOM     26  O   UNL     1      -4.836  12.779  18.391  0.00  0.00    +0.000 OA
ATOM     27  H   UNL     1      -4.486  13.669  18.155  0.00  0.00    +0.000 HD
ENDBRANCH   4  26
TORSDOF 4
ENDMDL
MODEL 9
REMARK VINA RESULT:      -6.9      0.988      1.046
REMARK  Name = 
REMARK  4 active torsions:
REMARK  status: ('A' for Active; 'I' for Inactive)
REMARK    1  A    between atoms: C_4  and  O_5
REMARK    2  A    between atoms: C_15  and  C_16
REMARK    3  A    between atoms: C_19  and  O_20
REMARK    4  A    between atoms: C_21  and  O_22
REMARK                            x       y       z     vdW  Elec       q    Type
REMARK                         _______ _______ _______ _____ _____    ______ ____
ROOT
ATOM      1  O   UNL     1       2.965   7.508  17.382  0.00  0.00    +0.000 OA
ATOM      2  C   UNL     1       2.580   7.341  18.530  0.00  0.00    +0.000 A 
ATOM      3  C   UNL     1       1.833   8.432  19.160  0.00  0.00    +0.000 A 
ATOM      4  C   UNL     1       1.829   9.725  18.620  0.00  0.00    +0.000 A 
ATOM      5  C   UNL     1       1.050  10.722  19.199  0.00  0.00    +0.000 A 
ATOM      6  C   UNL     1       0.273  10.424  20.321  0.00  0.00    +0.000 A 
ATOM      7  C   UNL     1       0.299   9.141  20.871  0.00  0.00    +0.000 A 
ATOM      8  C   UNL     1       1.090   8.145  20.292  0.00  0.00    +0.000 A 
ATOM      9  O   UNL     1       1.058   6.905  20.875  0.00  0.00    +0.000 OA
ATOM     10  C   UNL     1       1.940   5.948  20.424  0.00  0.00    +0.000 A 
ATOM     11  C   UNL     1       1.935   4.764  21.162  0.00  0.00    +0.000 A 
ATOM     12  C   UNL     1       2.787   3.729  20.806  0.00  0.00    +0.000 A 
ATOM     13  C   UNL     1       3.674   3.894  19.739  0.00  0.00    +0.000 A 
ATOM     14  C   UNL     1       3.717   5.077  18.962  0.00  0.00    +0.000 A 
ATOM     15  C   UNL     1       2.787   6.095  19.311  0.00  0.00    +0.000 A 
ENDROOT
BRANCH  14  16
ATOM     16  C   UNL     1       4.731   5.172  17.871  0.00  0.00    +0.000 A 
ATOM     17  C   UNL     1       4.432   5.738  16.613  0.00  0.00    +0.000 A 
ATOM     18  C   UNL     1       5.353   5.742  15.555  0.00  0.00    +0.000 A 
ATOM     19  C   UNL     1       6.633   5.267  15.775  0.00  0.00    +0.000 A 
ATOM     20  C   UNL     1       6.990   4.796  17.031  0.00  0.00    +0.000 A 
ATOM     21  C   UNL     1       6.057   4.726  18.062  0.00  0.00    +0.000 A 
BRANCH  19  22
ATOM     22  O   UNL     1       7.576   5.244  14.787  0.00  0.00    +0.000 OA
ATOM     23  H   UNL     1       7.164   4.867  13.991  0.00  0.00    +0.000 HD
ENDBRANCH  19  22
BRANCH  20  24
ATOM     24  O   UNL     1       8.272   4.386  17.264  0.00  0.00    +0.000 OA
ATOM     25  H   UNL     1       8.797   5.211  17.245  0.00  0.00    +0.000 HD
ENDBRANCH  20  24
ENDBRANCH  14  16
BRANCH   4  26
ATOM     26  O   UNL     1       2.568  10.074  17.522  0.00  0.00    +0.000 OA
ATOM     27  H   UNL     1       2.004   9.916  16.730  0.00  0.00    +0.000 HD
ENDBRANCH   4  26
TORSDOF 4
ENDMDL
