MODEL 1
REMARK VINA RESULT:      -7.6      0.000      0.000
REMARK  Name = 
REMARK  6 active torsions:
REMARK  status: ('A' for Active; 'I' for Inactive)
REMARK    1  A    between atoms: C_1  and  N_2
REMARK    2  A    between atoms: C_3  and  C_5
REMARK    3  A    between atoms: C_5  and  C_6
REMARK    4  A    between atoms: C_6  and  C_7
REMARK    5  A    between atoms: C_7  and  O_8
REMARK    6  A    between atoms: O_8  and  C_9
REMARK                            x       y       z     vdW  Elec       q    Type
REMARK                         _______ _______ _______ _____ _____    ______ ____
ROOT
ATOM      1  C   UNL     1       1.749   8.495  18.801  0.00  0.00    +0.000 A 
ATOM      2  C   UNL     1       1.668   7.653  19.911  0.00  0.00    +0.000 A 
ATOM      3  C   UNL     1       2.507   6.544  20.021  0.00  0.00    +0.000 A 
ATOM      4  C   UNL     1       3.456   6.271  19.040  0.00  0.00    +0.000 A 
ATOM      5  C   UNL     1       3.560   7.129  17.925  0.00  0.00    +0.000 A 
ATOM      6  C   UNL     1       2.691   8.224  17.801  0.00  0.00    +0.000 A 
ATOM      7  C   UNL     1       4.617   6.839  16.884  0.00  0.00    +0.000 C 
ATOM      8  N   UNL     1       5.673   6.091  17.512  0.00  0.00    +0.000 N 
ATOM      9  C   UNL     1       6.940   5.775  16.890  0.00  0.00    +0.000 C 
ATOM     10  C   UNL     1       7.394   4.589  17.757  0.00  0.00    +0.000 C 
ATOM     11  O   UNL     1       8.475   4.026  17.707  0.00  0.00    +0.000 OA
ATOM     12  N   UNL     1       6.367   4.294  18.614  0.00  0.00    +0.000 N 
ATOM     13  C   UNL     1       5.379   5.197  18.493  0.00  0.00    +0.000 C 
ATOM     14  N   UNL     1       4.334   5.181  19.239  0.00  0.00    +0.000 NA
ATOM     15  H   UNL     1       6.389   3.576  19.318  0.00  0.00    +0.000 HD
ENDROOT
BRANCH   1  16
ATOM     16  O   UNL     1       0.979   9.610  18.595  0.00  0.00    +0.000 OA
BRANCH  16  17
ATOM     17  C   UNL     1       0.619  10.359  19.760  0.00  0.00    +0.000 C 
BRANCH  17  18
ATOM     18  C   UNL     1      -0.845  10.760  19.640  0.00  0.00    +0.000 C 
BRANCH  18  19
ATOM     19  C   UNL     1      -1.132  11.544  18.360  0.00  0.00    +0.000 C 
BRANCH  19  22
ATOM     20  C   UNL     1      -3.144  10.795  15.247  0.00  0.00    +0.000 C 
ATOM     21  N   UNL     1      -2.282  11.398  16.232  0.00  0.00    +0.000 N 
ATOM     22  C   UNL     1      -2.058  10.775  17.439  0.00  0.00    +0.000 C 
ATOM     23  O   UNL     1      -2.568   9.697  17.736  0.00  0.00    +0.000 OA
ATOM     24  H   UNL     1      -1.841  12.287  16.028  0.00  0.00    +0.000 HD
ENDBRANCH  19  22
ENDBRANCH  18  19
ENDBRANCH  17  18
ENDBRANCH  16  17
ENDBRANCH   1  16
TORSDOF 5
ENDMDL
MODEL 2
REMARK VINA RESULT:      -7.6      4.858      7.831
REMARK  Name = 
REMARK  6 active torsions:
REMARK  status: ('A' for Active; 'I' for Inactive)
REMARK    1  A    between atoms: C_1  and  N_2
REMARK    2  A    between atoms: C_3  and  C_5
REMARK    3  A    between atoms: C_5  and  C_6
REMARK    4  A    between atoms: C_6  and  C_7
REMARK    5  A    between atoms: C_7  and  O_8
REMARK    6  A    between atoms: O_8  and  C_9
REMARK                            x       y       z     vdW  Elec       q    Type
REMARK                         _______ _______ _______ _____ _____    ______ ____
ROOT
ATOM      1  C   UNL     1       5.527   5.835  16.257  0.00  0.00    +0.000 A 
ATOM      2  C   UNL     1       4.767   6.945  16.626  0.00  0.00    +0.000 A 
ATOM      3  C   UNL     1       3.714   6.812  17.533  0.00  0.00    +0.000 A 
ATOM      4  C   UNL     1       3.418   5.577  18.103  0.00  0.00    +0.000 A 
ATOM      5  C   UNL     1       4.195   4.453  17.751  0.00  0.00    +0.000 A 
ATOM      6  C   UNL     1       5.231   4.585  16.813  0.00  0.00    +0.000 A 
ATOM      7  C   UNL     1       3.884   3.125  18.403  0.00  0.00    +0.000 C 
ATOM      8  N   UNL     1       3.240   3.384  19.663  0.00  0.00    +0.000 N 
ATOM      9  C   UNL     1       2.945   2.375  20.658  0.00  0.00    +0.000 C 
ATOM     10  C   UNL     1       1.852   3.089  21.470  0.00  0.00    +0.000 C 
ATOM     11  O   UNL     1       1.343   2.695  22.507  0.00  0.00    +0.000 OA
ATOM     12  N   UNL     1       1.569   4.264  20.827  0.00  0.00    +0.000 N 
ATOM     13  C   UNL     1       2.408   4.450  19.793  0.00  0.00    +0.000 C 
ATOM     14  N   UNL     1       2.393   5.514  19.074  0.00  0.00    +0.000 NA
ATOM     15  H   UNL     1       0.907   4.953  21.144  0.00  0.00    +0.000 HD
ENDROOT
BRANCH   1  16
ATOM     16  O   UNL     1       6.582   5.853  15.383  0.00  0.00    +0.000 OA
BRANCH  16  17
ATOM     17  C   UNL     1       6.942   4.599  14.794  0.00  0.00    +0.000 C 
BRANCH  17  18
ATOM     18  C   UNL     1       5.999   4.325  13.631  0.00  0.00    +0.000 C 
BRANCH  18  19
ATOM     19  C   UNL     1       6.628   3.422  12.570  0.00  0.00    +0.000 C 
BRANCH  19  22
ATOM     20  C   UNL     1       3.315   2.953  10.809  0.00  0.00    +0.000 C 
ATOM     21  N   UNL     1       4.420   3.473  11.574  0.00  0.00    +0.000 N 
ATOM     22  C   UNL     1       5.568   2.732  11.736  0.00  0.00    +0.000 C 
ATOM     23  O   UNL     1       5.711   1.613  11.248  0.00  0.00    +0.000 OA
ATOM     24  H   UNL     1       4.344   4.392  11.993  0.00  0.00    +0.000 HD
ENDBRANCH  19  22
ENDBRANCH  18  19
ENDBRANCH  17  18
ENDBRANCH  16  17
ENDBRANCH   1  16
TORSDOF 5
ENDMDL
MODEL 3
REMARK VINA RESULT:      -7.5      4.906      8.412
REMARK  Name = 
REMARK  6 active torsions:
REMARK  status: ('A' for Active; 'I' for Inactive)
REMARK    1  A    between atoms: C_1  and  N_2
REMARK    2  A    between atoms: C_3  and  C_5
REMARK    3  A    between atoms: C_5  and  C_6
REMARK    4  A    between atoms: C_6  and  C_7
REMARK    5  A    between atoms: C_7  and  O_8
REMARK    6  A    between atoms: O_8  and  C_9
REMARK                            x       y       z     vdW  Elec       q    Type
REMARK                         _______ _______ _______ _____ _____    ______ ____
ROOT
ATOM      1  C   UNL     1       5.238   5.804  15.943  0.00  0.00    +0.000 A 
ATOM      2  C   UNL     1       4.774   6.972  16.548  0.00  0.00    +0.000 A 
ATOM      3  C   UNL     1       3.844   6.912  17.586  0.00  0.00    +0.000 A 
ATOM      4  C   UNL     1       3.381   5.685  18.055  0.00  0.00    +0.000 A 
ATOM      5  C   UNL     1       3.860   4.497  17.464  0.00  0.00    +0.000 A 
ATOM      6  C   UNL     1       4.769   4.564  16.396  0.00  0.00    +0.000 A 
ATOM      7  C   UNL     1       3.374   3.172  18.004  0.00  0.00    +0.000 C 
ATOM      8  N   UNL     1       2.966   3.367  19.370  0.00  0.00    +0.000 N 
ATOM      9  C   UNL     1       2.605   2.301  20.280  0.00  0.00    +0.000 C 
ATOM     10  C   UNL     1       1.796   3.085  21.327  0.00  0.00    +0.000 C 
ATOM     11  O   UNL     1       1.358   2.651  22.380  0.00  0.00    +0.000 OA
ATOM     12  N   UNL     1       1.676   4.370  20.870  0.00  0.00    +0.000 N 
ATOM     13  C   UNL     1       2.393   4.540  19.746  0.00  0.00    +0.000 C 
ATOM     14  N   UNL     1       2.501   5.678  19.161  0.00  0.00    +0.000 NA
ATOM     15  H   UNL     1       1.216   5.119  21.361  0.00  0.00    +0.000 HD
ENDROOT
BRANCH   1  16
ATOM     16  O   UNL     1       6.150   5.748  14.923  0.00  0.00    +0.000 OA
BRANCH  16  17
ATOM     17  C   UNL     1       6.697   4.458  14.627  0.00  0.00    +0.000 C 
BRANCH  17  18
ATOM     18  C   UNL     1       6.997   4.394  13.136  0.00  0.00    +0.000 C 
BRANCH  18  19
ATOM     19  C   UNL     1       5.948   3.594  12.363  0.00  0.00    +0.000 C 
BRANCH  19  22
ATOM     20  C   UNL     1       6.153   0.035  11.104  0.00  0.00    +0.000 C 
ATOM     21  N   UNL     1       5.718   1.279  11.686  0.00  0.00    +0.000 N 
ATOM     22  C   UNL     1       6.559   2.368  11.715  0.00  0.00    +0.000 C 
ATOM     23  O   UNL     1       7.699   2.340  11.257  0.00  0.00    +0.000 OA
ATOM     24  H   UNL     1       4.785   1.345  12.075  0.00  0.00    +0.000 HD
ENDBRANCH  19  22
ENDBRANCH  18  19
ENDBRANCH  17  18
ENDBRANCH  16  17
ENDBRANCH   1  16
TORSDOF 5
ENDMDL
MODEL 4
REMARK VINA RESULT:      -7.5      5.785      8.101
REMARK  Name = 
REMARK  6 active torsions:
REMARK  status: ('A' for Active; 'I' for Inactive)
REMARK    1  A    between atoms: C_1  and  N_2
REMARK    2  A    between atoms: C_3  and  C_5
REMARK    3  A    between atoms: C_5  and  C_6
REMARK    4  A    between atoms: C_6  and  C_7
REMARK    5  A    between atoms: C_7  and  O_8
REMARK    6  A    between atoms: O_8  and  C_9
REMARK                            x       y       z     vdW  Elec       q    Type
REMARK                         _______ _______ _______ _____ _____    ______ ____
ROOT
ATOM      1  C   UNL     1       7.264   6.250  17.936  0.00  0.00    +0.000 A 
ATOM      2  C   UNL     1       7.073   5.856  16.612  0.00  0.00    +0.000 A 
ATOM      3  C   UNL     1       6.107   4.901  16.289  0.00  0.00    +0.000 A 
ATOM      4  C   UNL     1       5.300   4.344  17.277  0.00  0.00    +0.000 A 
ATOM      5  C   UNL     1       5.471   4.752  18.617  0.00  0.00    +0.000 A 
ATOM      6  C   UNL     1       6.467   5.687  18.941  0.00  0.00    +0.000 A 
ATOM      7  C   UNL     1       4.567   4.164  19.674  0.00  0.00    +0.000 C 
ATOM      8  N   UNL     1       3.348   3.741  19.038  0.00  0.00    +0.000 N 
ATOM      9  C   UNL     1       2.167   3.288  19.742  0.00  0.00    +0.000 C 
ATOM     10  C   UNL     1       1.452   2.512  18.623  0.00  0.00    +0.000 C 
ATOM     11  O   UNL     1       0.335   2.023  18.679  0.00  0.00    +0.000 OA
ATOM     12  N   UNL     1       2.290   2.492  17.541  0.00  0.00    +0.000 N 
ATOM     13  C   UNL     1       3.380   3.242  17.775  0.00  0.00    +0.000 C 
ATOM     14  N   UNL     1       4.285   3.442  16.886  0.00  0.00    +0.000 NA
ATOM     15  H   UNL     1       2.076   2.074  16.651  0.00  0.00    +0.000 HD
ENDROOT
BRANCH   1  16
ATOM     16  O   UNL     1       8.176   7.178  18.363  0.00  0.00    +0.000 OA
BRANCH  16  17
ATOM     17  C   UNL     1       8.011   8.510  17.864  0.00  0.00    +0.000 C 
BRANCH  17  18
ATOM     18  C   UNL     1       8.866   9.448  18.704  0.00  0.00    +0.000 C 
BRANCH  18  19
ATOM     19  C   UNL     1       8.981  10.842  18.088  0.00  0.00    +0.000 C 
BRANCH  19  22
ATOM     20  C   UNL     1      12.118  12.854  17.452  0.00  0.00    +0.000 C 
ATOM     21  N   UNL     1      10.838  12.203  17.334  0.00  0.00    +0.000 N 
ATOM     22  C   UNL     1      10.333  11.462  18.378  0.00  0.00    +0.000 C 
ATOM     23  O   UNL     1      10.930  11.320  19.443  0.00  0.00    +0.000 OA
ATOM     24  H   UNL     1      10.313  12.294  16.473  0.00  0.00    +0.000 HD
ENDBRANCH  19  22
ENDBRANCH  18  19
ENDBRANCH  17  18
ENDBRANCH  16  17
ENDBRANCH   1  16
TORSDOF 5
ENDMDL
MODEL 5
REMARK VINA RESULT:      -7.4      5.170      7.732
REMARK  Name = 
REMARK  6 active torsions:
REMARK  status: ('A' for Active; 'I' for Inactive)
REMARK    1  A    between atoms: C_1  and  N_2
REMARK    2  A    between atoms: C_3  and  C_5
REMARK    3  A    between atoms: C_5  and  C_6
REMARK    4  A    between atoms: C_6  and  C_7
REMARK    5  A    between atoms: C_7  and  O_8
REMARK    6  A    between atoms: O_8  and  C_9
REMARK                            x       y       z     vdW  Elec       q    Type
REMARK                         _______ _______ _______ _____ _____    ______ ____
ROOT
ATOM      1  C   UNL     1       6.540   6.454  16.852  0.00  0.00    +0.000 A 
ATOM      2  C   UNL     1       6.770   5.339  16.046  0.00  0.00    +0.000 A 
ATOM      3  C   UNL     1       6.021   4.175  16.215  0.00  0.00    +0.000 A 
ATOM      4  C   UNL     1       5.014   4.111  17.175  0.00  0.00    +0.000 A 
ATOM      5  C   UNL     1       4.759   5.240  17.981  0.00  0.00    +0.000 A 
ATOM      6  C   UNL     1       5.539   6.398  17.830  0.00  0.00    +0.000 A 
ATOM      7  C   UNL     1       3.642   5.169  18.996  0.00  0.00    +0.000 C 
ATOM      8  N   UNL     1       2.696   4.180  18.552  0.00  0.00    +0.000 N 
ATOM      9  C   UNL     1       1.405   3.944  19.163  0.00  0.00    +0.000 C 
ATOM     10  C   UNL     1       1.107   2.524  18.657  0.00  0.00    +0.000 C 
ATOM     11  O   UNL     1       0.067   1.903  18.804  0.00  0.00    +0.000 OA
ATOM     12  N   UNL     1       2.219   2.088  17.987  0.00  0.00    +0.000 N 
ATOM     13  C   UNL     1       3.130   3.072  17.896  0.00  0.00    +0.000 C 
ATOM     14  N   UNL     1       4.233   2.936  17.251  0.00  0.00    +0.000 NA
ATOM     15  H   UNL     1       2.306   1.199  17.524  0.00  0.00    +0.000 HD
ENDROOT
BRANCH   1  16
ATOM     16  O   UNL     1       7.212   7.645  16.768  0.00  0.00    +0.000 OA
BRANCH  16  17
ATOM     17  C   UNL     1       8.040   7.989  17.884  0.00  0.00    +0.000 C 
BRANCH  17  18
ATOM     18  C   UNL     1       8.221   9.501  17.900  0.00  0.00    +0.000 C 
BRANCH  18  19
ATOM     19  C   UNL     1       9.149   9.965  19.022  0.00  0.00    +0.000 C 
BRANCH  19  22
ATOM     20  C   UNL     1       9.724  13.639  19.705  0.00  0.00    +0.000 C 
ATOM     21  N   UNL     1       9.327  12.257  19.789  0.00  0.00    +0.000 N 
ATOM     22  C   UNL     1       9.643  11.377  18.779  0.00  0.00    +0.000 C 
ATOM     23  O   UNL     1      10.266  11.714  17.775  0.00  0.00    +0.000 OA
ATOM     24  H   UNL     1       8.811  11.937  20.600  0.00  0.00    +0.000 HD
ENDBRANCH  19  22
ENDBRANCH  18  19
ENDBRANCH  17  18
ENDBRANCH  16  17
ENDBRANCH   1  16
TORSDOF 5
ENDMDL
MODEL 6
REMARK VINA RESULT:      -7.4      4.593      7.500
REMARK  Name = 
REMARK  6 active torsions:
REMARK  status: ('A' for Active; 'I' for Inactive)
REMARK    1  A    between atoms: C_1  and  N_2
REMARK    2  A    between atoms: C_3  and  C_5
REMARK    3  A    between atoms: C_5  and  C_6
REMARK    4  A    between atoms: C_6  and  C_7
REMARK    5  A    between atoms: C_7  and  O_8
REMARK    6  A    between atoms: O_8  and  C_9
REMARK                            x       y       z     vdW  Elec       q    Type
REMARK                         _______ _______ _______ _____ _____    ______ ____
ROOT
ATOM      1  C   UNL     1       5.364   6.767  17.207  0.00  0.00    +0.000 A 
ATOM      2  C   UNL     1       4.170   7.487  17.249  0.00  0.00    +0.000 A 
ATOM      3  C   UNL     1       3.038   6.948  17.861  0.00  0.00    +0.000 A 
ATOM      4  C   UNL     1       3.086   5.694  18.463  0.00  0.00    +0.000 A 
ATOM      5  C   UNL     1       4.295   4.967  18.445  0.00  0.00    +0.000 A 
ATOM      6  C   UNL     1       5.421   5.499  17.798  0.00  0.00    +0.000 A 
ATOM      7  C   UNL     1       4.342   3.621  19.131  0.00  0.00    +0.000 C 
ATOM      8  N   UNL     1       3.325   3.600  20.148  0.00  0.00    +0.000 N 
ATOM      9  C   UNL     1       3.169   2.552  21.135  0.00  0.00    +0.000 C 
ATOM     10  C   UNL     1       1.708   2.776  21.557  0.00  0.00    +0.000 C 
ATOM     11  O   UNL     1       1.119   2.209  22.463  0.00  0.00    +0.000 OA
ATOM     12  N   UNL     1       1.192   3.748  20.742  0.00  0.00    +0.000 N 
ATOM     13  C   UNL     1       2.150   4.253  19.946  0.00  0.00    +0.000 C 
ATOM     14  N   UNL     1       1.935   5.228  19.139  0.00  0.00    +0.000 NA
ATOM     15  H   UNL     1       0.259   4.120  20.803  0.00  0.00    +0.000 HD
ENDROOT
BRANCH   1  16
ATOM     16  O   UNL     1       6.532   7.202  16.638  0.00  0.00    +0.000 OA
BRANCH  16  17
ATOM     17  C   UNL     1       7.654   7.342  17.515  0.00  0.00    +0.000 C 
BRANCH  17  18
ATOM     18  C   UNL     1       7.933   8.826  17.707  0.00  0.00    +0.000 C 
BRANCH  18  19
ATOM     19  C   UNL     1       8.883   9.096  18.873  0.00  0.00    +0.000 C 
BRANCH  19  22
ATOM     20  C   UNL     1       9.847  12.360  20.520  0.00  0.00    +0.000 C 
ATOM     21  N   UNL     1       9.506  10.985  20.256  0.00  0.00    +0.000 N 
ATOM     22  C   UNL     1       9.226  10.568  18.975  0.00  0.00    +0.000 C 
ATOM     23  O   UNL     1       9.251  11.327  18.009  0.00  0.00    +0.000 OA
ATOM     24  H   UNL     1       9.474  10.325  21.025  0.00  0.00    +0.000 HD
ENDBRANCH  19  22
ENDBRANCH  18  19
ENDBRANCH  17  18
ENDBRANCH  16  17
ENDBRANCH   1  16
TORSDOF 5
ENDMDL
MODEL 7
REMARK VINA RESULT:      -7.2      3.605      7.757
REMARK  Name = 
REMARK  6 active torsions:
REMARK  status: ('A' for Active; 'I' for Inactive)
REMARK    1  A    between atoms: C_1  and  N_2
REMARK    2  A    between atoms: C_3  and  C_5
REMARK    3  A    between atoms: C_5  and  C_6
REMARK    4  A    between atoms: C_6  and  C_7
REMARK    5  A    between atoms: C_7  and  O_8
REMARK    6  A    between atoms: O_8  and  C_9
REMARK                            x       y       z     vdW  Elec       q    Type
REMARK                         _______ _______ _______ _____ _____    ______ ____
ROOT
ATOM      1  C   UNL     1       3.440   6.442  18.387  0.00  0.00    +0.000 A 
ATOM      2  C   UNL     1       3.304   7.534  17.529  0.00  0.00    +0.000 A 
ATOM      3  C   UNL     1       2.450   8.588  17.853  0.00  0.00    +0.000 A 
ATOM      4  C   UNL     1       1.736   8.583  19.048  0.00  0.00    +0.000 A 
ATOM      5  C   UNL     1       1.883   7.494  19.933  0.00  0.00    +0.000 A 
ATOM      6  C   UNL     1       2.717   6.419  19.586  0.00  0.00    +0.000 A 
ATOM      7  C   UNL     1       1.128   7.517  21.241  0.00  0.00    +0.000 C 
ATOM      8  N   UNL     1       0.860   8.889  21.581  0.00  0.00    +0.000 N 
ATOM      9  C   UNL     1       0.310   9.331  22.845  0.00  0.00    +0.000 C 
ATOM     10  C   UNL     1      -0.226  10.717  22.451  0.00  0.00    +0.000 C 
ATOM     11  O   UNL     1      -0.692  11.556  23.204  0.00  0.00    +0.000 OA
ATOM     12  N   UNL     1      -0.063  10.847  21.097  0.00  0.00    +0.000 N 
ATOM     13  C   UNL     1       0.605   9.793  20.599  0.00  0.00    +0.000 C 
ATOM     14  N   UNL     1       0.946   9.712  19.364  0.00  0.00    +0.000 NA
ATOM     15  H   UNL     1      -0.302  11.665  20.561  0.00  0.00    +0.000 HD
ENDROOT
BRANCH   1  16
ATOM     16  O   UNL     1       4.251   5.360  18.170  0.00  0.00    +0.000 OA
BRANCH  16  17
ATOM     17  C   UNL     1       3.764   4.373  17.255  0.00  0.00    +0.000 C 
BRANCH  17  18
ATOM     18  C   UNL     1       3.780   3.020  17.953  0.00  0.00    +0.000 C 
BRANCH  18  19
ATOM     19  C   UNL     1       2.496   2.225  17.715  0.00  0.00    +0.000 C 
BRANCH  19  22
ATOM     20  C   UNL     1       1.356   2.784  21.276  0.00  0.00    +0.000 C 
ATOM     21  N   UNL     1       2.141   2.613  20.080  0.00  0.00    +0.000 N 
ATOM     22  C   UNL     1       1.528   2.386  18.869  0.00  0.00    +0.000 C 
ATOM     23  O   UNL     1       0.307   2.318  18.744  0.00  0.00    +0.000 OA
ATOM     24  H   UNL     1       3.151   2.662  20.139  0.00  0.00    +0.000 HD
ENDBRANCH  19  22
ENDBRANCH  18  19
ENDBRANCH  17  18
ENDBRANCH  16  17
ENDBRANCH   1  16
TORSDOF 5
ENDMDL
MODEL 8
REMARK VINA RESULT:      -7.2      4.418      6.040
REMARK  Name = 
REMARK  6 active torsions:
REMARK  status: ('A' for Active; 'I' for Inactive)
REMARK    1  A    between atoms: C_1  and  N_2
REMARK    2  A    between atoms: C_3  and  C_5
REMARK    3  A    between atoms: C_5  and  C_6
REMARK    4  A    between atoms: C_6  and  C_7
REMARK    5  A    between atoms: C_7  and  O_8
REMARK    6  A    between atoms: O_8  and  C_9
REMARK                            x       y       z     vdW  Elec       q    Type
REMARK                         _______ _______ _______ _____ _____    ______ ____
ROOT
ATOM      1  C   UNL     1       2.896   5.003  20.223  0.00  0.00    +0.000 A 
ATOM      2  C   UNL     1       2.251   6.010  19.504  0.00  0.00    +0.000 A 
ATOM      3  C   UNL     1       2.835   6.546  18.355  0.00  0.00    +0.000 A 
ATOM      4  C   UNL     1       4.058   6.069  17.892  0.00  0.00    +0.000 A 
ATOM      5  C   UNL     1       4.708   5.037  18.600  0.00  0.00    +0.000 A 
ATOM      6  C   UNL     1       4.133   4.525  19.774  0.00  0.00    +0.000 A 
ATOM      7  C   UNL     1       6.019   4.507  18.067  0.00  0.00    +0.000 C 
ATOM      8  N   UNL     1       6.062   4.757  16.651  0.00  0.00    +0.000 N 
ATOM      9  C   UNL     1       7.077   4.243  15.756  0.00  0.00    +0.000 C 
ATOM     10  C   UNL     1       6.928   5.214  14.573  0.00  0.00    +0.000 C 
ATOM     11  O   UNL     1       7.493   5.136  13.494  0.00  0.00    +0.000 OA
ATOM     12  N   UNL     1       6.023   6.173  14.944  0.00  0.00    +0.000 N 
ATOM     13  C   UNL     1       5.493   5.882  16.144  0.00  0.00    +0.000 C 
ATOM     14  N   UNL     1       4.566   6.591  16.680  0.00  0.00    +0.000 NA
ATOM     15  H   UNL     1       5.709   6.930  14.359  0.00  0.00    +0.000 HD
ENDROOT
BRANCH   1  16
ATOM     16  O   UNL     1       2.413   4.406  21.357  0.00  0.00    +0.000 OA
BRANCH  16  17
ATOM     17  C   UNL     1       1.129   3.781  21.250  0.00  0.00    +0.000 C 
BRANCH  17  18
ATOM     18  C   UNL     1       1.302   2.448  20.536  0.00  0.00    +0.000 C 
BRANCH  18  19
ATOM     19  C   UNL     1       0.820   2.495  19.086  0.00  0.00    +0.000 C 
BRANCH  19  22
ATOM     20  C   UNL     1       4.127   1.297  17.699  0.00  0.00    +0.000 C 
ATOM     21  N   UNL     1       2.956   1.506  18.512  0.00  0.00    +0.000 N 
ATOM     22  C   UNL     1       1.979   2.391  18.116  0.00  0.00    +0.000 C 
ATOM     23  O   UNL     1       2.051   3.036  17.073  0.00  0.00    +0.000 OA
ATOM     24  H   UNL     1       2.857   0.994  19.381  0.00  0.00    +0.000 HD
ENDBRANCH  19  22
ENDBRANCH  18  19
ENDBRANCH  17  18
ENDBRANCH  16  17
ENDBRANCH   1  16
TORSDOF 5
ENDMDL
MODEL 9
REMARK VINA RESULT:      -7.2      5.508      8.158
REMARK  Name = 
REMARK  6 active torsions:
REMARK  status: ('A' for Active; 'I' for Inactive)
REMARK    1  A    between atoms: C_1  and  N_2
REMARK    2  A    between atoms: C_3  and  C_5
REMARK    3  A    between atoms: C_5  and  C_6
REMARK    4  A    between atoms: C_6  and  C_7
REMARK    5  A    between atoms: C_7  and  O_8
REMARK    6  A    between atoms: O_8  and  C_9
REMARK                            x       y       z     vdW  Elec       q    Type
REMARK                         _______ _______ _______ _____ _____    ______ ____
ROOT
ATOM      1  C   UNL     1       6.652   5.008  16.500  0.00  0.00    +0.000 A 
ATOM      2  C   UNL     1       6.766   6.065  17.403  0.00  0.00    +0.000 A 
ATOM      3  C   UNL     1       5.838   6.219  18.434  0.00  0.00    +0.000 A 
ATOM      4  C   UNL     1       4.797   5.309  18.595  0.00  0.00    +0.000 A 
ATOM      5  C   UNL     1       4.686   4.224  17.700  0.00  0.00    +0.000 A 
ATOM      6  C   UNL     1       5.602   4.093  16.644  0.00  0.00    +0.000 A 
ATOM      7  C   UNL     1       3.571   3.225  17.906  0.00  0.00    +0.000 C 
ATOM      8  N   UNL     1       3.193   3.255  19.294  0.00  0.00    +0.000 N 
ATOM      9  C   UNL     1       2.281   2.321  19.918  0.00  0.00    +0.000 C 
ATOM     10  C   UNL     1       1.869   3.118  21.166  0.00  0.00    +0.000 C 
ATOM     11  O   UNL     1       1.185   2.715  22.092  0.00  0.00    +0.000 OA
ATOM     12  N   UNL     1       2.430   4.363  21.058  0.00  0.00    +0.000 N 
ATOM     13  C   UNL     1       3.233   4.426  19.982  0.00  0.00    +0.000 C 
ATOM     14  N   UNL     1       3.932   5.466  19.702  0.00  0.00    +0.000 NA
ATOM     15  H   UNL     1       2.352   5.095  21.744  0.00  0.00    +0.000 HD
ENDROOT
BRANCH   1  16
ATOM     16  O   UNL     1       7.507   4.761  15.458  0.00  0.00    +0.000 OA
BRANCH  16  17
ATOM     17  C   UNL     1       6.972   4.932  14.142  0.00  0.00    +0.000 C 
BRANCH  17  18
ATOM     18  C   UNL     1       6.065   3.749  13.833  0.00  0.00    +0.000 C 
BRANCH  18  19
ATOM     19  C   UNL     1       5.142   4.015  12.644  0.00  0.00    +0.000 C 
BRANCH  19  22
ATOM     20  C   UNL     1       6.299   0.841  10.945  0.00  0.00    +0.000 C 
ATOM     21  N   UNL     1       6.201   2.017  11.772  0.00  0.00    +0.000 N 
ATOM     22  C   UNL     1       5.083   2.819  11.715  0.00  0.00    +0.000 C 
ATOM     23  O   UNL     1       4.131   2.581  10.976  0.00  0.00    +0.000 OA
ATOM     24  H   UNL     1       6.963   2.250  12.396  0.00  0.00    +0.000 HD
ENDBRANCH  19  22
ENDBRANCH  18  19
ENDBRANCH  17  18
ENDBRANCH  16  17
ENDBRANCH   1  16
TORSDOF 5
ENDMDL
