MODEL 1
REMARK VINA RESULT:      -7.7      0.000      0.000
REMARK  Name = 
REMARK  6 active torsions:
REMARK  status: ('A' for Active; 'I' for Inactive)
REMARK    1  A    between atoms: C_2  and  C_3
REMARK    2  A    between atoms: C_12  and  N_13
REMARK    3  A    between atoms: N_13  and  C_14
REMARK    4  A    between atoms: C_14  and  C_15
REMARK    5  A    between atoms: C_14  and  C_25
REMARK    6  A    between atoms: C_18  and  C_19
REMARK                            x       y       z     vdW  Elec       q    Type
REMARK                         _______ _______ _______ _____ _____    ______ ____
ROOT
ATOM      1  C   UNL     1       0.204  12.654  20.229  0.00  0.00    +0.000 C 
ENDROOT
BRANCH   1   2
ATOM      2  C   UNL     1      -1.001  12.558  21.159  0.00  0.00    +0.000 A 
ATOM      3  C   UNL     1      -0.845  12.328  22.534  0.00  0.00    +0.000 A 
ATOM      4  C   UNL     1      -1.941  12.388  23.397  0.00  0.00    +0.000 A 
ATOM      5  C   UNL     1      -3.222  12.666  22.897  0.00  0.00    +0.000 A 
ATOM      6  C   UNL     1      -3.394  12.827  21.514  0.00  0.00    +0.000 A 
ATOM      7  C   UNL     1      -2.295  12.772  20.656  0.00  0.00    +0.000 A 
BRANCH   5   8
ATOM      8  C   UNL     1      -4.402  12.835  23.822  0.00  0.00    +0.000 C 
ATOM      9  F   UNL     1      -4.405  11.966  24.870  0.00  0.00    +0.000 F 
ATOM     10  F   UNL     1      -4.458  14.080  24.372  0.00  0.00    +0.000 F 
ATOM     11  F   UNL     1      -5.594  12.656  23.186  0.00  0.00    +0.000 F 
ENDBRANCH   5   8
ENDBRANCH   1   2
BRANCH   1  12
ATOM     12  C   UNL     1       1.120  13.817  20.645  0.00  0.00    +0.000 A 
ATOM     13  C   UNL     1       0.781  15.143  20.380  0.00  0.00    +0.000 A 
ATOM     14  N   UNL     1       1.575  16.195  20.700  0.00  0.00    +0.000 NA
ATOM     15  C   UNL     1       2.747  15.872  21.283  0.00  0.00    +0.000 A 
ATOM     16  C   UNL     1       3.106  14.562  21.547  0.00  0.00    +0.000 A 
ATOM     17  N   UNL     1       2.305  13.512  21.250  0.00  0.00    +0.000 NA
ENDBRANCH   1  12
BRANCH   1  18
ATOM     18  N   UNL     1       0.941  11.372  20.083  0.00  0.00    +0.000 NA
ATOM     19  H   UNL     1       1.695  11.546  19.418  0.00  0.00    +0.000 HD
BRANCH  18  25
ATOM     20  O   UNL     1       2.059   5.797  20.475  0.00  0.00    +0.000 OA
ATOM     21  C   UNL     1       2.197   6.529  19.499  0.00  0.00    +0.000 C 
ATOM     22  N   UNL     1       1.894   7.885  19.578  0.00  0.00    +0.000 N 
ATOM     23  C   UNL     1       1.466   8.450  20.860  0.00  0.00    +0.000 C 
ATOM     24  C   UNL     1       0.104   9.125  20.701  0.00  0.00    +0.000 C 
ATOM     25  C   UNL     1       0.137  10.224  19.612  0.00  0.00    +0.000 C 
ATOM     26  C   UNL     1       0.649   9.576  18.309  0.00  0.00    +0.000 C 
ATOM     27  C   UNL     1       1.993   8.870  18.502  0.00  0.00    +0.000 C 
BRANCH  21  28
ATOM     28  C   UNL     1       2.794   5.978  18.179  0.00  0.00    +0.000 C 
ATOM     29  C   UNL     1       4.338   6.003  18.212  0.00  0.00    +0.000 C 
ATOM     30  C   UNL     1       4.956   4.849  19.008  0.00  0.00    +0.000 C 
ATOM     31  C   UNL     1       4.414   3.488  18.587  0.00  0.00    +0.000 C 
ATOM     32  C   UNL     1       2.895   3.466  18.620  0.00  0.00    +0.000 C 
ATOM     33  C   UNL     1       2.331   4.576  17.748  0.00  0.00    +0.000 C 
ENDBRANCH  21  28
ENDBRANCH  18  25
ENDBRANCH   1  18
TORSDOF 6
ENDMDL
MODEL 2
REMARK VINA RESULT:      -7.7      1.362      1.778
REMARK  Name = 
REMARK  6 active torsions:
REMARK  status: ('A' for Active; 'I' for Inactive)
REMARK    1  A    between atoms: C_2  and  C_3
REMARK    2  A    between atoms: C_12  and  N_13
REMARK    3  A    between atoms: N_13  and  C_14
REMARK    4  A    between atoms: C_14  and  C_15
REMARK    5  A    between atoms: C_14  and  C_25
REMARK    6  A    between atoms: C_18  and  C_19
REMARK                            x       y       z     vdW  Elec       q    Type
REMARK                         _______ _______ _______ _____ _____    ______ ____
ROOT
ATOM      1  C   UNL     1       0.634  12.460  18.903  0.00  0.00    +0.000 C 
ENDROOT
BRANCH   1   2
ATOM      2  C   UNL     1      -0.373  12.664  20.029  0.00  0.00    +0.000 A 
ATOM      3  C   UNL     1      -1.734  12.874  19.763  0.00  0.00    +0.000 A 
ATOM      4  C   UNL     1      -2.667  12.913  20.800  0.00  0.00    +0.000 A 
ATOM      5  C   UNL     1      -2.254  12.757  22.132  0.00  0.00    +0.000 A 
ATOM      6  C   UNL     1      -0.885  12.618  22.408  0.00  0.00    +0.000 A 
ATOM      7  C   UNL     1       0.044  12.574  21.368  0.00  0.00    +0.000 A 
BRANCH   5   8
ATOM      8  C   UNL     1      -3.254  12.696  23.259  0.00  0.00    +0.000 C 
ATOM      9  F   UNL     1      -3.167  11.561  24.007  0.00  0.00    +0.000 F 
ATOM     10  F   UNL     1      -3.113  13.729  24.136  0.00  0.00    +0.000 F 
ATOM     11  F   UNL     1      -4.542  12.755  22.819  0.00  0.00    +0.000 F 
ENDBRANCH   5   8
ENDBRANCH   1   2
BRANCH   1  12
ATOM     12  C   UNL     1       1.599  13.654  18.812  0.00  0.00    +0.000 A 
ATOM     13  C   UNL     1       1.142  14.968  18.903  0.00  0.00    +0.000 A 
ATOM     14  N   UNL     1       1.954  16.050  18.795  0.00  0.00    +0.000 NA
ATOM     15  C   UNL     1       3.254  15.771  18.570  0.00  0.00    +0.000 A 
ATOM     16  C   UNL     1       3.725  14.474  18.469  0.00  0.00    +0.000 A 
ATOM     17  N   UNL     1       2.921  13.393  18.600  0.00  0.00    +0.000 NA
ENDBRANCH   1  12
BRANCH   1  18
ATOM     18  N   UNL     1       1.346  11.157  18.975  0.00  0.00    +0.000 NA
ATOM     19  H   UNL     1       2.117  11.212  18.309  0.00  0.00    +0.000 HD
BRANCH  18  25
ATOM     20  O   UNL     1       1.936   5.808  20.852  0.00  0.00    +0.000 OA
ATOM     21  C   UNL     1       2.273   6.270  19.764  0.00  0.00    +0.000 C 
ATOM     22  N   UNL     1       2.074   7.615  19.470  0.00  0.00    +0.000 N 
ATOM     23  C   UNL     1       1.513   8.498  20.496  0.00  0.00    +0.000 C 
ATOM     24  C   UNL     1       0.248   9.172  19.967  0.00  0.00    +0.000 C 
ATOM     25  C   UNL     1       0.527   9.965  18.668  0.00  0.00    +0.000 C 
ATOM     26  C   UNL     1       1.165   8.994  17.654  0.00  0.00    +0.000 C 
ATOM     27  C   UNL     1       2.406   8.298  18.221  0.00  0.00    +0.000 C 
BRANCH  21  28
ATOM     28  C   UNL     1       3.006   5.384  18.725  0.00  0.00    +0.000 C 
ATOM     29  C   UNL     1       3.980   4.404  19.416  0.00  0.00    +0.000 C 
ATOM     30  C   UNL     1       3.292   3.176  20.022  0.00  0.00    +0.000 C 
ATOM     31  C   UNL     1       2.374   2.468  19.033  0.00  0.00    +0.000 C 
ATOM     32  C   UNL     1       1.383   3.438  18.410  0.00  0.00    +0.000 C 
ATOM     33  C   UNL     1       2.118   4.593  17.749  0.00  0.00    +0.000 C 
ENDBRANCH  21  28
ENDBRANCH  18  25
ENDBRANCH   1  18
TORSDOF 6
ENDMDL
MODEL 3
REMARK VINA RESULT:      -7.6      0.561      1.057
REMARK  Name = 
REMARK  6 active torsions:
REMARK  status: ('A' for Active; 'I' for Inactive)
REMARK    1  A    between atoms: C_2  and  C_3
REMARK    2  A    between atoms: C_12  and  N_13
REMARK    3  A    between atoms: N_13  and  C_14
REMARK    4  A    between atoms: C_14  and  C_15
REMARK    5  A    between atoms: C_14  and  C_25
REMARK    6  A    between atoms: C_18  and  C_19
REMARK                            x       y       z     vdW  Elec       q    Type
REMARK                         _______ _______ _______ _____ _____    ______ ____
ROOT
ATOM      1  C   UNL     1       0.459  12.532  20.121  0.00  0.00    +0.000 C 
ENDROOT
BRANCH   1   2
ATOM      2  C   UNL     1      -0.758  12.768  21.009  0.00  0.00    +0.000 A 
ATOM      3  C   UNL     1      -2.034  12.969  20.462  0.00  0.00    +0.000 A 
ATOM      4  C   UNL     1      -3.161  13.037  21.282  0.00  0.00    +0.000 A 
ATOM      5  C   UNL     1      -3.032  12.921  22.675  0.00  0.00    +0.000 A 
ATOM      6  C   UNL     1      -1.751  12.791  23.232  0.00  0.00    +0.000 A 
ATOM      7  C   UNL     1      -0.627  12.717  22.407  0.00  0.00    +0.000 A 
BRANCH   5   8
ATOM      8  C   UNL     1      -4.244  12.892  23.572  0.00  0.00    +0.000 C 
ATOM      9  F   UNL     1      -4.169  11.960  24.563  0.00  0.00    +0.000 F 
ATOM     10  F   UNL     1      -4.455  14.082  24.200  0.00  0.00    +0.000 F 
ATOM     11  F   UNL     1      -5.392  12.622  22.892  0.00  0.00    +0.000 F 
ENDBRANCH   5   8
ENDBRANCH   1   2
BRANCH   1  12
ATOM     12  C   UNL     1       1.493  13.656  20.306  0.00  0.00    +0.000 A 
ATOM     13  C   UNL     1       1.362  14.880  19.653  0.00  0.00    +0.000 A 
ATOM     14  N   UNL     1       2.268  15.884  19.762  0.00  0.00    +0.000 NA
ATOM     15  C   UNL     1       3.334  15.613  20.541  0.00  0.00    +0.000 A 
ATOM     16  C   UNL     1       3.486  14.400  21.190  0.00  0.00    +0.000 A 
ATOM     17  N   UNL     1       2.572  13.405  21.102  0.00  0.00    +0.000 NA
ENDBRANCH   1  12
BRANCH   1  18
ATOM     18  N   UNL     1       1.053  11.179  20.280  0.00  0.00    +0.000 NA
ATOM     19  H   UNL     1       1.928  11.185  19.756  0.00  0.00    +0.000 HD
BRANCH  18  25
ATOM     20  O   UNL     1       1.968   5.573  20.745  0.00  0.00    +0.000 OA
ATOM     21  C   UNL     1       2.145   6.289  19.763  0.00  0.00    +0.000 C 
ATOM     22  N   UNL     1       1.889   7.656  19.824  0.00  0.00    +0.000 N 
ATOM     23  C   UNL     1       1.464   8.250  21.094  0.00  0.00    +0.000 C 
ATOM     24  C   UNL     1       0.129   8.970  20.909  0.00  0.00    +0.000 C 
ATOM     25  C   UNL     1       0.216  10.055  19.809  0.00  0.00    +0.000 C 
ATOM     26  C   UNL     1       0.722   9.376  18.520  0.00  0.00    +0.000 C 
ATOM     27  C   UNL     1       2.038   8.625  18.740  0.00  0.00    +0.000 C 
BRANCH  21  28
ATOM     28  C   UNL     1       2.740   5.704  18.457  0.00  0.00    +0.000 C 
ATOM     29  C   UNL     1       4.164   5.151  18.691  0.00  0.00    +0.000 C 
ATOM     30  C   UNL     1       4.187   3.772  19.357  0.00  0.00    +0.000 C 
ATOM     31  C   UNL     1       3.291   2.762  18.649  0.00  0.00    +0.000 C 
ATOM     32  C   UNL     1       1.880   3.300  18.483  0.00  0.00    +0.000 C 
ATOM     33  C   UNL     1       1.903   4.628  17.743  0.00  0.00    +0.000 C 
ENDBRANCH  21  28
ENDBRANCH  18  25
ENDBRANCH   1  18
TORSDOF 6
ENDMDL
MODEL 4
REMARK VINA RESULT:      -7.6      0.987      1.138
REMARK  Name = 
REMARK  6 active torsions:
REMARK  status: ('A' for Active; 'I' for Inactive)
REMARK    1  A    between atoms: C_2  and  C_3
REMARK    2  A    between atoms: C_12  and  N_13
REMARK    3  A    between atoms: N_13  and  C_14
REMARK    4  A    between atoms: C_14  and  C_15
REMARK    5  A    between atoms: C_14  and  C_25
REMARK    6  A    between atoms: C_18  and  C_19
REMARK                            x       y       z     vdW  Elec       q    Type
REMARK                         _______ _______ _______ _____ _____    ______ ____
ROOT
ATOM      1  C   UNL     1       0.334  12.537  19.430  0.00  0.00    +0.000 C 
ENDROOT
BRANCH   1   2
ATOM      2  C   UNL     1      -0.669  12.551  20.579  0.00  0.00    +0.000 A 
ATOM      3  C   UNL     1      -0.246  12.579  21.916  0.00  0.00    +0.000 A 
ATOM      4  C   UNL     1      -1.166  12.740  22.953  0.00  0.00    +0.000 A 
ATOM      5  C   UNL     1      -2.536  12.861  22.672  0.00  0.00    +0.000 A 
ATOM      6  C   UNL     1      -2.970  12.763  21.342  0.00  0.00    +0.000 A 
ATOM      7  C   UNL     1      -2.046  12.608  20.308  0.00  0.00    +0.000 A 
BRANCH   5   8
ATOM      8  C   UNL     1      -3.537  13.135  23.767  0.00  0.00    +0.000 C 
ATOM      9  F   UNL     1      -3.947  12.017  24.427  0.00  0.00    +0.000 F 
ATOM     10  F   UNL     1      -3.045  13.971  24.724  0.00  0.00    +0.000 F 
ATOM     11  F   UNL     1      -4.671  13.730  23.302  0.00  0.00    +0.000 F 
ENDBRANCH   5   8
ENDBRANCH   1   2
BRANCH   1  12
ATOM     12  C   UNL     1       1.242  13.778  19.485  0.00  0.00    +0.000 A 
ATOM     13  C   UNL     1       0.737  15.060  19.276  0.00  0.00    +0.000 A 
ATOM     14  N   UNL     1       1.508  16.176  19.282  0.00  0.00    +0.000 NA
ATOM     15  C   UNL     1       2.823  15.963  19.488  0.00  0.00    +0.000 A 
ATOM     16  C   UNL     1       3.345  14.697  19.690  0.00  0.00    +0.000 A 
ATOM     17  N   UNL     1       2.574  13.584  19.707  0.00  0.00    +0.000 NA
ENDBRANCH   1  12
BRANCH   1  18
ATOM     18  N   UNL     1       1.105  11.270  19.334  0.00  0.00    +0.000 NA
ATOM     19  H   UNL     1       1.822  11.422  18.624  0.00  0.00    +0.000 HD
BRANCH  18  25
ATOM     20  O   UNL     1       1.919   5.847  20.886  0.00  0.00    +0.000 OA
ATOM     21  C   UNL     1       2.213   6.381  19.819  0.00  0.00    +0.000 C 
ATOM     22  N   UNL     1       1.962   7.733  19.608  0.00  0.00    +0.000 N 
ATOM     23  C   UNL     1       1.398   8.537  20.695  0.00  0.00    +0.000 C 
ATOM     24  C   UNL     1       0.099   9.196  20.235  0.00  0.00    +0.000 C 
ATOM     25  C   UNL     1       0.319  10.070  18.977  0.00  0.00    +0.000 C 
ATOM     26  C   UNL     1       0.964   9.180  17.895  0.00  0.00    +0.000 C 
ATOM     27  C   UNL     1       2.240   8.497  18.393  0.00  0.00    +0.000 C 
BRANCH  21  28
ATOM     28  C   UNL     1       2.949   5.581  18.714  0.00  0.00    +0.000 C 
ATOM     29  C   UNL     1       4.002   4.629  19.322  0.00  0.00    +0.000 C 
ATOM     30  C   UNL     1       3.407   3.341  19.901  0.00  0.00    +0.000 C 
ATOM     31  C   UNL     1       2.489   2.625  18.918  0.00  0.00    +0.000 C 
ATOM     32  C   UNL     1       1.422   3.563  18.378  0.00  0.00    +0.000 C 
ATOM     33  C   UNL     1       2.065   4.783  17.740  0.00  0.00    +0.000 C 
ENDBRANCH  21  28
ENDBRANCH  18  25
ENDBRANCH   1  18
TORSDOF 6
ENDMDL
MODEL 5
REMARK VINA RESULT:      -7.6      0.960      1.639
REMARK  Name = 
REMARK  6 active torsions:
REMARK  status: ('A' for Active; 'I' for Inactive)
REMARK    1  A    between atoms: C_2  and  C_3
REMARK    2  A    between atoms: C_12  and  N_13
REMARK    3  A    between atoms: N_13  and  C_14
REMARK    4  A    between atoms: C_14  and  C_15
REMARK    5  A    between atoms: C_14  and  C_25
REMARK    6  A    between atoms: C_18  and  C_19
REMARK                            x       y       z     vdW  Elec       q    Type
REMARK                         _______ _______ _______ _____ _____    ______ ____
ROOT
ATOM      1  C   UNL     1       0.473  12.434  19.689  0.00  0.00    +0.000 C 
ENDROOT
BRANCH   1   2
ATOM      2  C   UNL     1      -0.646  12.678  20.695  0.00  0.00    +0.000 A 
ATOM      3  C   UNL     1      -1.885  13.203  20.296  0.00  0.00    +0.000 A 
ATOM      4  C   UNL     1      -2.949  13.284  21.196  0.00  0.00    +0.000 A 
ATOM      5  C   UNL     1      -2.790  12.855  22.522  0.00  0.00    +0.000 A 
ATOM      6  C   UNL     1      -1.533  12.396  22.944  0.00  0.00    +0.000 A 
ATOM      7  C   UNL     1      -0.473  12.311  22.040  0.00  0.00    +0.000 A 
BRANCH   5   8
ATOM      8  C   UNL     1      -3.952  12.841  23.484  0.00  0.00    +0.000 C 
ATOM      9  F   UNL     1      -4.089  13.995  24.195  0.00  0.00    +0.000 F 
ATOM     10  F   UNL     1      -5.145  12.650  22.855  0.00  0.00    +0.000 F 
ATOM     11  F   UNL     1      -3.855  11.844  24.407  0.00  0.00    +0.000 F 
ENDBRANCH   5   8
ENDBRANCH   1   2
BRANCH   1  12
ATOM     12  C   UNL     1       1.486  13.592  19.711  0.00  0.00    +0.000 A 
ATOM     13  C   UNL     1       2.562  13.601  20.597  0.00  0.00    +0.000 A 
ATOM     14  N   UNL     1       3.458  14.616  20.672  0.00  0.00    +0.000 NA
ATOM     15  C   UNL     1       3.228  15.647  19.834  0.00  0.00    +0.000 A 
ATOM     16  C   UNL     1       2.161  15.661  18.953  0.00  0.00    +0.000 A 
ATOM     17  N   UNL     1       1.279  14.638  18.860  0.00  0.00    +0.000 NA
ENDBRANCH   1  12
BRANCH   1  18
ATOM     18  N   UNL     1       1.122  11.106  19.837  0.00  0.00    +0.000 NA
ATOM     19  H   UNL     1       1.980  11.140  19.286  0.00  0.00    +0.000 HD
BRANCH  18  25
ATOM     20  O   UNL     1       1.960   5.555  20.820  0.00  0.00    +0.000 OA
ATOM     21  C   UNL     1       2.214   6.189  19.799  0.00  0.00    +0.000 C 
ATOM     22  N   UNL     1       1.964   7.556  19.730  0.00  0.00    +0.000 N 
ATOM     23  C   UNL     1       1.451   8.252  20.913  0.00  0.00    +0.000 C 
ATOM     24  C   UNL     1       0.139   8.956  20.573  0.00  0.00    +0.000 C 
ATOM     25  C   UNL     1       0.314   9.948  19.398  0.00  0.00    +0.000 C 
ATOM     26  C   UNL     1       0.907   9.166  18.209  0.00  0.00    +0.000 C 
ATOM     27  C   UNL     1       2.198   8.434  18.585  0.00  0.00    +0.000 C 
BRANCH  21  28
ATOM     28  C   UNL     1       2.899   5.498  18.592  0.00  0.00    +0.000 C 
ATOM     29  C   UNL     1       4.149   4.708  19.037  0.00  0.00    +0.000 C 
ATOM     30  C   UNL     1       3.827   3.351  19.670  0.00  0.00    +0.000 C 
ATOM     31  C   UNL     1       2.894   2.507  18.809  0.00  0.00    +0.000 C 
ATOM     32  C   UNL     1       1.642   3.282  18.433  0.00  0.00    +0.000 C 
ATOM     33  C   UNL     1       2.013   4.579  17.733  0.00  0.00    +0.000 C 
ENDBRANCH  21  28
ENDBRANCH  18  25
ENDBRANCH   1  18
TORSDOF 6
ENDMDL
MODEL 6
REMARK VINA RESULT:      -7.5      0.919      1.345
REMARK  Name = 
REMARK  6 active torsions:
REMARK  status: ('A' for Active; 'I' for Inactive)
REMARK    1  A    between atoms: C_2  and  C_3
REMARK    2  A    between atoms: C_12  and  N_13
REMARK    3  A    between atoms: N_13  and  C_14
REMARK    4  A    between atoms: C_14  and  C_15
REMARK    5  A    between atoms: C_14  and  C_25
REMARK    6  A    between atoms: C_18  and  C_19
REMARK                            x       y       z     vdW  Elec       q    Type
REMARK                         _______ _______ _______ _____ _____    ______ ____
ROOT
ATOM      1  C   UNL     1       0.059  12.827  19.587  0.00  0.00    +0.000 C 
ENDROOT
BRANCH   1   2
ATOM      2  C   UNL     1      -0.922  13.047  20.733  0.00  0.00    +0.000 A 
ATOM      3  C   UNL     1      -2.284  13.287  20.493  0.00  0.00    +0.000 A 
ATOM      4  C   UNL     1      -3.197  13.341  21.548  0.00  0.00    +0.000 A 
ATOM      5  C   UNL     1      -2.762  13.170  22.871  0.00  0.00    +0.000 A 
ATOM      6  C   UNL     1      -1.392  13.001  23.121  0.00  0.00    +0.000 A 
ATOM      7  C   UNL     1      -0.483  12.942  22.063  0.00  0.00    +0.000 A 
BRANCH   5   8
ATOM      8  C   UNL     1      -3.742  13.125  24.016  0.00  0.00    +0.000 C 
ATOM      9  F   UNL     1      -3.370  13.881  25.086  0.00  0.00    +0.000 F 
ATOM     10  F   UNL     1      -4.979  13.570  23.660  0.00  0.00    +0.000 F 
ATOM     11  F   UNL     1      -3.926  11.864  24.498  0.00  0.00    +0.000 F 
ENDBRANCH   5   8
ENDBRANCH   1   2
BRANCH   1  12
ATOM     12  C   UNL     1       0.994  14.039  19.432  0.00  0.00    +0.000 A 
ATOM     13  C   UNL     1       0.512  15.288  19.045  0.00  0.00    +0.000 A 
ATOM     14  N   UNL     1       1.306  16.372  18.865  0.00  0.00    +0.000 NA
ATOM     15  C   UNL     1       2.622  16.159  19.068  0.00  0.00    +0.000 A 
ATOM     16  C   UNL     1       3.122  14.925  19.445  0.00  0.00    +0.000 A 
ATOM     17  N   UNL     1       2.328  13.847  19.648  0.00  0.00    +0.000 NA
ENDBRANCH   1  12
BRANCH   1  18
ATOM     18  N   UNL     1       0.800  11.543  19.682  0.00  0.00    +0.000 NA
ATOM     19  H   UNL     1       1.604  11.627  19.059  0.00  0.00    +0.000 HD
BRANCH  18  25
ATOM     20  O   UNL     1       2.123   6.060  20.495  0.00  0.00    +0.000 OA
ATOM     21  C   UNL     1       2.221   6.716  19.461  0.00  0.00    +0.000 C 
ATOM     22  N   UNL     1       1.871   8.062  19.438  0.00  0.00    +0.000 N 
ATOM     23  C   UNL     1       1.441   8.713  20.679  0.00  0.00    +0.000 C 
ATOM     24  C   UNL     1       0.054   9.326  20.491  0.00  0.00    +0.000 C 
ATOM     25  C   UNL     1       0.032  10.334  19.317  0.00  0.00    +0.000 C 
ATOM     26  C   UNL     1       0.546   9.603  18.061  0.00  0.00    +0.000 C 
ATOM     27  C   UNL     1       1.918   8.961  18.286  0.00  0.00    +0.000 C 
BRANCH  21  28
ATOM     28  C   UNL     1       2.817   6.082  18.179  0.00  0.00    +0.000 C 
ATOM     29  C   UNL     1       4.361   6.050  18.238  0.00  0.00    +0.000 C 
ATOM     30  C   UNL     1       4.920   4.912  19.098  0.00  0.00    +0.000 C 
ATOM     31  C   UNL     1       4.334   3.554  18.730  0.00  0.00    +0.000 C 
ATOM     32  C   UNL     1       2.814   3.591  18.737  0.00  0.00    +0.000 C 
ATOM     33  C   UNL     1       2.307   4.679  17.805  0.00  0.00    +0.000 C 
ENDBRANCH  21  28
ENDBRANCH  18  25
ENDBRANCH   1  18
TORSDOF 6
ENDMDL
MODEL 7
REMARK VINA RESULT:      -7.5      0.878      1.405
REMARK  Name = 
REMARK  6 active torsions:
REMARK  status: ('A' for Active; 'I' for Inactive)
REMARK    1  A    between atoms: C_2  and  C_3
REMARK    2  A    between atoms: C_12  and  N_13
REMARK    3  A    between atoms: N_13  and  C_14
REMARK    4  A    between atoms: C_14  and  C_15
REMARK    5  A    between atoms: C_14  and  C_25
REMARK    6  A    between atoms: C_18  and  C_19
REMARK                            x       y       z     vdW  Elec       q    Type
REMARK                         _______ _______ _______ _____ _____    ______ ____
ROOT
ATOM      1  C   UNL     1       0.199  12.763  19.699  0.00  0.00    +0.000 C 
ENDROOT
BRANCH   1   2
ATOM      2  C   UNL     1      -0.821  12.976  20.812  0.00  0.00    +0.000 A 
ATOM      3  C   UNL     1      -2.109  13.458  20.540  0.00  0.00    +0.000 A 
ATOM      4  C   UNL     1      -3.080  13.510  21.542  0.00  0.00    +0.000 A 
ATOM      5  C   UNL     1      -2.775  13.093  22.846  0.00  0.00    +0.000 A 
ATOM      6  C   UNL     1      -1.468  12.676  23.140  0.00  0.00    +0.000 A 
ATOM      7  C   UNL     1      -0.502  12.621  22.134  0.00  0.00    +0.000 A 
BRANCH   5   8
ATOM      8  C   UNL     1      -3.833  13.046  23.920  0.00  0.00    +0.000 C 
ATOM      9  F   UNL     1      -3.931  11.837  24.540  0.00  0.00    +0.000 F 
ATOM     10  F   UNL     1      -3.609  13.953  24.911  0.00  0.00    +0.000 F 
ATOM     11  F   UNL     1      -5.078  13.320  23.439  0.00  0.00    +0.000 F 
ENDBRANCH   5   8
ENDBRANCH   1   2
BRANCH   1  12
ATOM     12  C   UNL     1       1.169  13.954  19.615  0.00  0.00    +0.000 A 
ATOM     13  C   UNL     1       2.414  13.926  20.242  0.00  0.00    +0.000 A 
ATOM     14  N   UNL     1       3.283  14.967  20.220  0.00  0.00    +0.000 NA
ATOM     15  C   UNL     1       2.853  16.060  19.559  0.00  0.00    +0.000 A 
ATOM     16  C   UNL     1       1.618  16.110  18.937  0.00  0.00    +0.000 A 
ATOM     17  N   UNL     1       0.758  15.065  18.937  0.00  0.00    +0.000 NA
ENDBRANCH   1  12
BRANCH   1  18
ATOM     18  N   UNL     1       0.905  11.458  19.786  0.00  0.00    +0.000 NA
ATOM     19  H   UNL     1       1.734  11.538  19.196  0.00  0.00    +0.000 HD
BRANCH  18  25
ATOM     20  O   UNL     1       2.075   5.923  20.476  0.00  0.00    +0.000 OA
ATOM     21  C   UNL     1       2.222   6.607  19.466  0.00  0.00    +0.000 C 
ATOM     22  N   UNL     1       1.904   7.962  19.472  0.00  0.00    +0.000 N 
ATOM     23  C   UNL     1       1.448   8.586  20.717  0.00  0.00    +0.000 C 
ATOM     24  C   UNL     1       0.082   9.236  20.503  0.00  0.00    +0.000 C 
ATOM     25  C   UNL     1       0.122  10.279  19.360  0.00  0.00    +0.000 C 
ATOM     26  C   UNL     1       0.661   9.573  18.099  0.00  0.00    +0.000 C 
ATOM     27  C   UNL     1       2.010   8.893  18.350  0.00  0.00    +0.000 C 
BRANCH  21  28
ATOM     28  C   UNL     1       2.846   5.997  18.186  0.00  0.00    +0.000 C 
ATOM     29  C   UNL     1       4.385   5.922  18.296  0.00  0.00    +0.000 C 
ATOM     30  C   UNL     1       4.885   4.744  19.138  0.00  0.00    +0.000 C 
ATOM     31  C   UNL     1       4.277   3.414  18.707  0.00  0.00    +0.000 C 
ATOM     32  C   UNL     1       2.760   3.491  18.663  0.00  0.00    +0.000 C 
ATOM     33  C   UNL     1       2.314   4.621  17.750  0.00  0.00    +0.000 C 
ENDBRANCH  21  28
ENDBRANCH  18  25
ENDBRANCH   1  18
TORSDOF 6
ENDMDL
MODEL 8
REMARK VINA RESULT:      -7.4      0.915      1.445
REMARK  Name = 
REMARK  6 active torsions:
REMARK  status: ('A' for Active; 'I' for Inactive)
REMARK    1  A    between atoms: C_2  and  C_3
REMARK    2  A    between atoms: C_12  and  N_13
REMARK    3  A    between atoms: N_13  and  C_14
REMARK    4  A    between atoms: C_14  and  C_15
REMARK    5  A    between atoms: C_14  and  C_25
REMARK    6  A    between atoms: C_18  and  C_19
REMARK                            x       y       z     vdW  Elec       q    Type
REMARK                         _______ _______ _______ _____ _____    ______ ____
ROOT
ATOM      1  C   UNL     1       0.498  12.588  19.559  0.00  0.00    +0.000 C 
ENDROOT
BRANCH   1   2
ATOM      2  C   UNL     1      -0.623  12.500  20.589  0.00  0.00    +0.000 A 
ATOM      3  C   UNL     1      -0.353  12.245  21.942  0.00  0.00    +0.000 A 
ATOM      4  C   UNL     1      -1.368  12.312  22.898  0.00  0.00    +0.000 A 
ATOM      5  C   UNL     1      -2.682  12.621  22.515  0.00  0.00    +0.000 A 
ATOM      6  C   UNL     1      -2.971  12.807  21.155  0.00  0.00    +0.000 A 
ATOM      7  C   UNL     1      -1.952  12.744  20.203  0.00  0.00    +0.000 A 
BRANCH   5   8
ATOM      8  C   UNL     1      -3.774  12.796  23.541  0.00  0.00    +0.000 C 
ATOM      9  F   UNL     1      -5.023  12.871  23.004  0.00  0.00    +0.000 F 
ATOM     10  F   UNL     1      -3.817  11.770  24.436  0.00  0.00    +0.000 F 
ATOM     11  F   UNL     1      -3.619  13.929  24.282  0.00  0.00    +0.000 F 
ENDBRANCH   5   8
ENDBRANCH   1   2
BRANCH   1  12
ATOM     12  C   UNL     1       1.418  13.783  19.859  0.00  0.00    +0.000 A 
ATOM     13  C   UNL     1       2.522  13.660  20.700  0.00  0.00    +0.000 A 
ATOM     14  N   UNL     1       3.339  14.696  21.016  0.00  0.00    +0.000 NA
ATOM     15  C   UNL     1       3.000  15.881  20.471  0.00  0.00    +0.000 A 
ATOM     16  C   UNL     1       1.903  16.026  19.640  0.00  0.00    +0.000 A 
ATOM     17  N   UNL     1       1.100  14.989  19.304  0.00  0.00    +0.000 NA
ENDBRANCH   1  12
BRANCH   1  18
ATOM     18  N   UNL     1       1.249  11.317  19.393  0.00  0.00    +0.000 NA
ATOM     19  H   UNL     1       1.967  11.496  18.690  0.00  0.00    +0.000 HD
BRANCH  18  25
ATOM     20  O   UNL     1       1.832   5.840  20.857  0.00  0.00    +0.000 OA
ATOM     21  C   UNL     1       2.189   6.387  19.816  0.00  0.00    +0.000 C 
ATOM     22  N   UNL     1       1.988   7.750  19.624  0.00  0.00    +0.000 N 
ATOM     23  C   UNL     1       1.400   8.547  20.704  0.00  0.00    +0.000 C 
ATOM     24  C   UNL     1       0.143   9.256  20.203  0.00  0.00    +0.000 C 
ATOM     25  C   UNL     1       0.445  10.149  18.976  0.00  0.00    +0.000 C 
ATOM     26  C   UNL     1       1.110   9.263  17.903  0.00  0.00    +0.000 C 
ATOM     27  C   UNL     1       2.342   8.531  18.440  0.00  0.00    +0.000 C 
BRANCH  21  28
ATOM     28  C   UNL     1       2.949   5.588  18.727  0.00  0.00    +0.000 C 
ATOM     29  C   UNL     1       3.973   4.620  19.358  0.00  0.00    +0.000 C 
ATOM     30  C   UNL     1       3.348   3.333  19.907  0.00  0.00    +0.000 C 
ATOM     31  C   UNL     1       2.451   2.636  18.891  0.00  0.00    +0.000 C 
ATOM     32  C   UNL     1       1.411   3.590  18.327  0.00  0.00    +0.000 C 
ATOM     33  C   UNL     1       2.086   4.809  17.719  0.00  0.00    +0.000 C 
ENDBRANCH  21  28
ENDBRANCH  18  25
ENDBRANCH   1  18
TORSDOF 6
ENDMDL
MODEL 9
REMARK VINA RESULT:      -7.3      3.668      5.192
REMARK  Name = 
REMARK  6 active torsions:
REMARK  status: ('A' for Active; 'I' for Inactive)
REMARK    1  A    between atoms: C_2  and  C_3
REMARK    2  A    between atoms: C_12  and  N_13
REMARK    3  A    between atoms: N_13  and  C_14
REMARK    4  A    between atoms: C_14  and  C_15
REMARK    5  A    between atoms: C_14  and  C_25
REMARK    6  A    between atoms: C_18  and  C_19
REMARK                            x       y       z     vdW  Elec       q    Type
REMARK                         _______ _______ _______ _____ _____    ______ ____
ROOT
ATOM      1  C   UNL     1       0.389  12.650  21.247  0.00  0.00    +0.000 C 
ENDROOT
BRANCH   1   2
ATOM      2  C   UNL     1       0.967  13.611  20.213  0.00  0.00    +0.000 A 
ATOM      3  C   UNL     1       0.640  14.975  20.221  0.00  0.00    +0.000 A 
ATOM      4  C   UNL     1       1.286  15.870  19.366  0.00  0.00    +0.000 A 
ATOM      5  C   UNL     1       2.265  15.413  18.472  0.00  0.00    +0.000 A 
ATOM      6  C   UNL     1       2.545  14.040  18.411  0.00  0.00    +0.000 A 
ATOM      7  C   UNL     1       1.901  13.149  19.271  0.00  0.00    +0.000 A 
BRANCH   5   8
ATOM      8  C   UNL     1       3.046  16.374  17.610  0.00  0.00    +0.000 C 
ATOM      9  F   UNL     1       3.527  15.816  16.465  0.00  0.00    +0.000 F 
ATOM     10  F   UNL     1       2.299  17.443  17.215  0.00  0.00    +0.000 F 
ATOM     11  F   UNL     1       4.128  16.894  18.254  0.00  0.00    +0.000 F 
ENDBRANCH   5   8
ENDBRANCH   1   2
BRANCH   1  12
ATOM     12  C   UNL     1      -1.147  12.629  21.170  0.00  0.00    +0.000 A 
ATOM     13  C   UNL     1      -1.817  12.644  19.948  0.00  0.00    +0.000 A 
ATOM     14  N   UNL     1      -3.168  12.660  19.837  0.00  0.00    +0.000 NA
ATOM     15  C   UNL     1      -3.839  12.682  21.006  0.00  0.00    +0.000 A 
ATOM     16  C   UNL     1      -3.193  12.676  22.230  0.00  0.00    +0.000 A 
ATOM     17  N   UNL     1      -1.845  12.636  22.343  0.00  0.00    +0.000 NA
ENDBRANCH   1  12
BRANCH   1  18
ATOM     18  N   UNL     1       0.981  11.289  21.184  0.00  0.00    +0.000 NA
ATOM     19  H   UNL     1       1.803  11.358  20.583  0.00  0.00    +0.000 HD
BRANCH  18  25
ATOM     20  O   UNL     1       1.953   5.694  20.697  0.00  0.00    +0.000 OA
ATOM     21  C   UNL     1       2.002   6.549  19.817  0.00  0.00    +0.000 C 
ATOM     22  N   UNL     1       1.755   7.887  20.111  0.00  0.00    +0.000 N 
ATOM     23  C   UNL     1       1.496   8.280  21.498  0.00  0.00    +0.000 C 
ATOM     24  C   UNL     1       0.148   8.993  21.593  0.00  0.00    +0.000 C 
ATOM     25  C   UNL     1       0.091  10.229  20.663  0.00  0.00    +0.000 C 
ATOM     26  C   UNL     1       0.427   9.756  19.234  0.00  0.00    +0.000 C 
ATOM     27  C   UNL     1       1.762   9.007  19.171  0.00  0.00    +0.000 C 
BRANCH  21  28
ATOM     28  C   UNL     1       2.424   6.172  18.375  0.00  0.00    +0.000 C 
ATOM     29  C   UNL     1       3.959   6.225  18.210  0.00  0.00    +0.000 C 
ATOM     30  C   UNL     1       4.682   4.998  18.775  0.00  0.00    +0.000 C 
ATOM     31  C   UNL     1       4.097   3.686  18.266  0.00  0.00    +0.000 C 
ATOM     32  C   UNL     1       2.595   3.628  18.491  0.00  0.00    +0.000 C 
ATOM     33  C   UNL     1       1.916   4.822  17.841  0.00  0.00    +0.000 C 
ENDBRANCH  21  28
ENDBRANCH  18  25
ENDBRANCH   1  18
TORSDOF 6
ENDMDL
