MODEL 1
REMARK VINA RESULT:     -10.0      0.000      0.000
REMARK  Name = 
REMARK  8 active torsions:
REMARK  status: ('A' for Active; 'I' for Inactive)
REMARK    1  A    between atoms: C_1  and  N_2
REMARK    2  A    between atoms: C_5  and  S_6
REMARK    3  A    between atoms: S_6  and  N_9
REMARK    4  A    between atoms: C_14  and  C_15
REMARK    5  A    between atoms: C_14  and  C_27
REMARK    6  A    between atoms: C_15  and  N_16
REMARK    7  A    between atoms: C_17  and  C_19
REMARK    8  A    between atoms: C_27  and  C_28
REMARK                            x       y       z     vdW  Elec       q    Type
REMARK                         _______ _______ _______ _____ _____    ______ ____
ROOT
ATOM      1  N   UNL     1       5.602   5.210  17.613  0.00  0.00    +0.000 NA
ATOM      2  C   UNL     1       4.461   5.850  16.916  0.00  0.00    +0.000 C 
ATOM      3  C   UNL     1       3.246   5.085  17.372  0.00  0.00    +0.000 C 
ATOM      4  C   UNL     1       3.733   3.855  18.051  0.00  0.00    +0.000 C 
ATOM      5  C   UNL     1       5.224   3.853  18.049  0.00  0.00    +0.000 C 
ATOM      6  C   UNL     1       2.865   4.833  18.840  0.00  0.00    +0.000 C 
ENDROOT
BRANCH   1   7
ATOM      7  S   UNL     1       7.116   5.344  16.892  0.00  0.00    +0.000 S 
ATOM      8  O   UNL     1       7.982   4.331  17.460  0.00  0.00    +0.000 OA
ATOM      9  O   UNL     1       7.498   6.745  16.862  0.00  0.00    +0.000 OA
BRANCH   7  14
ATOM     10  C   UNL     1       5.764   3.143  12.343  0.00  0.00    +0.000 C 
ATOM     11  N   UNL     1       6.404   3.972  13.331  0.00  0.00    +0.000 N 
ATOM     12  C   UNL     1       7.348   4.927  13.091  0.00  0.00    +0.000 A 
ATOM     13  N   UNL     1       7.743   5.504  14.203  0.00  0.00    +0.000 NA
ATOM     14  C   UNL     1       7.000   4.896  15.209  0.00  0.00    +0.000 A 
ATOM     15  C   UNL     1       6.164   3.936  14.675  0.00  0.00    +0.000 A 
ENDBRANCH   7  14
ENDBRANCH   1   7
BRANCH   6  16
ATOM     16  C   UNL     1       3.446   5.777  19.886  0.00  0.00    +0.000 C 
BRANCH  16  17
ATOM     17  N   UNL     1       2.438   6.675  20.394  0.00  0.00    +0.000 N 
ATOM     18  C   UNL     1       2.080   7.844  19.770  0.00  0.00    +0.000 C 
ATOM     19  O   UNL     1       2.526   8.196  18.682  0.00  0.00    +0.000 OA
ATOM     20  H   UNL     1       2.125   6.516  21.340  0.00  0.00    +0.000 HD
BRANCH  18  21
ATOM     21  C   UNL     1       1.151   8.749  20.508  0.00  0.00    +0.000 A 
ATOM     22  C   UNL     1       1.204   8.685  21.914  0.00  0.00    +0.000 A 
ATOM     23  C   UNL     1       0.366   9.478  22.702  0.00  0.00    +0.000 A 
ATOM     24  C   UNL     1      -0.532  10.346  22.092  0.00  0.00    +0.000 A 
ATOM     25 CL   UNL     1      -1.570  11.324  23.053  0.00  0.00    +0.000 Cl
ATOM     26  C   UNL     1      -0.592  10.435  20.704  0.00  0.00    +0.000 A 
ATOM     27  C   UNL     1       0.253   9.649  19.910  0.00  0.00    +0.000 A 
ATOM     28 CL   UNL     1       0.134   9.904  18.203  0.00  0.00    +0.000 Cl
ENDBRANCH  18  21
ENDBRANCH  16  17
ENDBRANCH   6  16
BRANCH   6  29
ATOM     29  C   UNL     1       1.482   4.259  19.158  0.00  0.00    +0.000 C 
BRANCH  29  30
ATOM     30  C   UNL     1       1.503   2.984  19.936  0.00  0.00    +0.000 C 
ATOM     31  C   UNL     1       2.600   2.760  20.942  0.00  0.00    +0.000 C 
ATOM     32  C   UNL     1       1.179   2.915  21.406  0.00  0.00    +0.000 C 
ENDBRANCH  29  30
ENDBRANCH   6  29
TORSDOF 7
ENDMDL
MODEL 2
REMARK VINA RESULT:      -9.2      1.112      1.219
REMARK  Name = 
REMARK  8 active torsions:
REMARK  status: ('A' for Active; 'I' for Inactive)
REMARK    1  A    between atoms: C_1  and  N_2
REMARK    2  A    between atoms: C_5  and  S_6
REMARK    3  A    between atoms: S_6  and  N_9
REMARK    4  A    between atoms: C_14  and  C_15
REMARK    5  A    between atoms: C_14  and  C_27
REMARK    6  A    between atoms: C_15  and  N_16
REMARK    7  A    between atoms: C_17  and  C_19
REMARK    8  A    between atoms: C_27  and  C_28
REMARK                            x       y       z     vdW  Elec       q    Type
REMARK                         _______ _______ _______ _____ _____    ______ ____
ROOT
ATOM      1  N   UNL     1       5.742   5.431  17.354  0.00  0.00    +0.000 NA
ATOM      2  C   UNL     1       4.671   4.602  16.750  0.00  0.00    +0.000 C 
ATOM      3  C   UNL     1       3.716   4.315  17.879  0.00  0.00    +0.000 C 
ATOM      4  C   UNL     1       4.401   4.702  19.141  0.00  0.00    +0.000 C 
ATOM      5  C   UNL     1       5.750   5.247  18.817  0.00  0.00    +0.000 C 
ATOM      6  C   UNL     1       3.079   5.381  18.785  0.00  0.00    +0.000 C 
ENDROOT
BRANCH   1   7
ATOM      7  S   UNL     1       7.251   5.398  16.611  0.00  0.00    +0.000 S 
ATOM      8  O   UNL     1       8.028   4.330  17.207  0.00  0.00    +0.000 OA
ATOM      9  O   UNL     1       7.760   6.755  16.525  0.00  0.00    +0.000 OA
BRANCH   7  14
ATOM     10  C   UNL     1       5.764   3.029  12.190  0.00  0.00    +0.000 C 
ATOM     11  N   UNL     1       6.418   3.908  13.125  0.00  0.00    +0.000 N 
ATOM     12  C   UNL     1       7.309   4.893  12.814  0.00  0.00    +0.000 A 
ATOM     13  N   UNL     1       7.736   5.514  13.891  0.00  0.00    +0.000 NA
ATOM     14  C   UNL     1       7.070   4.903  14.947  0.00  0.00    +0.000 A 
ATOM     15  C   UNL     1       6.247   3.897  14.479  0.00  0.00    +0.000 A 
ENDBRANCH   7  14
ENDBRANCH   1   7
BRANCH   6  16
ATOM     16  C   UNL     1       3.014   6.807  18.250  0.00  0.00    +0.000 C 
BRANCH  16  17
ATOM     17  N   UNL     1       2.188   7.640  19.089  0.00  0.00    +0.000 N 
ATOM     18  C   UNL     1       1.703   8.863  18.700  0.00  0.00    +0.000 C 
ATOM     19  O   UNL     1       1.859   9.329  17.575  0.00  0.00    +0.000 OA
ATOM     20  H   UNL     1       2.126   7.382  20.063  0.00  0.00    +0.000 HD
BRANCH  18  21
ATOM     21  C   UNL     1       1.012   9.680  19.741  0.00  0.00    +0.000 A 
ATOM     22  C   UNL     1       0.423   8.968  20.803  0.00  0.00    +0.000 A 
ATOM     23  C   UNL     1      -0.263   9.634  21.822  0.00  0.00    +0.000 A 
ATOM     24  C   UNL     1      -0.363  11.020  21.791  0.00  0.00    +0.000 A 
ATOM     25 CL   UNL     1      -1.207  11.849  23.040  0.00  0.00    +0.000 Cl
ATOM     26  C   UNL     1       0.224  11.745  20.758  0.00  0.00    +0.000 A 
ATOM     27  C   UNL     1       0.919  11.083  19.738  0.00  0.00    +0.000 A 
ATOM     28 CL   UNL     1       1.664  12.098  18.552  0.00  0.00    +0.000 Cl
ENDBRANCH  18  21
ENDBRANCH  16  17
ENDBRANCH   6  16
BRANCH   6  29
ATOM     29  C   UNL     1       1.942   4.971  19.725  0.00  0.00    +0.000 C 
BRANCH  29  30
ATOM     30  C   UNL     1       2.281   3.855  20.658  0.00  0.00    +0.000 C 
ATOM     31  C   UNL     1       1.169   3.154  21.392  0.00  0.00    +0.000 C 
ATOM     32  C   UNL     1       1.967   2.412  20.357  0.00  0.00    +0.000 C 
ENDBRANCH  29  30
ENDBRANCH   6  29
TORSDOF 7
ENDMDL
MODEL 3
REMARK VINA RESULT:      -9.0      1.190      1.373
REMARK  Name = 
REMARK  8 active torsions:
REMARK  status: ('A' for Active; 'I' for Inactive)
REMARK    1  A    between atoms: C_1  and  N_2
REMARK    2  A    between atoms: C_5  and  S_6
REMARK    3  A    between atoms: S_6  and  N_9
REMARK    4  A    between atoms: C_14  and  C_15
REMARK    5  A    between atoms: C_14  and  C_27
REMARK    6  A    between atoms: C_15  and  N_16
REMARK    7  A    between atoms: C_17  and  C_19
REMARK    8  A    between atoms: C_27  and  C_28
REMARK                            x       y       z     vdW  Elec       q    Type
REMARK                         _______ _______ _______ _____ _____    ______ ____
ROOT
ATOM      1  N   UNL     1       5.554   5.191  17.576  0.00  0.00    +0.000 NA
ATOM      2  C   UNL     1       4.394   5.821  16.901  0.00  0.00    +0.000 C 
ATOM      3  C   UNL     1       3.200   5.013  17.340  0.00  0.00    +0.000 C 
ATOM      4  C   UNL     1       3.721   3.777  17.983  0.00  0.00    +0.000 C 
ATOM      5  C   UNL     1       5.211   3.813  17.976  0.00  0.00    +0.000 C 
ATOM      6  C   UNL     1       2.831   4.712  18.802  0.00  0.00    +0.000 C 
ENDROOT
BRANCH   1   7
ATOM      7  S   UNL     1       7.061   5.382  16.854  0.00  0.00    +0.000 S 
ATOM      8  O   UNL     1       7.969   4.414  17.435  0.00  0.00    +0.000 OA
ATOM      9  O   UNL     1       7.381   6.798  16.810  0.00  0.00    +0.000 OA
BRANCH   7  14
ATOM     10  C   UNL     1       5.755   3.130  12.317  0.00  0.00    +0.000 C 
ATOM     11  N   UNL     1       6.388   3.966  13.304  0.00  0.00    +0.000 N 
ATOM     12  C   UNL     1       7.346   4.908  13.064  0.00  0.00    +0.000 A 
ATOM     13  N   UNL     1       7.731   5.497  14.174  0.00  0.00    +0.000 NA
ATOM     14  C   UNL     1       6.966   4.911  15.176  0.00  0.00    +0.000 A 
ATOM     15  C   UNL     1       6.128   3.953  14.643  0.00  0.00    +0.000 A 
ENDBRANCH   7  14
ENDBRANCH   1   7
BRANCH   6  16
ATOM     16  C   UNL     1       3.393   5.641  19.872  0.00  0.00    +0.000 C 
BRANCH  16  17
ATOM     17  N   UNL     1       2.840   6.967  19.750  0.00  0.00    +0.000 N 
ATOM     18  C   UNL     1       1.752   7.403  20.464  0.00  0.00    +0.000 C 
ATOM     19  O   UNL     1       1.196   6.734  21.330  0.00  0.00    +0.000 OA
ATOM     20  H   UNL     1       3.163   7.523  18.972  0.00  0.00    +0.000 HD
BRANCH  18  21
ATOM     21  C   UNL     1       1.193   8.738  20.099  0.00  0.00    +0.000 A 
ATOM     22  C   UNL     1       0.494   9.419  21.115  0.00  0.00    +0.000 A 
ATOM     23  C   UNL     1      -0.084  10.669  20.875  0.00  0.00    +0.000 A 
ATOM     24  C   UNL     1       0.034  11.251  19.618  0.00  0.00    +0.000 A 
ATOM     25 CL   UNL     1      -0.675  12.788  19.313  0.00  0.00    +0.000 Cl
ATOM     26  C   UNL     1       0.733  10.602  18.605  0.00  0.00    +0.000 A 
ATOM     27  C   UNL     1       1.321   9.352  18.842  0.00  0.00    +0.000 A 
ATOM     28 CL   UNL     1       2.222   8.682  17.527  0.00  0.00    +0.000 Cl
ENDBRANCH  18  21
ENDBRANCH  16  17
ENDBRANCH   6  16
BRANCH   6  29
ATOM     29  C   UNL     1       1.464   4.095  19.108  0.00  0.00    +0.000 C 
BRANCH  29  30
ATOM     30  C   UNL     1       1.514   2.870  19.963  0.00  0.00    +0.000 C 
ATOM     31  C   UNL     1       2.628   2.723  20.965  0.00  0.00    +0.000 C 
ATOM     32  C   UNL     1       1.212   2.890  21.440  0.00  0.00    +0.000 C 
ENDBRANCH  29  30
ENDBRANCH   6  29
TORSDOF 7
ENDMDL
MODEL 4
REMARK VINA RESULT:      -8.9      1.304      1.689
REMARK  Name = 
REMARK  8 active torsions:
REMARK  status: ('A' for Active; 'I' for Inactive)
REMARK    1  A    between atoms: C_1  and  N_2
REMARK    2  A    between atoms: C_5  and  S_6
REMARK    3  A    between atoms: S_6  and  N_9
REMARK    4  A    between atoms: C_14  and  C_15
REMARK    5  A    between atoms: C_14  and  C_27
REMARK    6  A    between atoms: C_15  and  N_16
REMARK    7  A    between atoms: C_17  and  C_19
REMARK    8  A    between atoms: C_27  and  C_28
REMARK                            x       y       z     vdW  Elec       q    Type
REMARK                         _______ _______ _______ _____ _____    ______ ____
ROOT
ATOM      1  N   UNL     1       5.776   5.421  17.279  0.00  0.00    +0.000 NA
ATOM      2  C   UNL     1       4.676   4.645  16.657  0.00  0.00    +0.000 C 
ATOM      3  C   UNL     1       3.705   4.378  17.777  0.00  0.00    +0.000 C 
ATOM      4  C   UNL     1       4.397   4.718  19.048  0.00  0.00    +0.000 C 
ATOM      5  C   UNL     1       5.769   5.214  18.740  0.00  0.00    +0.000 C 
ATOM      6  C   UNL     1       3.106   5.454  18.697  0.00  0.00    +0.000 C 
ENDROOT
BRANCH   1   7
ATOM      7  S   UNL     1       7.286   5.339  16.543  0.00  0.00    +0.000 S 
ATOM      8  O   UNL     1       8.020   4.237  17.130  0.00  0.00    +0.000 OA
ATOM      9  O   UNL     1       7.845   6.678  16.475  0.00  0.00    +0.000 OA
BRANCH   7  14
ATOM     10  C   UNL     1       5.788   3.024  12.098  0.00  0.00    +0.000 C 
ATOM     11  N   UNL     1       6.439   3.896  13.041  0.00  0.00    +0.000 N 
ATOM     12  C   UNL     1       7.312   4.900  12.738  0.00  0.00    +0.000 A 
ATOM     13  N   UNL     1       7.740   5.509  13.820  0.00  0.00    +0.000 NA
ATOM     14  C   UNL     1       7.094   4.870  14.873  0.00  0.00    +0.000 A 
ATOM     15  C   UNL     1       6.282   3.860  14.396  0.00  0.00    +0.000 A 
ENDBRANCH   7  14
ENDBRANCH   1   7
BRANCH   6  16
ATOM     16  C   UNL     1       3.100   6.890  18.185  0.00  0.00    +0.000 C 
BRANCH  16  17
ATOM     17  N   UNL     1       2.102   7.680  18.863  0.00  0.00    +0.000 N 
ATOM     18  C   UNL     1       1.679   8.908  18.421  0.00  0.00    +0.000 C 
ATOM     19  O   UNL     1       2.050   9.415  17.366  0.00  0.00    +0.000 OA
ATOM     20  H   UNL     1       1.850   7.388  19.796  0.00  0.00    +0.000 HD
BRANCH  18  21
ATOM     21  C   UNL     1       0.773   9.678  19.324  0.00  0.00    +0.000 A 
ATOM     22  C   UNL     1       0.042  10.725  18.729  0.00  0.00    +0.000 A 
ATOM     23  C   UNL     1      -0.822  11.519  19.487  0.00  0.00    +0.000 A 
ATOM     24  C   UNL     1      -0.967  11.273  20.848  0.00  0.00    +0.000 A 
ATOM     25 CL   UNL     1      -2.026  12.246  21.790  0.00  0.00    +0.000 Cl
ATOM     26  C   UNL     1      -0.264  10.234  21.453  0.00  0.00    +0.000 A 
ATOM     27  C   UNL     1       0.597   9.430  20.696  0.00  0.00    +0.000 A 
ATOM     28 CL   UNL     1       1.355   8.130  21.547  0.00  0.00    +0.000 Cl
ENDBRANCH  18  21
ENDBRANCH  16  17
ENDBRANCH   6  16
BRANCH   6  29
ATOM     29  C   UNL     1       1.948   5.075  19.625  0.00  0.00    +0.000 C 
BRANCH  29  30
ATOM     30  C   UNL     1       2.339   4.219  20.786  0.00  0.00    +0.000 C 
ATOM     31  C   UNL     1       1.300   3.338  21.426  0.00  0.00    +0.000 C 
ATOM     32  C   UNL     1       2.458   2.719  20.694  0.00  0.00    +0.000 C 
ENDBRANCH  29  30
ENDBRANCH   6  29
TORSDOF 7
ENDMDL
MODEL 5
REMARK VINA RESULT:      -8.9      1.124      1.824
REMARK  Name = 
REMARK  8 active torsions:
REMARK  status: ('A' for Active; 'I' for Inactive)
REMARK    1  A    between atoms: C_1  and  N_2
REMARK    2  A    between atoms: C_5  and  S_6
REMARK    3  A    between atoms: S_6  and  N_9
REMARK    4  A    between atoms: C_14  and  C_15
REMARK    5  A    between atoms: C_14  and  C_27
REMARK    6  A    between atoms: C_15  and  N_16
REMARK    7  A    between atoms: C_17  and  C_19
REMARK    8  A    between atoms: C_27  and  C_28
REMARK                            x       y       z     vdW  Elec       q    Type
REMARK                         _______ _______ _______ _____ _____    ______ ____
ROOT
ATOM      1  N   UNL     1       5.562   5.191  17.642  0.00  0.00    +0.000 NA
ATOM      2  C   UNL     1       4.377   5.565  16.833  0.00  0.00    +0.000 C 
ATOM      3  C   UNL     1       3.243   4.752  17.401  0.00  0.00    +0.000 C 
ATOM      4  C   UNL     1       3.844   3.721  18.288  0.00  0.00    +0.000 C 
ATOM      5  C   UNL     1       5.325   3.893  18.303  0.00  0.00    +0.000 C 
ATOM      6  C   UNL     1       2.847   4.712  18.886  0.00  0.00    +0.000 C 
ENDROOT
BRANCH   1   7
ATOM      7  S   UNL     1       7.072   5.375  16.926  0.00  0.00    +0.000 S 
ATOM      8  O   UNL     1       7.973   4.401  17.507  0.00  0.00    +0.000 OA
ATOM      9  O   UNL     1       7.401   6.789  16.886  0.00  0.00    +0.000 OA
BRANCH   7  14
ATOM     10  C   UNL     1       5.774   3.136  12.380  0.00  0.00    +0.000 C 
ATOM     11  N   UNL     1       6.406   3.969  13.370  0.00  0.00    +0.000 N 
ATOM     12  C   UNL     1       7.364   4.912  13.135  0.00  0.00    +0.000 A 
ATOM     13  N   UNL     1       7.746   5.497  14.247  0.00  0.00    +0.000 NA
ATOM     14  C   UNL     1       6.980   4.909  15.246  0.00  0.00    +0.000 A 
ATOM     15  C   UNL     1       6.143   3.952  14.709  0.00  0.00    +0.000 A 
ENDBRANCH   7  14
ENDBRANCH   1   7
BRANCH   6  16
ATOM     16  C   UNL     1       3.286   5.882  19.760  0.00  0.00    +0.000 C 
BRANCH  16  17
ATOM     17  N   UNL     1       2.539   7.074  19.444  0.00  0.00    +0.000 N 
ATOM     18  C   UNL     1       1.847   7.805  20.378  0.00  0.00    +0.000 C 
ATOM     19  O   UNL     1       1.864   7.559  21.581  0.00  0.00    +0.000 OA
ATOM     20  H   UNL     1       2.376   7.261  18.466  0.00  0.00    +0.000 HD
BRANCH  18  21
ATOM     21  C   UNL     1       0.981   8.909  19.869  0.00  0.00    +0.000 A 
ATOM     22  C   UNL     1       1.204   9.312  18.537  0.00  0.00    +0.000 A 
ATOM     23  C   UNL     1       0.460  10.348  17.967  0.00  0.00    +0.000 A 
ATOM     24  C   UNL     1      -0.517  10.989  18.720  0.00  0.00    +0.000 A 
ATOM     25 CL   UNL     1      -1.436  12.267  18.027  0.00  0.00    +0.000 Cl
ATOM     26  C   UNL     1      -0.763  10.598  20.033  0.00  0.00    +0.000 A 
ATOM     27  C   UNL     1      -0.025   9.554  20.608  0.00  0.00    +0.000 A 
ATOM     28 CL   UNL     1      -0.473   9.113  22.219  0.00  0.00    +0.000 Cl
ENDBRANCH  18  21
ENDBRANCH  16  17
ENDBRANCH   6  16
BRANCH   6  29
ATOM     29  C   UNL     1       1.529   4.043  19.283  0.00  0.00    +0.000 C 
BRANCH  29  30
ATOM     30  C   UNL     1       1.684   2.811  20.115  0.00  0.00    +0.000 C 
ATOM     31  C   UNL     1       2.659   2.821  21.261  0.00  0.00    +0.000 C 
ATOM     32  C   UNL     1       1.185   2.713  21.534  0.00  0.00    +0.000 C 
ENDBRANCH  29  30
ENDBRANCH   6  29
TORSDOF 7
ENDMDL
MODEL 6
REMARK VINA RESULT:      -8.7      1.244      1.764
REMARK  Name = 
REMARK  8 active torsions:
REMARK  status: ('A' for Active; 'I' for Inactive)
REMARK    1  A    between atoms: C_1  and  N_2
REMARK    2  A    between atoms: C_5  and  S_6
REMARK    3  A    between atoms: S_6  and  N_9
REMARK    4  A    between atoms: C_14  and  C_15
REMARK    5  A    between atoms: C_14  and  C_27
REMARK    6  A    between atoms: C_15  and  N_16
REMARK    7  A    between atoms: C_17  and  C_19
REMARK    8  A    between atoms: C_27  and  C_28
REMARK                            x       y       z     vdW  Elec       q    Type
REMARK                         _______ _______ _______ _____ _____    ______ ____
ROOT
ATOM      1  N   UNL     1       5.491   5.251  17.675  0.00  0.00    +0.000 NA
ATOM      2  C   UNL     1       4.264   5.513  16.884  0.00  0.00    +0.000 C 
ATOM      3  C   UNL     1       3.173   4.754  17.592  0.00  0.00    +0.000 C 
ATOM      4  C   UNL     1       3.833   3.840  18.561  0.00  0.00    +0.000 C 
ATOM      5  C   UNL     1       5.310   4.034  18.488  0.00  0.00    +0.000 C 
ATOM      6  C   UNL     1       2.844   4.878  19.089  0.00  0.00    +0.000 C 
ENDROOT
BRANCH   1   7
ATOM      7  S   UNL     1       6.964   5.375  16.873  0.00  0.00    +0.000 S 
ATOM      8  O   UNL     1       7.895   4.451  17.488  0.00  0.00    +0.000 OA
ATOM      9  O   UNL     1       7.285   6.780  16.700  0.00  0.00    +0.000 OA
BRANCH   7  14
ATOM     10  C   UNL     1       7.369   4.602  11.715  0.00  0.00    +0.000 C 
ATOM     11  N   UNL     1       6.995   4.468  13.099  0.00  0.00    +0.000 N 
ATOM     12  C   UNL     1       6.181   3.505  13.622  0.00  0.00    +0.000 A 
ATOM     13  N   UNL     1       6.025   3.659  14.918  0.00  0.00    +0.000 NA
ATOM     14  C   UNL     1       6.792   4.772  15.244  0.00  0.00    +0.000 A 
ATOM     15  C   UNL     1       7.399   5.285  14.115  0.00  0.00    +0.000 A 
ENDBRANCH   7  14
ENDBRANCH   1   7
BRANCH   6  16
ATOM     16  C   UNL     1       3.298   6.146  19.803  0.00  0.00    +0.000 C 
BRANCH  16  17
ATOM     17  N   UNL     1       2.225   7.107  19.887  0.00  0.00    +0.000 N 
ATOM     18  C   UNL     1       2.103   8.182  19.042  0.00  0.00    +0.000 C 
ATOM     19  O   UNL     1       2.848   8.383  18.087  0.00  0.00    +0.000 OA
ATOM     20  H   UNL     1       1.655   7.078  20.719  0.00  0.00    +0.000 HD
BRANCH  18  21
ATOM     21  C   UNL     1       1.043   9.181  19.367  0.00  0.00    +0.000 A 
ATOM     22  C   UNL     1       0.338   9.719  18.272  0.00  0.00    +0.000 A 
ATOM     23  C   UNL     1      -0.664  10.674  18.462  0.00  0.00    +0.000 A 
ATOM     24  C   UNL     1      -0.973  11.099  19.750  0.00  0.00    +0.000 A 
ATOM     25 CL   UNL     1      -2.203  12.276  19.994  0.00  0.00    +0.000 Cl
ATOM     26  C   UNL     1      -0.299  10.570  20.846  0.00  0.00    +0.000 A 
ATOM     27  C   UNL     1       0.701   9.606  20.662  0.00  0.00    +0.000 A 
ATOM     28 CL   UNL     1       1.414   8.975  22.105  0.00  0.00    +0.000 Cl
ENDBRANCH  18  21
ENDBRANCH  16  17
ENDBRANCH   6  16
BRANCH   6  29
ATOM     29  C   UNL     1       1.558   4.239  19.620  0.00  0.00    +0.000 C 
BRANCH  29  30
ATOM     30  C   UNL     1       1.759   2.946  20.342  0.00  0.00    +0.000 C 
ATOM     31  C   UNL     1       2.621   2.924  21.576  0.00  0.00    +0.000 C 
ATOM     32  C   UNL     1       1.147   2.656  21.688  0.00  0.00    +0.000 C 
ENDBRANCH  29  30
ENDBRANCH   6  29
TORSDOF 7
ENDMDL
MODEL 7
REMARK VINA RESULT:      -8.6      2.166      2.903
REMARK  Name = 
REMARK  8 active torsions:
REMARK  status: ('A' for Active; 'I' for Inactive)
REMARK    1  A    between atoms: C_1  and  N_2
REMARK    2  A    between atoms: C_5  and  S_6
REMARK    3  A    between atoms: S_6  and  N_9
REMARK    4  A    between atoms: C_14  and  C_15
REMARK    5  A    between atoms: C_14  and  C_27
REMARK    6  A    between atoms: C_15  and  N_16
REMARK    7  A    between atoms: C_17  and  C_19
REMARK    8  A    between atoms: C_27  and  C_28
REMARK                            x       y       z     vdW  Elec       q    Type
REMARK                         _______ _______ _______ _____ _____    ______ ____
ROOT
ATOM      1  N   UNL     1       4.637   5.324  17.675  0.00  0.00    +0.000 NA
ATOM      2  C   UNL     1       3.327   5.830  17.201  0.00  0.00    +0.000 C 
ATOM      3  C   UNL     1       2.303   4.942  17.858  0.00  0.00    +0.000 C 
ATOM      4  C   UNL     1       3.033   3.778  18.426  0.00  0.00    +0.000 C 
ATOM      5  C   UNL     1       4.491   3.938  18.158  0.00  0.00    +0.000 C 
ATOM      6  C   UNL     1       2.219   4.664  19.368  0.00  0.00    +0.000 C 
ENDROOT
BRANCH   1   7
ATOM      7  S   UNL     1       5.974   5.614  16.697  0.00  0.00    +0.000 S 
ATOM      8  O   UNL     1       5.537   6.371  15.542  0.00  0.00    +0.000 OA
ATOM      9  O   UNL     1       6.729   4.380  16.560  0.00  0.00    +0.000 OA
BRANCH   7  14
ATOM     10  C   UNL     1       8.716   9.793  18.241  0.00  0.00    +0.000 C 
ATOM     11  N   UNL     1       8.183   8.458  18.144  0.00  0.00    +0.000 N 
ATOM     12  C   UNL     1       8.494   7.407  18.957  0.00  0.00    +0.000 A 
ATOM     13  N   UNL     1       7.848   6.319  18.604  0.00  0.00    +0.000 NA
ATOM     14  C   UNL     1       7.070   6.697  17.517  0.00  0.00    +0.000 A 
ATOM     15  C   UNL     1       7.274   8.030  17.220  0.00  0.00    +0.000 A 
ENDBRANCH   7  14
ENDBRANCH   1   7
BRANCH   6  16
ATOM     16  C   UNL     1       2.873   5.675  20.303  0.00  0.00    +0.000 C 
BRANCH  16  17
ATOM     17  N   UNL     1       1.925   6.673  20.734  0.00  0.00    +0.000 N 
ATOM     18  C   UNL     1       1.783   7.896  20.127  0.00  0.00    +0.000 C 
ATOM     19  O   UNL     1       2.391   8.224  19.112  0.00  0.00    +0.000 OA
ATOM     20  H   UNL     1       1.487   6.524  21.631  0.00  0.00    +0.000 HD
BRANCH  18  21
ATOM     21  C   UNL     1       0.887   8.885  20.796  0.00  0.00    +0.000 A 
ATOM     22  C   UNL     1       0.886   8.871  22.204  0.00  0.00    +0.000 A 
ATOM     23  C   UNL     1       0.072   9.744  22.930  0.00  0.00    +0.000 A 
ATOM     24  C   UNL     1      -0.747  10.642  22.255  0.00  0.00    +0.000 A 
ATOM     25 CL   UNL     1      -1.755  11.719  23.140  0.00  0.00    +0.000 Cl
ATOM     26  C   UNL     1      -0.751  10.682  20.864  0.00  0.00    +0.000 A 
ATOM     27  C   UNL     1       0.070   9.815  20.131  0.00  0.00    +0.000 A 
ATOM     28 CL   UNL     1       0.029  10.011  18.414  0.00  0.00    +0.000 Cl
ENDBRANCH  18  21
ENDBRANCH  16  17
ENDBRANCH   6  16
BRANCH   6  29
ATOM     29  C   UNL     1       0.986   3.947  19.922  0.00  0.00    +0.000 C 
BRANCH  29  30
ATOM     30  C   UNL     1       1.283   2.687  20.668  0.00  0.00    +0.000 C 
ATOM     31  C   UNL     1       2.553   2.596  21.471  0.00  0.00    +0.000 C 
ATOM     32  C   UNL     1       1.223   2.591  22.171  0.00  0.00    +0.000 C 
ENDBRANCH  29  30
ENDBRANCH   6  29
TORSDOF 7
ENDMDL
MODEL 8
REMARK VINA RESULT:      -8.5      2.472      3.497
REMARK  Name = 
REMARK  8 active torsions:
REMARK  status: ('A' for Active; 'I' for Inactive)
REMARK    1  A    between atoms: C_1  and  N_2
REMARK    2  A    between atoms: C_5  and  S_6
REMARK    3  A    between atoms: S_6  and  N_9
REMARK    4  A    between atoms: C_14  and  C_15
REMARK    5  A    between atoms: C_14  and  C_27
REMARK    6  A    between atoms: C_15  and  N_16
REMARK    7  A    between atoms: C_17  and  C_19
REMARK    8  A    between atoms: C_27  and  C_28
REMARK                            x       y       z     vdW  Elec       q    Type
REMARK                         _______ _______ _______ _____ _____    ______ ____
ROOT
ATOM      1  N   UNL     1       5.697   4.817  17.863  0.00  0.00    +0.000 NA
ATOM      2  C   UNL     1       5.195   3.462  17.527  0.00  0.00    +0.000 C 
ATOM      3  C   UNL     1       4.057   3.219  18.484  0.00  0.00    +0.000 C 
ATOM      4  C   UNL     1       4.131   4.274  19.529  0.00  0.00    +0.000 C 
ATOM      5  C   UNL     1       5.275   5.181  19.228  0.00  0.00    +0.000 C 
ATOM      6  C   UNL     1       2.862   4.164  18.687  0.00  0.00    +0.000 C 
ENDROOT
BRANCH   1   7
ATOM      7  S   UNL     1       7.299   5.159  17.483  0.00  0.00    +0.000 S 
ATOM      8  O   UNL     1       7.475   4.987  16.056  0.00  0.00    +0.000 OA
ATOM      9  O   UNL     1       8.160   4.492  18.444  0.00  0.00    +0.000 OA
BRANCH   7  14
ATOM     10  C   UNL     1       9.087   9.748  19.248  0.00  0.00    +0.000 C 
ATOM     11  N   UNL     1       8.382   8.749  18.487  0.00  0.00    +0.000 N 
ATOM     12  C   UNL     1       7.550   8.981  17.430  0.00  0.00    +0.000 A 
ATOM     13  N   UNL     1       7.052   7.862  16.954  0.00  0.00    +0.000 NA
ATOM     14  C   UNL     1       7.607   6.858  17.739  0.00  0.00    +0.000 A 
ATOM     15  C   UNL     1       8.436   7.402  18.700  0.00  0.00    +0.000 A 
ENDBRANCH   7  14
ENDBRANCH   1   7
BRANCH   6  16
ATOM     16  C   UNL     1       2.544   5.143  17.562  0.00  0.00    +0.000 C 
BRANCH  16  17
ATOM     17  N   UNL     1       1.935   6.345  18.076  0.00  0.00    +0.000 N 
ATOM     18  C   UNL     1       2.557   7.569  18.077  0.00  0.00    +0.000 C 
ATOM     19  O   UNL     1       3.656   7.772  17.569  0.00  0.00    +0.000 OA
ATOM     20  H   UNL     1       1.093   6.230  18.620  0.00  0.00    +0.000 HD
BRANCH  18  21
ATOM     21  C   UNL     1       1.869   8.678  18.802  0.00  0.00    +0.000 A 
ATOM     22  C   UNL     1       1.703   9.881  18.088  0.00  0.00    +0.000 A 
ATOM     23  C   UNL     1       1.087  10.987  18.678  0.00  0.00    +0.000 A 
ATOM     24  C   UNL     1       0.627  10.901  19.987  0.00  0.00    +0.000 A 
ATOM     25 CL   UNL     1      -0.131  12.258  20.723  0.00  0.00    +0.000 Cl
ATOM     26  C   UNL     1       0.768   9.718  20.706  0.00  0.00    +0.000 A 
ATOM     27  C   UNL     1       1.378   8.602  20.116  0.00  0.00    +0.000 A 
ATOM     28 CL   UNL     1       1.429   7.171  21.086  0.00  0.00    +0.000 Cl
ENDBRANCH  18  21
ENDBRANCH  16  17
ENDBRANCH   6  16
BRANCH   6  29
ATOM     29  C   UNL     1       1.661   3.676  19.502  0.00  0.00    +0.000 C 
BRANCH  29  30
ATOM     30  C   UNL     1       1.882   3.657  20.980  0.00  0.00    +0.000 C 
ATOM     31  C   UNL     1       1.108   2.678  21.821  0.00  0.00    +0.000 C 
ATOM     32  C   UNL     1       2.598   2.535  21.686  0.00  0.00    +0.000 C 
ENDBRANCH  29  30
ENDBRANCH   6  29
TORSDOF 7
ENDMDL
MODEL 9
REMARK VINA RESULT:      -8.5      0.731      1.018
REMARK  Name = 
REMARK  8 active torsions:
REMARK  status: ('A' for Active; 'I' for Inactive)
REMARK    1  A    between atoms: C_1  and  N_2
REMARK    2  A    between atoms: C_5  and  S_6
REMARK    3  A    between atoms: S_6  and  N_9
REMARK    4  A    between atoms: C_14  and  C_15
REMARK    5  A    between atoms: C_14  and  C_27
REMARK    6  A    between atoms: C_15  and  N_16
REMARK    7  A    between atoms: C_17  and  C_19
REMARK    8  A    between atoms: C_27  and  C_28
REMARK                            x       y       z     vdW  Elec       q    Type
REMARK                         _______ _______ _______ _____ _____    ______ ____
ROOT
ATOM      1  N   UNL     1       5.551   5.260  17.650  0.00  0.00    +0.000 NA
ATOM      2  C   UNL     1       4.362   5.780  16.932  0.00  0.00    +0.000 C 
ATOM      3  C   UNL     1       3.189   5.062  17.546  0.00  0.00    +0.000 C 
ATOM      4  C   UNL     1       3.737   3.943  18.358  0.00  0.00    +0.000 C 
ATOM      5  C   UNL     1       5.226   3.967  18.282  0.00  0.00    +0.000 C 
ATOM      6  C   UNL     1       2.884   5.004  19.052  0.00  0.00    +0.000 C 
ENDROOT
BRANCH   1   7
ATOM      7  S   UNL     1       7.025   5.322  16.843  0.00  0.00    +0.000 S 
ATOM      8  O   UNL     1       7.912   4.345  17.441  0.00  0.00    +0.000 OA
ATOM      9  O   UNL     1       7.415   6.712  16.689  0.00  0.00    +0.000 OA
BRANCH   7  14
ATOM     10  C   UNL     1       7.366   4.608  11.672  0.00  0.00    +0.000 C 
ATOM     11  N   UNL     1       6.994   4.471  13.056  0.00  0.00    +0.000 N 
ATOM     12  C   UNL     1       6.141   3.538  13.571  0.00  0.00    +0.000 A 
ATOM     13  N   UNL     1       5.999   3.679  14.869  0.00  0.00    +0.000 NA
ATOM     14  C   UNL     1       6.817   4.751  15.207  0.00  0.00    +0.000 A 
ATOM     15  C   UNL     1       7.440   5.254  14.082  0.00  0.00    +0.000 A 
ENDBRANCH   7  14
ENDBRANCH   1   7
BRANCH   6  16
ATOM     16  C   UNL     1       3.491   6.090  19.932  0.00  0.00    +0.000 C 
BRANCH  16  17
ATOM     17  N   UNL     1       2.472   6.969  20.450  0.00  0.00    +0.000 N 
ATOM     18  C   UNL     1       1.985   8.053  19.762  0.00  0.00    +0.000 C 
ATOM     19  O   UNL     1       2.312   8.330  18.612  0.00  0.00    +0.000 OA
ATOM     20  H   UNL     1       2.251   6.880  21.431  0.00  0.00    +0.000 HD
BRANCH  18  21
ATOM     21  C   UNL     1       1.064   8.966  20.501  0.00  0.00    +0.000 A 
ATOM     22  C   UNL     1       0.544   8.478  21.715  0.00  0.00    +0.000 A 
ATOM     23  C   UNL     1      -0.341   9.245  22.478  0.00  0.00    +0.000 A 
ATOM     24  C   UNL     1      -0.712  10.509  22.036  0.00  0.00    +0.000 A 
ATOM     25 CL   UNL     1      -1.802  11.460  22.966  0.00  0.00    +0.000 Cl
ATOM     26  C   UNL     1      -0.199  11.017  20.845  0.00  0.00    +0.000 A 
ATOM     27  C   UNL     1       0.695  10.255  20.081  0.00  0.00    +0.000 A 
ATOM     28 CL   UNL     1       1.316  11.024  18.662  0.00  0.00    +0.000 Cl
ENDBRANCH  18  21
ENDBRANCH  16  17
ENDBRANCH   6  16
BRANCH   6  29
ATOM     29  C   UNL     1       1.532   4.454  19.513  0.00  0.00    +0.000 C 
BRANCH  29  30
ATOM     30  C   UNL     1       1.508   3.967  20.925  0.00  0.00    +0.000 C 
ATOM     31  C   UNL     1       1.210   2.516  21.193  0.00  0.00    +0.000 C 
ATOM     32  C   UNL     1       2.574   3.068  21.499  0.00  0.00    +0.000 C 
ENDBRANCH  29  30
ENDBRANCH   6  29
TORSDOF 7
ENDMDL
