MODEL 1
REMARK VINA RESULT:      -8.7      0.000      0.000
REMARK  Name = 
REMARK  10 active torsions:
REMARK  status: ('A' for Active; 'I' for Inactive)
REMARK    1  A    between atoms: C_1  and  N_2
REMARK    2  A    between atoms: N_2  and  C_3
REMARK    3  A    between atoms: C_3  and  C_4
REMARK    4  A    between atoms: N_6  and  C_7
REMARK    5  A    between atoms: C_14  and  C_16
REMARK    6  A    between atoms: C_16  and  O_17
REMARK    7  A    between atoms: O_17  and  C_18
REMARK    8  A    between atoms: C_18  and  C_20
REMARK    9  A    between atoms: N_25  and  C_26
REMARK   10  A    between atoms: C_26  and  C_27
REMARK                            x       y       z     vdW  Elec       q    Type
REMARK                         _______ _______ _______ _____ _____    ______ ____
ROOT
ATOM      1  C   UNL     1       2.204   5.032  18.793  0.00  0.00    +0.000 C 
ENDROOT
BRANCH   1   4
ATOM      2  C   UNL     1       1.799   2.473  21.612  0.00  0.00    +0.000 C 
ATOM      3  N   UNL     1       2.400   3.131  20.459  0.00  0.00    +0.000 N 
ATOM      4  C   UNL     1       1.674   4.208  19.971  0.00  0.00    +0.000 C 
ATOM      5  O   UNL     1       0.561   4.462  20.449  0.00  0.00    +0.000 OA
BRANCH   3   6
ATOM      6  C   UNL     1       3.785   2.780  20.109  0.00  0.00    +0.000 C 
BRANCH   6   7
ATOM      7  C   UNL     1       4.266   2.996  18.657  0.00  0.00    +0.000 C 
ATOM      8  O   UNL     1       3.949   2.173  17.794  0.00  0.00    +0.000 OA
ATOM      9  N   UNL     1       5.121   4.060  18.433  0.00  0.00    +0.000 N 
ATOM     10  H   UNL     1       5.652   4.382  19.231  0.00  0.00    +0.000 HD
BRANCH   9  11
ATOM     11  C   UNL     1       5.695   4.251  17.148  0.00  0.00    +0.000 A 
ATOM     12  C   UNL     1       7.066   4.498  17.000  0.00  0.00    +0.000 A 
ATOM     13  C   UNL     1       7.607   4.780  15.739  0.00  0.00    +0.000 A 
ATOM     14  C   UNL     1       6.775   4.843  14.628  0.00  0.00    +0.000 A 
ATOM     15  F   UNL     1       7.269   5.168  13.434  0.00  0.00    +0.000 F 
ATOM     16  C   UNL     1       5.409   4.567  14.764  0.00  0.00    +0.000 A 
ATOM     17  C   UNL     1       4.874   4.240  16.015  0.00  0.00    +0.000 A 
ENDBRANCH   9  11
ENDBRANCH   6   7
ENDBRANCH   3   6
ENDBRANCH   1   4
BRANCH   1  18
ATOM     18  O   UNL     1       2.862   6.192  19.330  0.00  0.00    +0.000 OA
BRANCH  18  19
ATOM     19  C   UNL     1       2.703   7.335  18.620  0.00  0.00    +0.000 C 
ATOM     20  O   UNL     1       3.234   7.619  17.562  0.00  0.00    +0.000 OA
BRANCH  19  21
ATOM     21  C   UNL     1       1.815   8.318  19.394  0.00  0.00    +0.000 A 
ATOM     22  C   UNL     1       1.471   7.920  20.778  0.00  0.00    +0.000 A 
ATOM     23  C   UNL     1       0.746   8.782  21.488  0.00  0.00    +0.000 A 
ATOM     24  C   UNL     1       0.281  10.055  20.898  0.00  0.00    +0.000 A 
ATOM     25  O   UNL     1      -0.363  10.832  21.599  0.00  0.00    +0.000 OA
ATOM     26  N   UNL     1       0.624  10.274  19.567  0.00  0.00    +0.000 N 
ATOM     27  N   UNL     1       1.411   9.410  18.817  0.00  0.00    +0.000 NA
BRANCH  26  28
ATOM     28  C   UNL     1       0.061  11.433  18.870  0.00  0.00    +0.000 C 
BRANCH  28  29
ATOM     29  C   UNL     1      -1.348  11.163  18.376  0.00  0.00    +0.000 A 
ATOM     30  C   UNL     1      -2.423  11.935  18.844  0.00  0.00    +0.000 A 
ATOM     31  C   UNL     1      -3.737  11.604  18.505  0.00  0.00    +0.000 A 
ATOM     32  C   UNL     1      -3.990  10.513  17.678  0.00  0.00    +0.000 A 
ATOM     33  C   UNL     1      -2.929   9.769  17.162  0.00  0.00    +0.000 A 
ATOM     34  C   UNL     1      -1.614  10.091  17.510  0.00  0.00    +0.000 A 
ENDBRANCH  28  29
ENDBRANCH  26  28
ENDBRANCH  19  21
ENDBRANCH  18  19
ENDBRANCH   1  18
TORSDOF 9
ENDMDL
MODEL 2
REMARK VINA RESULT:      -8.6      3.395      9.715
REMARK  Name = 
REMARK  10 active torsions:
REMARK  status: ('A' for Active; 'I' for Inactive)
REMARK    1  A    between atoms: C_1  and  N_2
REMARK    2  A    between atoms: N_2  and  C_3
REMARK    3  A    between atoms: C_3  and  C_4
REMARK    4  A    between atoms: N_6  and  C_7
REMARK    5  A    between atoms: C_14  and  C_16
REMARK    6  A    between atoms: C_16  and  O_17
REMARK    7  A    between atoms: O_17  and  C_18
REMARK    8  A    between atoms: C_18  and  C_20
REMARK    9  A    between atoms: N_25  and  C_26
REMARK   10  A    between atoms: C_26  and  C_27
REMARK                            x       y       z     vdW  Elec       q    Type
REMARK                         _______ _______ _______ _____ _____    ______ ____
ROOT
ATOM      1  C   UNL     1       0.438   8.823  20.634  0.00  0.00    +0.000 C 
ENDROOT
BRANCH   1   4
ATOM      2  C   UNL     1       1.198  12.568  20.861  0.00  0.00    +0.000 C 
ATOM      3  N   UNL     1       0.914  11.281  20.239  0.00  0.00    +0.000 N 
ATOM      4  C   UNL     1       0.786  10.229  21.134  0.00  0.00    +0.000 C 
ATOM      5  O   UNL     1       1.020  10.415  22.335  0.00  0.00    +0.000 OA
BRANCH   3   6
ATOM      6  C   UNL     1       0.539  11.270  18.818  0.00  0.00    +0.000 C 
BRANCH   6   7
ATOM      7  C   UNL     1      -0.837  11.837  18.404  0.00  0.00    +0.000 C 
ATOM      8  O   UNL     1      -0.899  12.980  17.943  0.00  0.00    +0.000 OA
ATOM      9  N   UNL     1      -1.944  11.054  18.677  0.00  0.00    +0.000 N 
ATOM     10  H   UNL     1      -1.840  10.378  19.422  0.00  0.00    +0.000 HD
BRANCH   9  11
ATOM     11  C   UNL     1      -3.248  11.558  18.431  0.00  0.00    +0.000 A 
ATOM     12  C   UNL     1      -3.984  12.182  19.447  0.00  0.00    +0.000 A 
ATOM     13  C   UNL     1      -5.305  12.591  19.222  0.00  0.00    +0.000 A 
ATOM     14  C   UNL     1      -5.903  12.351  17.991  0.00  0.00    +0.000 A 
ATOM     15  F   UNL     1      -7.177  12.681  17.784  0.00  0.00    +0.000 F 
ATOM     16  C   UNL     1      -5.164  11.755  16.961  0.00  0.00    +0.000 A 
ATOM     17  C   UNL     1      -3.829  11.388  17.169  0.00  0.00    +0.000 A 
ENDBRANCH   9  11
ENDBRANCH   6   7
ENDBRANCH   3   6
ENDBRANCH   1   4
BRANCH   1  18
ATOM     18  O   UNL     1       1.634   8.027  20.695  0.00  0.00    +0.000 OA
BRANCH  18  19
ATOM     19  C   UNL     1       2.128   7.622  19.500  0.00  0.00    +0.000 C 
ATOM     20  O   UNL     1       2.389   8.323  18.541  0.00  0.00    +0.000 OA
BRANCH  19  21
ATOM     21  C   UNL     1       2.222   6.091  19.461  0.00  0.00    +0.000 A 
ATOM     22  C   UNL     1       1.788   5.389  20.690  0.00  0.00    +0.000 A 
ATOM     23  C   UNL     1       1.810   4.057  20.660  0.00  0.00    +0.000 A 
ATOM     24  C   UNL     1       2.286   3.329  19.465  0.00  0.00    +0.000 A 
ATOM     25  O   UNL     1       2.263   2.101  19.473  0.00  0.00    +0.000 OA
ATOM     26  N   UNL     1       2.723   4.115  18.403  0.00  0.00    +0.000 N 
ATOM     27  N   UNL     1       2.674   5.502  18.394  0.00  0.00    +0.000 NA
BRANCH  26  28
ATOM     28  C   UNL     1       3.358   3.465  17.253  0.00  0.00    +0.000 C 
BRANCH  28  29
ATOM     29  C   UNL     1       4.751   4.008  16.999  0.00  0.00    +0.000 A 
ATOM     30  C   UNL     1       5.666   4.138  18.056  0.00  0.00    +0.000 A 
ATOM     31  C   UNL     1       6.898   4.766  17.857  0.00  0.00    +0.000 A 
ATOM     32  C   UNL     1       7.239   5.250  16.597  0.00  0.00    +0.000 A 
ATOM     33  C   UNL     1       6.363   5.081  15.526  0.00  0.00    +0.000 A 
ATOM     34  C   UNL     1       5.125   4.464  15.725  0.00  0.00    +0.000 A 
ENDBRANCH  28  29
ENDBRANCH  26  28
ENDBRANCH  19  21
ENDBRANCH  18  19
ENDBRANCH   1  18
TORSDOF 9
ENDMDL
MODEL 3
REMARK VINA RESULT:      -8.6      1.848      2.116
REMARK  Name = 
REMARK  10 active torsions:
REMARK  status: ('A' for Active; 'I' for Inactive)
REMARK    1  A    between atoms: C_1  and  N_2
REMARK    2  A    between atoms: N_2  and  C_3
REMARK    3  A    between atoms: C_3  and  C_4
REMARK    4  A    between atoms: N_6  and  C_7
REMARK    5  A    between atoms: C_14  and  C_16
REMARK    6  A    between atoms: C_16  and  O_17
REMARK    7  A    between atoms: O_17  and  C_18
REMARK    8  A    between atoms: C_18  and  C_20
REMARK    9  A    between atoms: N_25  and  C_26
REMARK   10  A    between atoms: C_26  and  C_27
REMARK                            x       y       z     vdW  Elec       q    Type
REMARK                         _______ _______ _______ _____ _____    ______ ____
ROOT
ATOM      1  C   UNL     1       2.135   5.313  18.230  0.00  0.00    +0.000 C 
ENDROOT
BRANCH   1   4
ATOM      2  C   UNL     1       2.115   1.660  19.377  0.00  0.00    +0.000 C 
ATOM      3  N   UNL     1       2.524   2.839  18.625  0.00  0.00    +0.000 N 
ATOM      4  C   UNL     1       1.789   3.981  18.907  0.00  0.00    +0.000 C 
ATOM      5  O   UNL     1       0.808   3.907  19.657  0.00  0.00    +0.000 OA
BRANCH   3   6
ATOM      6  C   UNL     1       3.790   2.776  17.879  0.00  0.00    +0.000 C 
BRANCH   6   7
ATOM      7  C   UNL     1       4.941   3.724  18.280  0.00  0.00    +0.000 C 
ATOM      8  O   UNL     1       5.331   3.730  19.451  0.00  0.00    +0.000 OA
ATOM      9  N   UNL     1       5.400   4.596  17.310  0.00  0.00    +0.000 N 
ATOM     10  H   UNL     1       4.751   4.819  16.566  0.00  0.00    +0.000 HD
BRANCH   9  11
ATOM     11  C   UNL     1       6.375   5.575  17.638  0.00  0.00    +0.000 A 
ATOM     12  C   UNL     1       7.337   5.333  18.629  0.00  0.00    +0.000 A 
ATOM     13  C   UNL     1       8.233   6.338  19.012  0.00  0.00    +0.000 A 
ATOM     14  C   UNL     1       8.153   7.596  18.428  0.00  0.00    +0.000 A 
ATOM     15  F   UNL     1       8.961   8.577  18.828  0.00  0.00    +0.000 F 
ATOM     16  C   UNL     1       7.214   7.836  17.417  0.00  0.00    +0.000 A 
ATOM     17  C   UNL     1       6.348   6.820  16.999  0.00  0.00    +0.000 A 
ENDBRANCH   9  11
ENDBRANCH   6   7
ENDBRANCH   3   6
ENDBRANCH   1   4
BRANCH   1  18
ATOM     18  O   UNL     1       2.222   6.315  19.257  0.00  0.00    +0.000 OA
BRANCH  18  19
ATOM     19  C   UNL     1       2.388   7.587  18.819  0.00  0.00    +0.000 C 
ATOM     20  O   UNL     1       3.164   7.970  17.962  0.00  0.00    +0.000 OA
BRANCH  19  21
ATOM     21  C   UNL     1       1.518   8.546  19.642  0.00  0.00    +0.000 A 
ATOM     22  C   UNL     1       1.221   8.116  21.027  0.00  0.00    +0.000 A 
ATOM     23  C   UNL     1       0.512   8.958  21.778  0.00  0.00    +0.000 A 
ATOM     24  C   UNL     1       0.019  10.238  21.229  0.00  0.00    +0.000 A 
ATOM     25  O   UNL     1      -0.607  10.996  21.967  0.00  0.00    +0.000 OA
ATOM     26  N   UNL     1       0.320  10.489  19.893  0.00  0.00    +0.000 N 
ATOM     27  N   UNL     1       1.088   9.647  19.101  0.00  0.00    +0.000 NA
BRANCH  26  28
ATOM     28  C   UNL     1      -0.273  11.658  19.239  0.00  0.00    +0.000 C 
BRANCH  28  29
ATOM     29  C   UNL     1      -1.635  11.344  18.651  0.00  0.00    +0.000 A 
ATOM     30  C   UNL     1      -2.770  12.059  19.066  0.00  0.00    +0.000 A 
ATOM     31  C   UNL     1      -4.045  11.683  18.637  0.00  0.00    +0.000 A 
ATOM     32  C   UNL     1      -4.198  10.604  17.770  0.00  0.00    +0.000 A 
ATOM     33  C   UNL     1      -3.077   9.917  17.307  0.00  0.00    +0.000 A 
ATOM     34  C   UNL     1      -1.802  10.284  17.746  0.00  0.00    +0.000 A 
ENDBRANCH  28  29
ENDBRANCH  26  28
ENDBRANCH  19  21
ENDBRANCH  18  19
ENDBRANCH   1  18
TORSDOF 9
ENDMDL
MODEL 4
REMARK VINA RESULT:      -8.4      1.900      3.146
REMARK  Name = 
REMARK  10 active torsions:
REMARK  status: ('A' for Active; 'I' for Inactive)
REMARK    1  A    between atoms: C_1  and  N_2
REMARK    2  A    between atoms: N_2  and  C_3
REMARK    3  A    between atoms: C_3  and  C_4
REMARK    4  A    between atoms: N_6  and  C_7
REMARK    5  A    between atoms: C_14  and  C_16
REMARK    6  A    between atoms: C_16  and  O_17
REMARK    7  A    between atoms: O_17  and  C_18
REMARK    8  A    between atoms: C_18  and  C_20
REMARK    9  A    between atoms: N_25  and  C_26
REMARK   10  A    between atoms: C_26  and  C_27
REMARK                            x       y       z     vdW  Elec       q    Type
REMARK                         _______ _______ _______ _____ _____    ______ ____
ROOT
ATOM      1  C   UNL     1       2.335   5.015  20.712  0.00  0.00    +0.000 C 
ENDROOT
BRANCH   1   4
ATOM      2  C   UNL     1       2.338   2.466  17.855  0.00  0.00    +0.000 C 
ATOM      3  N   UNL     1       2.819   3.553  18.698  0.00  0.00    +0.000 N 
ATOM      4  C   UNL     1       1.946   3.920  19.713  0.00  0.00    +0.000 C 
ATOM      5  O   UNL     1       0.822   3.406  19.768  0.00  0.00    +0.000 OA
BRANCH   3   6
ATOM      6  C   UNL     1       4.228   3.953  18.571  0.00  0.00    +0.000 C 
BRANCH   6   7
ATOM      7  C   UNL     1       4.738   4.466  17.206  0.00  0.00    +0.000 C 
ATOM      8  O   UNL     1       4.281   5.521  16.755  0.00  0.00    +0.000 OA
ATOM      9  N   UNL     1       5.613   3.647  16.517  0.00  0.00    +0.000 N 
ATOM     10  H   UNL     1       5.574   2.662  16.742  0.00  0.00    +0.000 HD
BRANCH   9  11
ATOM     11  C   UNL     1       6.033   3.999  15.206  0.00  0.00    +0.000 A 
ATOM     12  C   UNL     1       5.396   3.468  14.077  0.00  0.00    +0.000 A 
ATOM     13  C   UNL     1       5.877   3.746  12.791  0.00  0.00    +0.000 A 
ATOM     14  C   UNL     1       7.011   4.532  12.632  0.00  0.00    +0.000 A 
ATOM     15  F   UNL     1       7.513   4.754  11.417  0.00  0.00    +0.000 F 
ATOM     16  C   UNL     1       7.635   5.090  13.754  0.00  0.00    +0.000 A 
ATOM     17  C   UNL     1       7.129   4.852  15.037  0.00  0.00    +0.000 A 
ENDBRANCH   9  11
ENDBRANCH   6   7
ENDBRANCH   3   6
ENDBRANCH   1   4
BRANCH   1  18
ATOM     18  O   UNL     1       1.432   6.119  20.526  0.00  0.00    +0.000 OA
BRANCH  18  19
ATOM     19  C   UNL     1       1.941   7.183  19.858  0.00  0.00    +0.000 C 
ATOM     20  O   UNL     1       2.815   7.164  19.011  0.00  0.00    +0.000 OA
BRANCH  19  21
ATOM     21  C   UNL     1       1.333   8.484  20.398  0.00  0.00    +0.000 A 
ATOM     22  C   UNL     1       1.232   8.583  21.871  0.00  0.00    +0.000 A 
ATOM     23  C   UNL     1       0.757   9.726  22.365  0.00  0.00    +0.000 A 
ATOM     24  C   UNL     1       0.318  10.818  21.471  0.00  0.00    +0.000 A 
ATOM     25  O   UNL     1      -0.089  11.864  21.971  0.00  0.00    +0.000 OA
ATOM     26  N   UNL     1       0.411  10.567  20.105  0.00  0.00    +0.000 N 
ATOM     27  N   UNL     1       0.938   9.401  19.566  0.00  0.00    +0.000 NA
BRANCH  26  28
ATOM     28  C   UNL     1      -0.157  11.536  19.164  0.00  0.00    +0.000 C 
BRANCH  28  29
ATOM     29  C   UNL     1       0.818  12.656  18.854  0.00  0.00    +0.000 A 
ATOM     30  C   UNL     1       2.147  12.365  18.508  0.00  0.00    +0.000 A 
ATOM     31  C   UNL     1       3.084  13.390  18.359  0.00  0.00    +0.000 A 
ATOM     32  C   UNL     1       2.700  14.717  18.531  0.00  0.00    +0.000 A 
ATOM     33  C   UNL     1       1.371  15.025  18.822  0.00  0.00    +0.000 A 
ATOM     34  C   UNL     1       0.435  14.000  18.984  0.00  0.00    +0.000 A 
ENDBRANCH  28  29
ENDBRANCH  26  28
ENDBRANCH  19  21
ENDBRANCH  18  19
ENDBRANCH   1  18
TORSDOF 9
ENDMDL
MODEL 5
REMARK VINA RESULT:      -8.3      2.741      5.026
REMARK  Name = 
REMARK  10 active torsions:
REMARK  status: ('A' for Active; 'I' for Inactive)
REMARK    1  A    between atoms: C_1  and  N_2
REMARK    2  A    between atoms: N_2  and  C_3
REMARK    3  A    between atoms: C_3  and  C_4
REMARK    4  A    between atoms: N_6  and  C_7
REMARK    5  A    between atoms: C_14  and  C_16
REMARK    6  A    between atoms: C_16  and  O_17
REMARK    7  A    between atoms: O_17  and  C_18
REMARK    8  A    between atoms: C_18  and  C_20
REMARK    9  A    between atoms: N_25  and  C_26
REMARK   10  A    between atoms: C_26  and  C_27
REMARK                            x       y       z     vdW  Elec       q    Type
REMARK                         _______ _______ _______ _____ _____    ______ ____
ROOT
ATOM      1  C   UNL     1       5.036   7.098  17.469  0.00  0.00    +0.000 C 
ENDROOT
BRANCH   1   4
ATOM      2  C   UNL     1       6.252   4.607  14.827  0.00  0.00    +0.000 C 
ATOM      3  N   UNL     1       6.069   5.197  16.147  0.00  0.00    +0.000 N 
ATOM      4  C   UNL     1       5.353   6.385  16.149  0.00  0.00    +0.000 C 
ATOM      5  O   UNL     1       5.027   6.905  15.075  0.00  0.00    +0.000 OA
BRANCH   3   6
ATOM      6  C   UNL     1       6.407   4.378  17.320  0.00  0.00    +0.000 C 
BRANCH   6   7
ATOM      7  C   UNL     1       5.348   4.187  18.428  0.00  0.00    +0.000 C 
ATOM      8  O   UNL     1       5.488   4.785  19.499  0.00  0.00    +0.000 OA
ATOM      9  N   UNL     1       4.348   3.263  18.186  0.00  0.00    +0.000 N 
ATOM     10  H   UNL     1       4.563   2.538  17.514  0.00  0.00    +0.000 HD
BRANCH   9  11
ATOM     11  C   UNL     1       3.407   2.951  19.203  0.00  0.00    +0.000 A 
ATOM     12  C   UNL     1       2.033   3.122  18.992  0.00  0.00    +0.000 A 
ATOM     13  C   UNL     1       1.120   2.902  20.032  0.00  0.00    +0.000 A 
ATOM     14  C   UNL     1       1.581   2.538  21.291  0.00  0.00    +0.000 A 
ATOM     15  F   UNL     1       0.727   2.385  22.303  0.00  0.00    +0.000 F 
ATOM     16  C   UNL     1       2.951   2.336  21.501  0.00  0.00    +0.000 A 
ATOM     17  C   UNL     1       3.860   2.510  20.451  0.00  0.00    +0.000 A 
ENDBRANCH   9  11
ENDBRANCH   6   7
ENDBRANCH   3   6
ENDBRANCH   1   4
BRANCH   1  18
ATOM     18  O   UNL     1       3.733   7.691  17.345  0.00  0.00    +0.000 OA
BRANCH  18  19
ATOM     19  C   UNL     1       2.732   7.040  17.986  0.00  0.00    +0.000 C 
ATOM     20  O   UNL     1       2.387   5.885  17.822  0.00  0.00    +0.000 OA
BRANCH  19  21
ATOM     21  C   UNL     1       1.981   8.008  18.911  0.00  0.00    +0.000 A 
ATOM     22  C   UNL     1       1.882   7.594  20.329  0.00  0.00    +0.000 A 
ATOM     23  C   UNL     1       1.282   8.444  21.162  0.00  0.00    +0.000 A 
ATOM     24  C   UNL     1       0.712   9.717  20.672  0.00  0.00    +0.000 A 
ATOM     25  O   UNL     1       0.192  10.481  21.481  0.00  0.00    +0.000 OA
ATOM     26  N   UNL     1       0.822   9.951  19.305  0.00  0.00    +0.000 N 
ATOM     27  N   UNL     1       1.476   9.101  18.423  0.00  0.00    +0.000 NA
BRANCH  26  28
ATOM     28  C   UNL     1       0.138  11.110  18.726  0.00  0.00    +0.000 C 
BRANCH  28  29
ATOM     29  C   UNL     1       0.974  12.371  18.837  0.00  0.00    +0.000 A 
ATOM     30  C   UNL     1       0.427  13.539  19.390  0.00  0.00    +0.000 A 
ATOM     31  C   UNL     1       1.141  14.739  19.367  0.00  0.00    +0.000 A 
ATOM     32  C   UNL     1       2.417  14.781  18.812  0.00  0.00    +0.000 A 
ATOM     33  C   UNL     1       2.996  13.617  18.308  0.00  0.00    +0.000 A 
ATOM     34  C   UNL     1       2.278  12.418  18.318  0.00  0.00    +0.000 A 
ENDBRANCH  28  29
ENDBRANCH  26  28
ENDBRANCH  19  21
ENDBRANCH  18  19
ENDBRANCH   1  18
TORSDOF 9
ENDMDL
MODEL 6
REMARK VINA RESULT:      -8.3      4.444     10.432
REMARK  Name = 
REMARK  10 active torsions:
REMARK  status: ('A' for Active; 'I' for Inactive)
REMARK    1  A    between atoms: C_1  and  N_2
REMARK    2  A    between atoms: N_2  and  C_3
REMARK    3  A    between atoms: C_3  and  C_4
REMARK    4  A    between atoms: N_6  and  C_7
REMARK    5  A    between atoms: C_14  and  C_16
REMARK    6  A    between atoms: C_16  and  O_17
REMARK    7  A    between atoms: O_17  and  C_18
REMARK    8  A    between atoms: C_18  and  C_20
REMARK    9  A    between atoms: N_25  and  C_26
REMARK   10  A    between atoms: C_26  and  C_27
REMARK                            x       y       z     vdW  Elec       q    Type
REMARK                         _______ _______ _______ _____ _____    ______ ____
ROOT
ATOM      1  C   UNL     1       1.227   9.093  18.237  0.00  0.00    +0.000 C 
ENDROOT
BRANCH   1   4
ATOM      2  C   UNL     1       1.359  12.499  19.980  0.00  0.00    +0.000 C 
ATOM      3  N   UNL     1       0.884  11.157  19.668  0.00  0.00    +0.000 N 
ATOM      4  C   UNL     1       1.578  10.528  18.644  0.00  0.00    +0.000 C 
ATOM      5  O   UNL     1       2.439  11.155  18.014  0.00  0.00    +0.000 OA
BRANCH   3   6
ATOM      6  C   UNL     1      -0.057  10.524  20.603  0.00  0.00    +0.000 C 
BRANCH   6   7
ATOM      7  C   UNL     1      -0.490  11.300  21.867  0.00  0.00    +0.000 C 
ATOM      8  O   UNL     1      -0.180  10.856  22.977  0.00  0.00    +0.000 OA
ATOM      9  N   UNL     1      -1.298  12.406  21.677  0.00  0.00    +0.000 N 
ATOM     10  H   UNL     1      -1.839  12.422  20.822  0.00  0.00    +0.000 HD
BRANCH   9  11
ATOM     11  C   UNL     1      -1.829  13.099  22.797  0.00  0.00    +0.000 A 
ATOM     12  C   UNL     1      -3.108  12.805  23.287  0.00  0.00    +0.000 A 
ATOM     13  C   UNL     1      -3.661  13.558  24.331  0.00  0.00    +0.000 A 
ATOM     14  C   UNL     1      -2.949  14.623  24.868  0.00  0.00    +0.000 A 
ATOM     15  F   UNL     1      -3.489  15.384  25.820  0.00  0.00    +0.000 F 
ATOM     16  C   UNL     1      -1.658  14.904  24.403  0.00  0.00    +0.000 A 
ATOM     17  C   UNL     1      -1.085  14.124  23.392  0.00  0.00    +0.000 A 
ENDBRANCH   9  11
ENDBRANCH   6   7
ENDBRANCH   3   6
ENDBRANCH   1   4
BRANCH   1  18
ATOM     18  O   UNL     1       2.335   8.251  18.600  0.00  0.00    +0.000 OA
BRANCH  18  19
ATOM     19  C   UNL     1       2.075   7.321  19.550  0.00  0.00    +0.000 C 
ATOM     20  O   UNL     1       1.610   7.517  20.658  0.00  0.00    +0.000 OA
BRANCH  19  21
ATOM     21  C   UNL     1       2.555   5.941  19.082  0.00  0.00    +0.000 A 
ATOM     22  C   UNL     1       1.865   4.781  19.691  0.00  0.00    +0.000 A 
ATOM     23  C   UNL     1       2.228   3.573  19.261  0.00  0.00    +0.000 A 
ATOM     24  C   UNL     1       3.297   3.412  18.253  0.00  0.00    +0.000 A 
ATOM     25  O   UNL     1       3.579   2.281  17.866  0.00  0.00    +0.000 OA
ATOM     26  N   UNL     1       3.903   4.585  17.810  0.00  0.00    +0.000 N 
ATOM     27  N   UNL     1       3.518   5.856  18.213  0.00  0.00    +0.000 NA
BRANCH  26  28
ATOM     28  C   UNL     1       5.076   4.492  16.938  0.00  0.00    +0.000 C 
BRANCH  28  29
ATOM     29  C   UNL     1       6.225   5.341  17.445  0.00  0.00    +0.000 A 
ATOM     30  C   UNL     1       6.913   4.980  18.614  0.00  0.00    +0.000 A 
ATOM     31  C   UNL     1       7.875   5.829  19.166  0.00  0.00    +0.000 A 
ATOM     32  C   UNL     1       8.177   7.037  18.543  0.00  0.00    +0.000 A 
ATOM     33  C   UNL     1       7.541   7.385  17.352  0.00  0.00    +0.000 A 
ATOM     34  C   UNL     1       6.569   6.543  16.806  0.00  0.00    +0.000 A 
ENDBRANCH  28  29
ENDBRANCH  26  28
ENDBRANCH  19  21
ENDBRANCH  18  19
ENDBRANCH   1  18
TORSDOF 9
ENDMDL
MODEL 7
REMARK VINA RESULT:      -8.3      3.666     10.009
REMARK  Name = 
REMARK  10 active torsions:
REMARK  status: ('A' for Active; 'I' for Inactive)
REMARK    1  A    between atoms: C_1  and  N_2
REMARK    2  A    between atoms: N_2  and  C_3
REMARK    3  A    between atoms: C_3  and  C_4
REMARK    4  A    between atoms: N_6  and  C_7
REMARK    5  A    between atoms: C_14  and  C_16
REMARK    6  A    between atoms: C_16  and  O_17
REMARK    7  A    between atoms: O_17  and  C_18
REMARK    8  A    between atoms: C_18  and  C_20
REMARK    9  A    between atoms: N_25  and  C_26
REMARK   10  A    between atoms: C_26  and  C_27
REMARK                            x       y       z     vdW  Elec       q    Type
REMARK                         _______ _______ _______ _____ _____    ______ ____
ROOT
ATOM      1  C   UNL     1       0.706   9.929  19.723  0.00  0.00    +0.000 C 
ENDROOT
BRANCH   1   4
ATOM      2  C   UNL     1       1.533  13.429  18.409  0.00  0.00    +0.000 C 
ATOM      3  N   UNL     1       0.871  12.406  19.208  0.00  0.00    +0.000 N 
ATOM      4  C   UNL     1       1.277  11.109  18.928  0.00  0.00    +0.000 C 
ATOM      5  O   UNL     1       2.052  10.901  17.987  0.00  0.00    +0.000 OA
BRANCH   3   6
ATOM      6  C   UNL     1       0.078  12.843  20.367  0.00  0.00    +0.000 C 
BRANCH   6   7
ATOM      7  C   UNL     1      -1.427  12.496  20.415  0.00  0.00    +0.000 C 
ATOM      8  O   UNL     1      -1.896  12.015  21.450  0.00  0.00    +0.000 OA
ATOM      9  N   UNL     1      -2.144  12.653  19.243  0.00  0.00    +0.000 N 
ATOM     10  H   UNL     1      -1.609  12.619  18.385  0.00  0.00    +0.000 HD
BRANCH   9  11
ATOM     11  C   UNL     1      -3.502  12.245  19.181  0.00  0.00    +0.000 A 
ATOM     12  C   UNL     1      -3.934  11.316  18.225  0.00  0.00    +0.000 A 
ATOM     13  C   UNL     1      -5.292  10.991  18.109  0.00  0.00    +0.000 A 
ATOM     14  C   UNL     1      -6.224  11.614  18.930  0.00  0.00    +0.000 A 
ATOM     15  F   UNL     1      -7.524  11.358  18.789  0.00  0.00    +0.000 F 
ATOM     16  C   UNL     1      -5.796  12.521  19.908  0.00  0.00    +0.000 A 
ATOM     17  C   UNL     1      -4.435  12.812  20.056  0.00  0.00    +0.000 A 
ENDBRANCH   9  11
ENDBRANCH   6   7
ENDBRANCH   3   6
ENDBRANCH   1   4
BRANCH   1  18
ATOM     18  O   UNL     1       1.558   8.794  19.492  0.00  0.00    +0.000 OA
BRANCH  18  19
ATOM     19  C   UNL     1       1.601   7.883  20.495  0.00  0.00    +0.000 C 
ATOM     20  O   UNL     1       1.374   8.083  21.674  0.00  0.00    +0.000 OA
BRANCH  19  21
ATOM     21  C   UNL     1       2.094   6.533  19.960  0.00  0.00    +0.000 A 
ATOM     22  C   UNL     1       1.605   5.337  20.685  0.00  0.00    +0.000 A 
ATOM     23  C   UNL     1       1.977   4.151  20.206  0.00  0.00    +0.000 A 
ATOM     24  C   UNL     1       2.867   4.049  19.030  0.00  0.00    +0.000 A 
ATOM     25  O   UNL     1       3.162   2.934  18.607  0.00  0.00    +0.000 OA
ATOM     26  N   UNL     1       3.301   5.253  18.484  0.00  0.00    +0.000 N 
ATOM     27  N   UNL     1       2.898   6.501  18.939  0.00  0.00    +0.000 NA
BRANCH  26  28
ATOM     28  C   UNL     1       4.312   5.228  17.423  0.00  0.00    +0.000 C 
BRANCH  28  29
ATOM     29  C   UNL     1       5.618   5.853  17.874  0.00  0.00    +0.000 A 
ATOM     30  C   UNL     1       6.168   6.934  17.167  0.00  0.00    +0.000 A 
ATOM     31  C   UNL     1       7.436   7.423  17.489  0.00  0.00    +0.000 A 
ATOM     32  C   UNL     1       8.158   6.854  18.535  0.00  0.00    +0.000 A 
ATOM     33  C   UNL     1       7.602   5.816  19.281  0.00  0.00    +0.000 A 
ATOM     34  C   UNL     1       6.339   5.316  18.952  0.00  0.00    +0.000 A 
ENDBRANCH  28  29
ENDBRANCH  26  28
ENDBRANCH  19  21
ENDBRANCH  18  19
ENDBRANCH   1  18
TORSDOF 9
ENDMDL
MODEL 8
REMARK VINA RESULT:      -8.3      4.330     10.312
REMARK  Name = 
REMARK  10 active torsions:
REMARK  status: ('A' for Active; 'I' for Inactive)
REMARK    1  A    between atoms: C_1  and  N_2
REMARK    2  A    between atoms: N_2  and  C_3
REMARK    3  A    between atoms: C_3  and  C_4
REMARK    4  A    between atoms: N_6  and  C_7
REMARK    5  A    between atoms: C_14  and  C_16
REMARK    6  A    between atoms: C_16  and  O_17
REMARK    7  A    between atoms: O_17  and  C_18
REMARK    8  A    between atoms: C_18  and  C_20
REMARK    9  A    between atoms: N_25  and  C_26
REMARK   10  A    between atoms: C_26  and  C_27
REMARK                            x       y       z     vdW  Elec       q    Type
REMARK                         _______ _______ _______ _____ _____    ______ ____
ROOT
ATOM      1  C   UNL     1       1.330   9.553  17.962  0.00  0.00    +0.000 C 
ENDROOT
BRANCH   1   4
ATOM      2  C   UNL     1       1.818  12.781  19.962  0.00  0.00    +0.000 C 
ATOM      3  N   UNL     1       1.236  11.500  19.583  0.00  0.00    +0.000 N 
ATOM      4  C   UNL     1       1.803  10.925  18.455  0.00  0.00    +0.000 C 
ATOM      5  O   UNL     1       2.648  11.555  17.807  0.00  0.00    +0.000 OA
BRANCH   3   6
ATOM      6  C   UNL     1       0.336  10.841  20.541  0.00  0.00    +0.000 C 
BRANCH   6   7
ATOM      7  C   UNL     1      -0.938  11.584  21.000  0.00  0.00    +0.000 C 
ATOM      8  O   UNL     1      -1.832  11.804  20.177  0.00  0.00    +0.000 OA
ATOM      9  N   UNL     1      -0.954  12.054  22.301  0.00  0.00    +0.000 N 
ATOM     10  H   UNL     1      -0.052  12.215  22.728  0.00  0.00    +0.000 HD
BRANCH   9  11
ATOM     11  C   UNL     1      -2.042  12.845  22.757  0.00  0.00    +0.000 A 
ATOM     12  C   UNL     1      -2.056  14.233  22.563  0.00  0.00    +0.000 A 
ATOM     13  C   UNL     1      -3.086  15.017  23.099  0.00  0.00    +0.000 A 
ATOM     14  C   UNL     1      -4.088  14.420  23.853  0.00  0.00    +0.000 A 
ATOM     15  F   UNL     1      -5.039  15.162  24.418  0.00  0.00    +0.000 F 
ATOM     16  C   UNL     1      -4.096  13.030  24.026  0.00  0.00    +0.000 A 
ATOM     17  C   UNL     1      -3.094  12.240  23.452  0.00  0.00    +0.000 A 
ENDBRANCH   9  11
ENDBRANCH   6   7
ENDBRANCH   3   6
ENDBRANCH   1   4
BRANCH   1  18
ATOM     18  O   UNL     1       2.497   8.743  17.735  0.00  0.00    +0.000 OA
BRANCH  18  19
ATOM     19  C   UNL     1       2.622   7.661  18.540  0.00  0.00    +0.000 C 
ATOM     20  O   UNL     1       2.220   7.550  19.684  0.00  0.00    +0.000 OA
BRANCH  19  21
ATOM     21  C   UNL     1       3.461   6.580  17.846  0.00  0.00    +0.000 A 
ATOM     22  C   UNL     1       4.385   7.062  16.793  0.00  0.00    +0.000 A 
ATOM     23  C   UNL     1       5.163   6.149  16.213  0.00  0.00    +0.000 A 
ATOM     24  C   UNL     1       5.070   4.722  16.585  0.00  0.00    +0.000 A 
ATOM     25  O   UNL     1       5.826   3.919  16.043  0.00  0.00    +0.000 OA
ATOM     26  N   UNL     1       4.116   4.399  17.546  0.00  0.00    +0.000 N 
ATOM     27  N   UNL     1       3.321   5.335  18.192  0.00  0.00    +0.000 NA
BRANCH  26  28
ATOM     28  C   UNL     1       3.856   2.989  17.843  0.00  0.00    +0.000 C 
BRANCH  28  29
ATOM     29  C   UNL     1       2.952   2.824  19.050  0.00  0.00    +0.000 A 
ATOM     30  C   UNL     1       1.560   2.947  18.916  0.00  0.00    +0.000 A 
ATOM     31  C   UNL     1       0.734   2.938  20.042  0.00  0.00    +0.000 A 
ATOM     32  C   UNL     1       1.286   2.783  21.311  0.00  0.00    +0.000 A 
ATOM     33  C   UNL     1       2.661   2.606  21.455  0.00  0.00    +0.000 A 
ATOM     34  C   UNL     1       3.491   2.628  20.331  0.00  0.00    +0.000 A 
ENDBRANCH  28  29
ENDBRANCH  26  28
ENDBRANCH  19  21
ENDBRANCH  18  19
ENDBRANCH   1  18
TORSDOF 9
ENDMDL
MODEL 9
REMARK VINA RESULT:      -8.3      4.274     10.173
REMARK  Name = 
REMARK  10 active torsions:
REMARK  status: ('A' for Active; 'I' for Inactive)
REMARK    1  A    between atoms: C_1  and  N_2
REMARK    2  A    between atoms: N_2  and  C_3
REMARK    3  A    between atoms: C_3  and  C_4
REMARK    4  A    between atoms: N_6  and  C_7
REMARK    5  A    between atoms: C_14  and  C_16
REMARK    6  A    between atoms: C_16  and  O_17
REMARK    7  A    between atoms: O_17  and  C_18
REMARK    8  A    between atoms: C_18  and  C_20
REMARK    9  A    between atoms: N_25  and  C_26
REMARK   10  A    between atoms: C_26  and  C_27
REMARK                            x       y       z     vdW  Elec       q    Type
REMARK                         _______ _______ _______ _____ _____    ______ ____
ROOT
ATOM      1  C   UNL     1       1.484   8.403  18.422  0.00  0.00    +0.000 C 
ENDROOT
BRANCH   1   4
ATOM      2  C   UNL     1       0.845  12.122  19.070  0.00  0.00    +0.000 C 
ATOM      3  N   UNL     1       0.638  10.681  19.144  0.00  0.00    +0.000 N 
ATOM      4  C   UNL     1       1.543   9.934  18.404  0.00  0.00    +0.000 C 
ATOM      5  O   UNL     1       2.358  10.511  17.673  0.00  0.00    +0.000 OA
BRANCH   3   6
ATOM      6  C   UNL     1      -0.291  10.170  20.162  0.00  0.00    +0.000 C 
BRANCH   6   7
ATOM      7  C   UNL     1      -0.567  11.024  21.419  0.00  0.00    +0.000 C 
ATOM      8  O   UNL     1       0.069  10.792  22.451  0.00  0.00    +0.000 OA
ATOM      9  N   UNL     1      -1.597  11.943  21.338  0.00  0.00    +0.000 N 
ATOM     10  H   UNL     1      -2.311  11.753  20.647  0.00  0.00    +0.000 HD
BRANCH   9  11
ATOM     11  C   UNL     1      -1.983  12.681  22.488  0.00  0.00    +0.000 A 
ATOM     12  C   UNL     1      -3.189  12.411  23.148  0.00  0.00    +0.000 A 
ATOM     13  C   UNL     1      -3.607  13.206  24.224  0.00  0.00    +0.000 A 
ATOM     14  C   UNL     1      -2.834  14.288  24.624  0.00  0.00    +0.000 A 
ATOM     15  F   UNL     1      -3.250  15.087  25.606  0.00  0.00    +0.000 F 
ATOM     16  C   UNL     1      -1.613  14.546  23.988  0.00  0.00    +0.000 A 
ATOM     17  C   UNL     1      -1.172  13.726  22.944  0.00  0.00    +0.000 A 
ENDBRANCH   9  11
ENDBRANCH   6   7
ENDBRANCH   3   6
ENDBRANCH   1   4
BRANCH   1  18
ATOM     18  O   UNL     1       2.368   7.944  19.459  0.00  0.00    +0.000 OA
BRANCH  18  19
ATOM     19  C   UNL     1       1.812   7.115  20.376  0.00  0.00    +0.000 C 
ATOM     20  O   UNL     1       1.167   7.436  21.357  0.00  0.00    +0.000 OA
BRANCH  19  21
ATOM     21  C   UNL     1       2.197   5.660  20.074  0.00  0.00    +0.000 A 
ATOM     22  C   UNL     1       1.113   4.663  20.231  0.00  0.00    +0.000 A 
ATOM     23  C   UNL     1       1.409   3.402  19.922  0.00  0.00    +0.000 A 
ATOM     24  C   UNL     1       2.769   3.023  19.485  0.00  0.00    +0.000 A 
ATOM     25  O   UNL     1       2.989   1.852  19.185  0.00  0.00    +0.000 OA
ATOM     26  N   UNL     1       3.707   4.051  19.441  0.00  0.00    +0.000 N 
ATOM     27  N   UNL     1       3.415   5.379  19.719  0.00  0.00    +0.000 NA
BRANCH  26  28
ATOM     28  C   UNL     1       5.110   3.721  19.175  0.00  0.00    +0.000 C 
BRANCH  28  29
ATOM     29  C   UNL     1       5.860   4.894  18.573  0.00  0.00    +0.000 A 
ATOM     30  C   UNL     1       5.498   5.396  17.312  0.00  0.00    +0.000 A 
ATOM     31  C   UNL     1       6.270   6.379  16.690  0.00  0.00    +0.000 A 
ATOM     32  C   UNL     1       7.398   6.888  17.329  0.00  0.00    +0.000 A 
ATOM     33  C   UNL     1       7.739   6.438  18.604  0.00  0.00    +0.000 A 
ATOM     34  C   UNL     1       6.975   5.445  19.223  0.00  0.00    +0.000 A 
ENDBRANCH  28  29
ENDBRANCH  26  28
ENDBRANCH  19  21
ENDBRANCH  18  19
ENDBRANCH   1  18
TORSDOF 9
ENDMDL
