MODEL 1
REMARK VINA RESULT:      -7.3      0.000      0.000
REMARK  Name = 
REMARK  4 active torsions:
REMARK  status: ('A' for Active; 'I' for Inactive)
REMARK    1  A    between atoms: C_1  and  C_2
REMARK    2  A    between atoms: C_2  and  C_3
REMARK    3  A    between atoms: C_2  and  N_4
REMARK    4  A    between atoms: C_10  and  C_12
REMARK                            x       y       z     vdW  Elec       q    Type
REMARK                         _______ _______ _______ _____ _____    ______ ____
ROOT
ATOM      1  N   UNL     1       1.961   3.330  19.549  0.00  0.00    +0.000 NA
ATOM      2  C   UNL     1       2.267   1.951  19.154  0.00  0.00    +0.000 C 
ATOM      3  C   UNL     1       3.002   1.829  17.815  0.00  0.00    +0.000 C 
ATOM      4  C   UNL     1       4.231   2.738  17.714  0.00  0.00    +0.000 C 
ATOM      5  C   UNL     1       4.013   4.003  16.878  0.00  0.00    +0.000 C 
ATOM      6  N   UNL     1       3.107   4.996  17.470  0.00  0.00    +0.000 N 
ATOM      7  C   UNL     1       3.678   6.226  17.871  0.00  0.00    +0.000 C 
ATOM      8  O   UNL     1       4.880   6.471  17.764  0.00  0.00    +0.000 OA
ATOM      9  C   UNL     1       1.660   4.676  17.384  0.00  0.00    +0.000 C 
ATOM     10  C   UNL     1       1.013   3.958  18.616  0.00  0.00    +0.000 C 
ENDROOT
BRANCH   7  11
ATOM     11  C   UNL     1       2.829   7.331  18.395  0.00  0.00    +0.000 A 
ATOM     12  C   UNL     1       2.417   8.380  17.556  0.00  0.00    +0.000 A 
ATOM     13  C   UNL     1       1.561   9.377  18.038  0.00  0.00    +0.000 A 
ATOM     14  C   UNL     1       1.064   9.293  19.339  0.00  0.00    +0.000 A 
ATOM     15  C   UNL     1       1.483   8.258  20.168  0.00  0.00    +0.000 A 
ATOM     16  C   UNL     1       2.448   7.363  19.729  0.00  0.00    +0.000 A 
ATOM     17  O   UNL     1       0.968   8.027  21.419  0.00  0.00    +0.000 OA
ATOM     18  C   UNL     1      -0.297   8.690  21.553  0.00  0.00    +0.000 C 
ATOM     19  C   UNL     1      -0.128  10.144  21.146  0.00  0.00    +0.000 C 
ATOM     20  O   UNL     1       0.160  10.246  19.742  0.00  0.00    +0.000 OA
ENDBRANCH   7  11
BRANCH   1  22
ATOM     21  C   UNL     1       1.725   2.231  21.832  0.00  0.00    +0.000 C 
ATOM     22  C   UNL     1       1.600   3.492  20.977  0.00  0.00    +0.000 C 
ATOM     23  C   UNL     1       2.372   4.654  21.623  0.00  0.00    +0.000 C 
ENDBRANCH   1  22
TORSDOF 2
ENDMDL
MODEL 2
REMARK VINA RESULT:      -7.1      2.977      6.324
REMARK  Name = 
REMARK  4 active torsions:
REMARK  status: ('A' for Active; 'I' for Inactive)
REMARK    1  A    between atoms: C_1  and  C_2
REMARK    2  A    between atoms: C_2  and  C_3
REMARK    3  A    between atoms: C_2  and  N_4
REMARK    4  A    between atoms: C_10  and  C_12
REMARK                            x       y       z     vdW  Elec       q    Type
REMARK                         _______ _______ _______ _____ _____    ______ ____
ROOT
ATOM      1  N   UNL     1       2.060   5.852  19.468  0.00  0.00    +0.000 NA
ATOM      2  C   UNL     1       0.890   5.566  20.304  0.00  0.00    +0.000 C 
ATOM      3  C   UNL     1       0.670   4.077  20.590  0.00  0.00    +0.000 C 
ATOM      4  C   UNL     1       1.927   3.367  21.105  0.00  0.00    +0.000 C 
ATOM      5  C   UNL     1       2.648   2.519  20.051  0.00  0.00    +0.000 C 
ATOM      6  N   UNL     1       3.300   3.277  18.977  0.00  0.00    +0.000 N 
ATOM      7  C   UNL     1       4.713   3.239  18.931  0.00  0.00    +0.000 C 
ATOM      8  O   UNL     1       5.391   2.629  19.758  0.00  0.00    +0.000 OA
ATOM      9  C   UNL     1       2.394   3.821  17.934  0.00  0.00    +0.000 C 
ATOM     10  C   UNL     1       1.901   5.297  18.115  0.00  0.00    +0.000 C 
ENDROOT
BRANCH   7  11
ATOM     11  C   UNL     1       5.464   3.897  17.827  0.00  0.00    +0.000 A 
ATOM     12  C   UNL     1       6.603   4.674  18.097  0.00  0.00    +0.000 A 
ATOM     13  C   UNL     1       7.344   5.230  17.047  0.00  0.00    +0.000 A 
ATOM     14  C   UNL     1       6.987   4.957  15.726  0.00  0.00    +0.000 A 
ATOM     15  C   UNL     1       5.853   4.196  15.466  0.00  0.00    +0.000 A 
ATOM     16  C   UNL     1       5.041   3.778  16.511  0.00  0.00    +0.000 A 
ATOM     17  O   UNL     1       5.484   3.781  14.210  0.00  0.00    +0.000 OA
ATOM     18  C   UNL     1       6.609   3.862  13.323  0.00  0.00    +0.000 C 
ATOM     19  C   UNL     1       7.212   5.251  13.430  0.00  0.00    +0.000 C 
ATOM     20  O   UNL     1       7.792   5.453  14.729  0.00  0.00    +0.000 OA
ENDBRANCH   7  11
BRANCH   1  22
ATOM     21  C   UNL     1       2.579   7.951  18.127  0.00  0.00    +0.000 C 
ATOM     22  C   UNL     1       2.498   7.267  19.492  0.00  0.00    +0.000 C 
ATOM     23  C   UNL     1       1.643   8.104  20.459  0.00  0.00    +0.000 C 
ENDBRANCH   1  22
TORSDOF 2
ENDMDL
MODEL 3
REMARK VINA RESULT:      -6.9      1.003      1.780
REMARK  Name = 
REMARK  4 active torsions:
REMARK  status: ('A' for Active; 'I' for Inactive)
REMARK    1  A    between atoms: C_1  and  C_2
REMARK    2  A    between atoms: C_2  and  C_3
REMARK    3  A    between atoms: C_2  and  N_4
REMARK    4  A    between atoms: C_10  and  C_12
REMARK                            x       y       z     vdW  Elec       q    Type
REMARK                         _______ _______ _______ _____ _____    ______ ____
ROOT
ATOM      1  N   UNL     1       2.646   3.169  19.498  0.00  0.00    +0.000 NA
ATOM      2  C   UNL     1       3.123   1.931  18.874  0.00  0.00    +0.000 C 
ATOM      3  C   UNL     1       3.608   2.100  17.430  0.00  0.00    +0.000 C 
ATOM      4  C   UNL     1       4.608   3.248  17.257  0.00  0.00    +0.000 C 
ATOM      5  C   UNL     1       4.007   4.519  16.648  0.00  0.00    +0.000 C 
ATOM      6  N   UNL     1       3.059   5.238  17.508  0.00  0.00    +0.000 N 
ATOM      7  C   UNL     1       3.455   6.513  17.976  0.00  0.00    +0.000 C 
ATOM      8  O   UNL     1       4.551   7.010  17.711  0.00  0.00    +0.000 OA
ATOM      9  C   UNL     1       1.706   4.637  17.613  0.00  0.00    +0.000 C 
ATOM     10  C   UNL     1       1.441   3.679  18.823  0.00  0.00    +0.000 C 
ENDROOT
BRANCH   7  11
ATOM     11  C   UNL     1       2.528   7.360  18.775  0.00  0.00    +0.000 A 
ATOM     12  C   UNL     1       2.217   7.026  20.104  0.00  0.00    +0.000 A 
ATOM     13  C   UNL     1       1.401   7.866  20.872  0.00  0.00    +0.000 A 
ATOM     14  C   UNL     1       0.950   9.072  20.334  0.00  0.00    +0.000 A 
ATOM     15  C   UNL     1       1.253   9.392  19.016  0.00  0.00    +0.000 A 
ATOM     16  C   UNL     1       1.933   8.483  18.219  0.00  0.00    +0.000 A 
ATOM     17  O   UNL     1       0.952  10.599  18.435  0.00  0.00    +0.000 OA
ATOM     18  C   UNL     1       0.700  11.578  19.453  0.00  0.00    +0.000 C 
ATOM     19  C   UNL     1      -0.325  11.016  20.423  0.00  0.00    +0.000 C 
ATOM     20  O   UNL     1       0.223   9.905  21.151  0.00  0.00    +0.000 OA
ENDBRANCH   7  11
BRANCH   1  22
ATOM     21  C   UNL     1       1.114   2.909  21.512  0.00  0.00    +0.000 C 
ATOM     22  C   UNL     1       2.531   3.107  20.973  0.00  0.00    +0.000 C 
ATOM     23  C   UNL     1       3.480   2.052  21.566  0.00  0.00    +0.000 C 
ENDBRANCH   1  22
TORSDOF 2
ENDMDL
MODEL 4
REMARK VINA RESULT:      -6.8      0.959      1.831
REMARK  Name = 
REMARK  4 active torsions:
REMARK  status: ('A' for Active; 'I' for Inactive)
REMARK    1  A    between atoms: C_1  and  C_2
REMARK    2  A    between atoms: C_2  and  C_3
REMARK    3  A    between atoms: C_2  and  N_4
REMARK    4  A    between atoms: C_10  and  C_12
REMARK                            x       y       z     vdW  Elec       q    Type
REMARK                         _______ _______ _______ _____ _____    ______ ____
ROOT
ATOM      1  N   UNL     1       1.994   3.267  19.592  0.00  0.00    +0.000 NA
ATOM      2  C   UNL     1       2.324   1.895  19.192  0.00  0.00    +0.000 C 
ATOM      3  C   UNL     1       3.077   1.791  17.862  0.00  0.00    +0.000 C 
ATOM      4  C   UNL     1       4.294   2.719  17.780  0.00  0.00    +0.000 C 
ATOM      5  C   UNL     1       4.067   3.985  16.949  0.00  0.00    +0.000 C 
ATOM      6  N   UNL     1       3.140   4.961  17.536  0.00  0.00    +0.000 N 
ATOM      7  C   UNL     1       3.688   6.198  17.950  0.00  0.00    +0.000 C 
ATOM      8  O   UNL     1       4.888   6.460  17.859  0.00  0.00    +0.000 OA
ATOM      9  C   UNL     1       1.699   4.621  17.431  0.00  0.00    +0.000 C 
ATOM     10  C   UNL     1       1.048   3.886  18.651  0.00  0.00    +0.000 C 
ENDROOT
BRANCH   7  11
ATOM     11  C   UNL     1       2.817   7.287  18.471  0.00  0.00    +0.000 A 
ATOM     12  C   UNL     1       2.208   7.178  19.732  0.00  0.00    +0.000 A 
ATOM     13  C   UNL     1       1.449   8.238  20.244  0.00  0.00    +0.000 A 
ATOM     14  C   UNL     1       1.353   9.430  19.527  0.00  0.00    +0.000 A 
ATOM     15  C   UNL     1       1.950   9.528  18.275  0.00  0.00    +0.000 A 
ATOM     16  C   UNL     1       2.569   8.422  17.712  0.00  0.00    +0.000 A 
ATOM     17  O   UNL     1       2.006  10.690  17.546  0.00  0.00    +0.000 OA
ATOM     18  C   UNL     1       1.771  11.815  18.405  0.00  0.00    +0.000 C 
ATOM     19  C   UNL     1       0.496  11.567  19.191  0.00  0.00    +0.000 C 
ATOM     20  O   UNL     1       0.669  10.473  20.106  0.00  0.00    +0.000 OA
ENDBRANCH   7  11
BRANCH   1  22
ATOM     21  C   UNL     1       1.695   2.138  21.853  0.00  0.00    +0.000 C 
ATOM     22  C   UNL     1       1.614   3.415  21.016  0.00  0.00    +0.000 C 
ATOM     23  C   UNL     1       2.403   4.549  21.692  0.00  0.00    +0.000 C 
ENDBRANCH   1  22
TORSDOF 2
ENDMDL
MODEL 5
REMARK VINA RESULT:      -6.7      2.535      5.958
REMARK  Name = 
REMARK  4 active torsions:
REMARK  status: ('A' for Active; 'I' for Inactive)
REMARK    1  A    between atoms: C_1  and  C_2
REMARK    2  A    between atoms: C_2  and  C_3
REMARK    3  A    between atoms: C_2  and  N_4
REMARK    4  A    between atoms: C_10  and  C_12
REMARK                            x       y       z     vdW  Elec       q    Type
REMARK                         _______ _______ _______ _____ _____    ______ ____
ROOT
ATOM      1  N   UNL     1       2.863   2.968  19.207  0.00  0.00    +0.000 NA
ATOM      2  C   UNL     1       2.001   2.644  20.348  0.00  0.00    +0.000 C 
ATOM      3  C   UNL     1       1.761   3.814  21.308  0.00  0.00    +0.000 C 
ATOM      4  C   UNL     1       1.312   5.096  20.600  0.00  0.00    +0.000 C 
ATOM      5  C   UNL     1       2.417   6.145  20.435  0.00  0.00    +0.000 C 
ATOM      6  N   UNL     1       3.484   5.787  19.493  0.00  0.00    +0.000 N 
ATOM      7  C   UNL     1       3.576   6.550  18.306  0.00  0.00    +0.000 C 
ATOM      8  O   UNL     1       2.792   7.462  18.037  0.00  0.00    +0.000 OA
ATOM      9  C   UNL     1       4.478   4.803  19.992  0.00  0.00    +0.000 C 
ATOM     10  C   UNL     1       4.229   3.297  19.643  0.00  0.00    +0.000 C 
ENDROOT
BRANCH   7  11
ATOM     11  C   UNL     1       4.679   6.327  17.332  0.00  0.00    +0.000 A 
ATOM     12  C   UNL     1       5.989   6.742  17.624  0.00  0.00    +0.000 A 
ATOM     13  C   UNL     1       7.034   6.465  16.734  0.00  0.00    +0.000 A 
ATOM     14  C   UNL     1       6.783   5.716  15.584  0.00  0.00    +0.000 A 
ATOM     15  C   UNL     1       5.483   5.317  15.296  0.00  0.00    +0.000 A 
ATOM     16  C   UNL     1       4.434   5.727  16.105  0.00  0.00    +0.000 A 
ATOM     17  O   UNL     1       5.154   4.486  14.253  0.00  0.00    +0.000 OA
ATOM     18  C   UNL     1       6.320   3.778  13.810  0.00  0.00    +0.000 C 
ATOM     19  C   UNL     1       7.429   4.783  13.553  0.00  0.00    +0.000 C 
ATOM     20  O   UNL     1       7.852   5.395  14.783  0.00  0.00    +0.000 OA
ENDBRANCH   7  11
BRANCH   1  22
ATOM     21  C   UNL     1       2.715   2.593  16.695  0.00  0.00    +0.000 C 
ATOM     22  C   UNL     1       2.803   1.989  18.096  0.00  0.00    +0.000 C 
ATOM     23  C   UNL     1       3.963   0.982  18.173  0.00  0.00    +0.000 C 
ENDBRANCH   1  22
TORSDOF 2
ENDMDL
MODEL 6
REMARK VINA RESULT:      -6.1      9.750     11.608
REMARK  Name = 
REMARK  4 active torsions:
REMARK  status: ('A' for Active; 'I' for Inactive)
REMARK    1  A    between atoms: C_1  and  C_2
REMARK    2  A    between atoms: C_2  and  C_3
REMARK    3  A    between atoms: C_2  and  N_4
REMARK    4  A    between atoms: C_10  and  C_12
REMARK                            x       y       z     vdW  Elec       q    Type
REMARK                         _______ _______ _______ _____ _____    ______ ____
ROOT
ATOM      1  N   UNL     1      10.566  13.348  18.137  0.00  0.00    +0.000 NA
ATOM      2  C   UNL     1      11.141  14.070  16.998  0.00  0.00    +0.000 C 
ATOM      3  C   UNL     1      11.107  15.595  17.137  0.00  0.00    +0.000 C 
ATOM      4  C   UNL     1      11.670  16.094  18.472  0.00  0.00    +0.000 C 
ATOM      5  C   UNL     1      10.603  16.504  19.492  0.00  0.00    +0.000 C 
ATOM      6  N   UNL     1       9.804  15.401  20.039  0.00  0.00    +0.000 N 
ATOM      7  C   UNL     1       9.973  15.104  21.411  0.00  0.00    +0.000 C 
ATOM      8  O   UNL     1      10.768  15.709  22.132  0.00  0.00    +0.000 OA
ATOM      9  C   UNL     1       8.752  14.864  19.140  0.00  0.00    +0.000 C 
ATOM     10  C   UNL     1       9.125  13.616  18.269  0.00  0.00    +0.000 C 
ENDROOT
BRANCH   7  11
ATOM     11  C   UNL     1       9.142  14.067  22.081  0.00  0.00    +0.000 A 
ATOM     12  C   UNL     1       9.403  12.701  21.885  0.00  0.00    +0.000 A 
ATOM     13  C   UNL     1       8.663  11.732  22.574  0.00  0.00    +0.000 A 
ATOM     14  C   UNL     1       7.705  12.130  23.508  0.00  0.00    +0.000 A 
ATOM     15  C   UNL     1       7.444  13.483  23.690  0.00  0.00    +0.000 A 
ATOM     16  C   UNL     1       8.076  14.426  22.893  0.00  0.00    +0.000 A 
ATOM     17  O   UNL     1       6.605  13.974  24.660  0.00  0.00    +0.000 OA
ATOM     18  C   UNL     1       6.405  12.982  25.677  0.00  0.00    +0.000 C 
ATOM     19  C   UNL     1       5.986  11.683  25.010  0.00  0.00    +0.000 C 
ATOM     20  O   UNL     1       7.062  11.147  24.223  0.00  0.00    +0.000 OA
ENDBRANCH   7  11
BRANCH   1  22
ATOM     21  C   UNL     1      12.066  11.555  19.142  0.00  0.00    +0.000 C 
ATOM     22  C   UNL     1      10.920  11.911  18.194  0.00  0.00    +0.000 C 
ATOM     23  C   UNL     1       9.688  11.041  18.494  0.00  0.00    +0.000 C 
ENDBRANCH   1  22
TORSDOF 2
ENDMDL
MODEL 7
REMARK VINA RESULT:      -6.1      5.717      8.734
REMARK  Name = 
REMARK  4 active torsions:
REMARK  status: ('A' for Active; 'I' for Inactive)
REMARK    1  A    between atoms: C_1  and  C_2
REMARK    2  A    between atoms: C_2  and  C_3
REMARK    3  A    between atoms: C_2  and  N_4
REMARK    4  A    between atoms: C_10  and  C_12
REMARK                            x       y       z     vdW  Elec       q    Type
REMARK                         _______ _______ _______ _____ _____    ______ ____
ROOT
ATOM      1  N   UNL     1      -1.728  11.233  18.970  0.00  0.00    +0.000 NA
ATOM      2  C   UNL     1      -0.889  10.492  18.024  0.00  0.00    +0.000 C 
ATOM      3  C   UNL     1       0.524  10.192  18.536  0.00  0.00    +0.000 C 
ATOM      4  C   UNL     1       0.540   9.559  19.932  0.00  0.00    +0.000 C 
ATOM      5  C   UNL     1       0.905  10.529  21.060  0.00  0.00    +0.000 C 
ATOM      6  N   UNL     1      -0.098  11.562  21.346  0.00  0.00    +0.000 N 
ATOM      7  C   UNL     1      -0.757  11.488  22.596  0.00  0.00    +0.000 C 
ATOM      8  O   UNL     1      -0.538  10.594  23.414  0.00  0.00    +0.000 OA
ATOM      9  C   UNL     1      -0.152  12.689  20.381  0.00  0.00    +0.000 C 
ATOM     10  C   UNL     1      -1.195  12.582  19.217  0.00  0.00    +0.000 C 
ENDROOT
BRANCH   7  11
ATOM     11  C   UNL     1      -1.721  12.540  23.019  0.00  0.00    +0.000 A 
ATOM     12  C   UNL     1      -1.266  13.779  23.500  0.00  0.00    +0.000 A 
ATOM     13  C   UNL     1      -2.179  14.789  23.828  0.00  0.00    +0.000 A 
ATOM     14  C   UNL     1      -3.543  14.585  23.614  0.00  0.00    +0.000 A 
ATOM     15  C   UNL     1      -3.987  13.354  23.147  0.00  0.00    +0.000 A 
ATOM     16  C   UNL     1      -3.089  12.312  22.970  0.00  0.00    +0.000 A 
ATOM     17  O   UNL     1      -5.291  13.094  22.801  0.00  0.00    +0.000 OA
ATOM     18  C   UNL     1      -5.988  14.328  22.578  0.00  0.00    +0.000 C 
ATOM     19  C   UNL     1      -5.771  15.231  23.780  0.00  0.00    +0.000 C 
ATOM     20  O   UNL     1      -4.395  15.633  23.869  0.00  0.00    +0.000 OA
ENDBRANCH   7  11
BRANCH   1  22
ATOM     21  C   UNL     1      -4.020  12.267  19.362  0.00  0.00    +0.000 C 
ATOM     22  C   UNL     1      -3.176  11.205  18.657  0.00  0.00    +0.000 C 
ATOM     23  C   UNL     1      -3.423  11.246  17.140  0.00  0.00    +0.000 C 
ENDBRANCH   1  22
TORSDOF 2
ENDMDL
MODEL 8
REMARK VINA RESULT:      -6.0      5.600      8.724
REMARK  Name = 
REMARK  4 active torsions:
REMARK  status: ('A' for Active; 'I' for Inactive)
REMARK    1  A    between atoms: C_1  and  C_2
REMARK    2  A    between atoms: C_2  and  C_3
REMARK    3  A    between atoms: C_2  and  N_4
REMARK    4  A    between atoms: C_10  and  C_12
REMARK                            x       y       z     vdW  Elec       q    Type
REMARK                         _______ _______ _______ _____ _____    ______ ____
ROOT
ATOM      1  N   UNL     1      -1.595  11.138  18.978  0.00  0.00    +0.000 NA
ATOM      2  C   UNL     1      -0.758  10.353  18.066  0.00  0.00    +0.000 C 
ATOM      3  C   UNL     1       0.619   9.990  18.631  0.00  0.00    +0.000 C 
ATOM      4  C   UNL     1       0.555   9.364  20.028  0.00  0.00    +0.000 C 
ATOM      5  C   UNL     1       0.923  10.321  21.166  0.00  0.00    +0.000 C 
ATOM      6  N   UNL     1      -0.040  11.402  21.412  0.00  0.00    +0.000 N 
ATOM      7  C   UNL     1      -0.747  11.365  22.636  0.00  0.00    +0.000 C 
ATOM      8  O   UNL     1      -0.600  10.466  23.465  0.00  0.00    +0.000 OA
ATOM      9  C   UNL     1      -0.005  12.525  20.442  0.00  0.00    +0.000 C 
ATOM     10  C   UNL     1      -1.008  12.462  19.240  0.00  0.00    +0.000 C 
ENDROOT
BRANCH   7  11
ATOM     11  C   UNL     1      -1.675  12.464  23.020  0.00  0.00    +0.000 A 
ATOM     12  C   UNL     1      -3.067  12.277  22.969  0.00  0.00    +0.000 A 
ATOM     13  C   UNL     1      -3.932  13.291  23.400  0.00  0.00    +0.000 A 
ATOM     14  C   UNL     1      -3.408  14.464  23.942  0.00  0.00    +0.000 A 
ATOM     15  C   UNL     1      -2.030  14.647  23.980  0.00  0.00    +0.000 A 
ATOM     16  C   UNL     1      -1.188  13.702  23.412  0.00  0.00    +0.000 A 
ATOM     17  O   UNL     1      -1.418  15.713  24.593  0.00  0.00    +0.000 OA
ATOM     18  C   UNL     1      -2.328  16.330  25.514  0.00  0.00    +0.000 C 
ATOM     19  C   UNL     1      -3.631  16.619  24.789  0.00  0.00    +0.000 C 
ATOM     20  O   UNL     1      -4.293  15.396  24.430  0.00  0.00    +0.000 OA
ENDBRANCH   7  11
BRANCH   1  22
ATOM     21  C   UNL     1      -3.865  12.229  19.341  0.00  0.00    +0.000 C 
ATOM     22  C   UNL     1      -3.030  11.176  18.612  0.00  0.00    +0.000 C 
ATOM     23  C   UNL     1      -3.218  11.304  17.091  0.00  0.00    +0.000 C 
ENDBRANCH   1  22
TORSDOF 2
ENDMDL
MODEL 9
REMARK VINA RESULT:      -5.9      5.834      8.850
REMARK  Name = 
REMARK  4 active torsions:
REMARK  status: ('A' for Active; 'I' for Inactive)
REMARK    1  A    between atoms: C_1  and  C_2
REMARK    2  A    between atoms: C_2  and  C_3
REMARK    3  A    between atoms: C_2  and  N_4
REMARK    4  A    between atoms: C_10  and  C_12
REMARK                            x       y       z     vdW  Elec       q    Type
REMARK                         _______ _______ _______ _____ _____    ______ ____
ROOT
ATOM      1  N   UNL     1       1.238  11.876  19.047  0.00  0.00    +0.000 NA
ATOM      2  C   UNL     1       2.346  12.159  18.131  0.00  0.00    +0.000 C 
ATOM      3  C   UNL     1       2.820  13.617  18.148  0.00  0.00    +0.000 C 
ATOM      4  C   UNL     1       3.094  14.148  19.559  0.00  0.00    +0.000 C 
ATOM      5  C   UNL     1       1.990  15.051  20.118  0.00  0.00    +0.000 C 
ATOM      6  N   UNL     1       0.724  14.375  20.427  0.00  0.00    +0.000 N 
ATOM      7  C   UNL     1       0.355  14.295  21.790  0.00  0.00    +0.000 C 
ATOM      8  O   UNL     1       1.057  14.741  22.698  0.00  0.00    +0.000 OA
ATOM      9  C   UNL     1      -0.127  14.041  19.257  0.00  0.00    +0.000 C 
ATOM     10  C   UNL     1       0.019  12.602  18.655  0.00  0.00    +0.000 C 
ENDROOT
BRANCH   7  11
ATOM     11  C   UNL     1      -0.952  13.713  22.198  0.00  0.00    +0.000 A 
ATOM     12  C   UNL     1      -1.030  12.398  22.688  0.00  0.00    +0.000 A 
ATOM     13  C   UNL     1      -2.252  11.882  23.137  0.00  0.00    +0.000 A 
ATOM     14  C   UNL     1      -3.382  12.700  23.159  0.00  0.00    +0.000 A 
ATOM     15  C   UNL     1      -3.301  13.997  22.665  0.00  0.00    +0.000 A 
ATOM     16  C   UNL     1      -2.124  14.446  22.083  0.00  0.00    +0.000 A 
ATOM     17  O   UNL     1      -4.323  14.910  22.746  0.00  0.00    +0.000 OA
ATOM     18  C   UNL     1      -5.261  14.500  23.751  0.00  0.00    +0.000 C 
ATOM     19  C   UNL     1      -5.658  13.058  23.484  0.00  0.00    +0.000 C 
ATOM     20  O   UNL     1      -4.540  12.179  23.687  0.00  0.00    +0.000 OA
ENDBRANCH   7  11
BRANCH   1  22
ATOM     21  C   UNL     1      -0.381  10.064  19.802  0.00  0.00    +0.000 C 
ATOM     22  C   UNL     1       1.020  10.436  19.319  0.00  0.00    +0.000 C 
ATOM     23  C   UNL     1       1.417   9.571  18.111  0.00  0.00    +0.000 C 
ENDBRANCH   1  22
TORSDOF 2
ENDMDL
