MODEL 1
REMARK VINA RESULT:      -8.7      0.000      0.000
REMARK  Name = 
REMARK  3 active torsions:
REMARK  status: ('A' for Active; 'I' for Inactive)
REMARK    1  A    between atoms: C_2  and  C_4
REMARK    2  A    between atoms: C_15  and  C_16
REMARK    3  A    between atoms: C_16  and  C_17
REMARK                            x       y       z     vdW  Elec       q    Type
REMARK                         _______ _______ _______ _____ _____    ______ ____
ROOT
ATOM      1  C   UNL     1       2.167  16.244  18.619  0.00  0.00    +0.000 A 
ATOM      2  C   UNL     1       3.287  15.939  17.830  0.00  0.00    +0.000 A 
ATOM      3  C   UNL     1       3.719  14.616  17.694  0.00  0.00    +0.000 A 
ATOM      4  C   UNL     1       3.038  13.582  18.336  0.00  0.00    +0.000 A 
ATOM      5  C   UNL     1       1.933  13.881  19.119  0.00  0.00    +0.000 A 
ATOM      6  C   UNL     1       1.527  15.207  19.289  0.00  0.00    +0.000 A 
ATOM      7  C   UNL     1       0.334  15.246  20.193  0.00  0.00    +0.000 C 
ATOM      8  C   UNL     1       0.293  13.800  20.732  0.00  0.00    +0.000 C 
ATOM      9  N   UNL     1       1.111  12.982  19.828  0.00  0.00    +0.000 N 
ATOM     10  C   UNL     1       1.153  11.604  20.009  0.00  0.00    +0.000 A 
ATOM     11  C   UNL     1       1.425  10.757  18.933  0.00  0.00    +0.000 A 
ATOM     12  C   UNL     1       1.413   9.363  19.095  0.00  0.00    +0.000 A 
ATOM     13  C   UNL     1       1.118   8.859  20.359  0.00  0.00    +0.000 A 
ATOM     14  C   UNL     1       0.875   9.756  21.384  0.00  0.00    +0.000 A 
ATOM     15  N   UNL     1       0.871  11.098  21.232  0.00  0.00    +0.000 NA
ENDROOT
BRANCH   1  17
ATOM     16  N   UNL     1       0.710  17.998  17.788  0.00  0.00    +0.000 N 
ATOM     17  C   UNL     1       1.670  17.641  18.705  0.00  0.00    +0.000 C 
ATOM     18  O   UNL     1       2.052  18.425  19.559  0.00  0.00    +0.000 OA
ATOM     19  H   UNL     1       0.280  18.899  17.921  0.00  0.00    +0.000 HD
ATOM     20  H   UNL     1       0.204  17.311  17.249  0.00  0.00    +0.000 HD
ENDBRANCH   1  17
BRANCH  12  21
ATOM     21  C   UNL     1       1.663   8.442  17.926  0.00  0.00    +0.000 C 
BRANCH  21  22
ATOM     22  C   UNL     1       2.732   7.406  18.191  0.00  0.00    +0.000 A 
ATOM     23  C   UNL     1       2.597   6.497  19.248  0.00  0.00    +0.000 A 
ATOM     24  C   UNL     1       3.631   5.610  19.555  0.00  0.00    +0.000 A 
ATOM     25  C   UNL     1       4.809   5.608  18.805  0.00  0.00    +0.000 A 
ATOM     26  C   UNL     1       4.914   6.444  17.686  0.00  0.00    +0.000 A 
ATOM     27  C   UNL     1       3.895   7.361  17.406  0.00  0.00    +0.000 A 
ATOM     28  O   UNL     1       5.969   6.457  16.805  0.00  0.00    +0.000 OA
ATOM     29  C   UNL     1       6.505   5.155  16.561  0.00  0.00    +0.000 C 
ATOM     30  C   UNL     1       7.552   4.789  17.602  0.00  0.00    +0.000 C 
ATOM     31  C   UNL     1       7.112   5.186  18.999  0.00  0.00    +0.000 C 
ATOM     32  O   UNL     1       5.778   4.745  19.256  0.00  0.00    +0.000 OA
ENDBRANCH  21  22
ENDBRANCH  12  21
TORSDOF 3
ENDMDL
MODEL 2
REMARK VINA RESULT:      -8.4      3.995      5.057
REMARK  Name = 
REMARK  3 active torsions:
REMARK  status: ('A' for Active; 'I' for Inactive)
REMARK    1  A    between atoms: C_2  and  C_4
REMARK    2  A    between atoms: C_15  and  C_16
REMARK    3  A    between atoms: C_16  and  C_17
REMARK                            x       y       z     vdW  Elec       q    Type
REMARK                         _______ _______ _______ _____ _____    ______ ____
ROOT
ATOM      1  C   UNL     1      -4.726  11.661  17.397  0.00  0.00    +0.000 A 
ATOM      2  C   UNL     1      -4.330  10.806  16.358  0.00  0.00    +0.000 A 
ATOM      3  C   UNL     1      -3.130  10.093  16.445  0.00  0.00    +0.000 A 
ATOM      4  C   UNL     1      -2.317  10.217  17.570  0.00  0.00    +0.000 A 
ATOM      5  C   UNL     1      -2.704  11.063  18.599  0.00  0.00    +0.000 A 
ATOM      6  C   UNL     1      -3.881  11.808  18.492  0.00  0.00    +0.000 A 
ATOM      7  C   UNL     1      -4.046  12.649  19.720  0.00  0.00    +0.000 C 
ATOM      8  C   UNL     1      -2.670  12.490  20.403  0.00  0.00    +0.000 C 
ATOM      9  N   UNL     1      -2.031  11.309  19.812  0.00  0.00    +0.000 N 
ATOM     10  C   UNL     1      -0.822  10.859  20.331  0.00  0.00    +0.000 A 
ATOM     11  C   UNL     1      -0.459   9.516  20.216  0.00  0.00    +0.000 A 
ATOM     12  C   UNL     1       0.733   9.042  20.787  0.00  0.00    +0.000 A 
ATOM     13  C   UNL     1       1.532   9.954  21.470  0.00  0.00    +0.000 A 
ATOM     14  C   UNL     1       1.119  11.274  21.531  0.00  0.00    +0.000 A 
ATOM     15  N   UNL     1      -0.033  11.733  20.997  0.00  0.00    +0.000 NA
ENDROOT
BRANCH   1  17
ATOM     16  N   UNL     1      -6.035  13.577  16.686  0.00  0.00    +0.000 N 
ATOM     17  C   UNL     1      -6.033  12.364  17.332  0.00  0.00    +0.000 C 
ATOM     18  O   UNL     1      -7.062  11.887  17.786  0.00  0.00    +0.000 OA
ATOM     19  H   UNL     1      -6.936  13.996  16.529  0.00  0.00    +0.000 HD
ATOM     20  H   UNL     1      -5.271  13.867  16.093  0.00  0.00    +0.000 HD
ENDBRANCH   1  17
BRANCH  12  21
ATOM     21  C   UNL     1       1.109   7.583  20.702  0.00  0.00    +0.000 C 
BRANCH  21  22
ATOM     22  C   UNL     1       2.166   7.291  19.663  0.00  0.00    +0.000 A 
ATOM     23  C   UNL     1       2.300   8.107  18.532  0.00  0.00    +0.000 A 
ATOM     24  C   UNL     1       3.207   7.777  17.522  0.00  0.00    +0.000 A 
ATOM     25  C   UNL     1       4.002   6.634  17.631  0.00  0.00    +0.000 A 
ATOM     26  C   UNL     1       3.946   5.865  18.800  0.00  0.00    +0.000 A 
ATOM     27  C   UNL     1       3.007   6.174  19.792  0.00  0.00    +0.000 A 
ATOM     28  O   UNL     1       4.752   4.787  19.077  0.00  0.00    +0.000 OA
ATOM     29  C   UNL     1       6.090   4.958  18.602  0.00  0.00    +0.000 C 
ATOM     30  C   UNL     1       6.218   4.513  17.154  0.00  0.00    +0.000 C 
ATOM     31  C   UNL     1       5.044   4.988  16.318  0.00  0.00    +0.000 C 
ATOM     32  O   UNL     1       4.793   6.377  16.538  0.00  0.00    +0.000 OA
ENDBRANCH  21  22
ENDBRANCH  12  21
TORSDOF 3
ENDMDL
MODEL 3
REMARK VINA RESULT:      -8.4      4.365      5.628
REMARK  Name = 
REMARK  3 active torsions:
REMARK  status: ('A' for Active; 'I' for Inactive)
REMARK    1  A    between atoms: C_2  and  C_4
REMARK    2  A    between atoms: C_15  and  C_16
REMARK    3  A    between atoms: C_16  and  C_17
REMARK                            x       y       z     vdW  Elec       q    Type
REMARK                         _______ _______ _______ _____ _____    ______ ____
ROOT
ATOM      1  C   UNL     1      -5.292  11.552  17.758  0.00  0.00    +0.000 A 
ATOM      2  C   UNL     1      -5.091  11.130  16.436  0.00  0.00    +0.000 A 
ATOM      3  C   UNL     1      -3.798  10.906  15.952  0.00  0.00    +0.000 A 
ATOM      4  C   UNL     1      -2.693  11.094  16.780  0.00  0.00    +0.000 A 
ATOM      5  C   UNL     1      -2.888  11.515  18.088  0.00  0.00    +0.000 A 
ATOM      6  C   UNL     1      -4.177  11.779  18.558  0.00  0.00    +0.000 A 
ATOM      7  C   UNL     1      -4.098  12.238  19.981  0.00  0.00    +0.000 C 
ATOM      8  C   UNL     1      -2.582  12.463  20.162  0.00  0.00    +0.000 C 
ATOM      9  N   UNL     1      -1.908  11.744  19.074  0.00  0.00    +0.000 N 
ATOM     10  C   UNL     1      -0.520  11.677  19.062  0.00  0.00    +0.000 A 
ATOM     11  C   UNL     1       0.133  10.614  18.434  0.00  0.00    +0.000 A 
ATOM     12  C   UNL     1       1.532  10.509  18.465  0.00  0.00    +0.000 A 
ATOM     13  C   UNL     1       2.240  11.496  19.144  0.00  0.00    +0.000 A 
ATOM     14  C   UNL     1       1.532  12.530  19.731  0.00  0.00    +0.000 A 
ATOM     15  N   UNL     1       0.185  12.629  19.716  0.00  0.00    +0.000 NA
ENDROOT
BRANCH   1  17
ATOM     16  N   UNL     1      -7.221  10.622  18.900  0.00  0.00    +0.000 N 
ATOM     17  C   UNL     1      -6.668  11.722  18.289  0.00  0.00    +0.000 C 
ATOM     18  O   UNL     1      -7.272  12.782  18.230  0.00  0.00    +0.000 OA
ATOM     19  H   UNL     1      -8.099  10.767  19.370  0.00  0.00    +0.000 HD
ATOM     20  H   UNL     1      -6.661   9.831  19.182  0.00  0.00    +0.000 HD
ENDBRANCH   1  17
BRANCH  12  21
ATOM     21  C   UNL     1       2.238   9.340  17.825  0.00  0.00    +0.000 C 
BRANCH  21  22
ATOM     22  C   UNL     1       2.098   8.050  18.601  0.00  0.00    +0.000 A 
ATOM     23  C   UNL     1       1.832   8.071  19.976  0.00  0.00    +0.000 A 
ATOM     24  C   UNL     1       1.805   6.883  20.710  0.00  0.00    +0.000 A 
ATOM     25  C   UNL     1       2.033   5.657  20.082  0.00  0.00    +0.000 A 
ATOM     26  C   UNL     1       2.204   5.616  18.692  0.00  0.00    +0.000 A 
ATOM     27  C   UNL     1       2.271   6.811  17.965  0.00  0.00    +0.000 A 
ATOM     28  O   UNL     1       2.324   4.470  17.944  0.00  0.00    +0.000 OA
ATOM     29  C   UNL     1       1.497   3.406  18.421  0.00  0.00    +0.000 C 
ATOM     30  C   UNL     1       2.200   2.611  19.508  0.00  0.00    +0.000 C 
ATOM     31  C   UNL     1       2.918   3.519  20.489  0.00  0.00    +0.000 C 
ATOM     32  O   UNL     1       2.059   4.573  20.926  0.00  0.00    +0.000 OA
ENDBRANCH  21  22
ENDBRANCH  12  21
TORSDOF 3
ENDMDL
MODEL 4
REMARK VINA RESULT:      -8.3      4.007      5.382
REMARK  Name = 
REMARK  3 active torsions:
REMARK  status: ('A' for Active; 'I' for Inactive)
REMARK    1  A    between atoms: C_2  and  C_4
REMARK    2  A    between atoms: C_15  and  C_16
REMARK    3  A    between atoms: C_16  and  C_17
REMARK                            x       y       z     vdW  Elec       q    Type
REMARK                         _______ _______ _______ _____ _____    ______ ____
ROOT
ATOM      1  C   UNL     1      -4.226  13.892  23.154  0.00  0.00    +0.000 A 
ATOM      2  C   UNL     1      -3.310  13.339  24.061  0.00  0.00    +0.000 A 
ATOM      3  C   UNL     1      -2.363  12.404  23.630  0.00  0.00    +0.000 A 
ATOM      4  C   UNL     1      -2.314  12.016  22.292  0.00  0.00    +0.000 A 
ATOM      5  C   UNL     1      -3.221  12.559  21.393  0.00  0.00    +0.000 A 
ATOM      6  C   UNL     1      -4.194  13.460  21.832  0.00  0.00    +0.000 A 
ATOM      7  C   UNL     1      -5.049  13.867  20.672  0.00  0.00    +0.000 C 
ATOM      8  C   UNL     1      -4.607  12.866  19.583  0.00  0.00    +0.000 C 
ATOM      9  N   UNL     1      -3.319  12.306  20.011  0.00  0.00    +0.000 N 
ATOM     10  C   UNL     1      -2.628  11.459  19.152  0.00  0.00    +0.000 A 
ATOM     11  C   UNL     1      -1.239  11.346  19.236  0.00  0.00    +0.000 A 
ATOM     12  C   UNL     1      -0.528  10.537  18.336  0.00  0.00    +0.000 A 
ATOM     13  C   UNL     1      -1.253   9.858  17.362  0.00  0.00    +0.000 A 
ATOM     14  C   UNL     1      -2.630  10.002  17.347  0.00  0.00    +0.000 A 
ATOM     15  N   UNL     1      -3.319  10.790  18.200  0.00  0.00    +0.000 NA
ENDROOT
BRANCH   1  17
ATOM     16  N   UNL     1      -6.320  14.483  24.231  0.00  0.00    +0.000 N 
ATOM     17  C   UNL     1      -5.185  14.935  23.600  0.00  0.00    +0.000 C 
ATOM     18  O   UNL     1      -4.974  16.129  23.458  0.00  0.00    +0.000 OA
ATOM     19  H   UNL     1      -6.909  15.186  24.646  0.00  0.00    +0.000 HD
ATOM     20  H   UNL     1      -6.396  13.539  24.581  0.00  0.00    +0.000 HD
ENDBRANCH   1  17
BRANCH  12  21
ATOM     21  C   UNL     1       0.977  10.446  18.396  0.00  0.00    +0.000 C 
BRANCH  21  22
ATOM     22  C   UNL     1       1.485   9.083  18.806  0.00  0.00    +0.000 A 
ATOM     23  C   UNL     1       1.219   8.579  20.086  0.00  0.00    +0.000 A 
ATOM     24  C   UNL     1       1.775   7.366  20.499  0.00  0.00    +0.000 A 
ATOM     25  C   UNL     1       2.594   6.632  19.639  0.00  0.00    +0.000 A 
ATOM     26  C   UNL     1       2.787   7.079  18.325  0.00  0.00    +0.000 A 
ATOM     27  C   UNL     1       2.264   8.314  17.927  0.00  0.00    +0.000 A 
ATOM     28  O   UNL     1       3.476   6.396  17.352  0.00  0.00    +0.000 OA
ATOM     29  C   UNL     1       3.280   4.982  17.421  0.00  0.00    +0.000 C 
ATOM     30  C   UNL     1       4.267   4.339  18.383  0.00  0.00    +0.000 C 
ATOM     31  C   UNL     1       4.420   5.153  19.654  0.00  0.00    +0.000 C 
ATOM     32  O   UNL     1       3.142   5.500  20.191  0.00  0.00    +0.000 OA
ENDBRANCH  21  22
ENDBRANCH  12  21
TORSDOF 3
ENDMDL
MODEL 5
REMARK VINA RESULT:      -8.3      1.843      2.473
REMARK  Name = 
REMARK  3 active torsions:
REMARK  status: ('A' for Active; 'I' for Inactive)
REMARK    1  A    between atoms: C_2  and  C_4
REMARK    2  A    between atoms: C_15  and  C_16
REMARK    3  A    between atoms: C_16  and  C_17
REMARK                            x       y       z     vdW  Elec       q    Type
REMARK                         _______ _______ _______ _____ _____    ______ ____
ROOT
ATOM      1  C   UNL     1       0.880  16.076  18.754  0.00  0.00    +0.000 A 
ATOM      2  C   UNL     1       2.142  16.103  18.144  0.00  0.00    +0.000 A 
ATOM      3  C   UNL     1       2.892  14.929  18.013  0.00  0.00    +0.000 A 
ATOM      4  C   UNL     1       2.390  13.717  18.483  0.00  0.00    +0.000 A 
ATOM      5  C   UNL     1       1.142  13.687  19.090  0.00  0.00    +0.000 A 
ATOM      6  C   UNL     1       0.413  14.867  19.258  0.00  0.00    +0.000 A 
ATOM      7  C   UNL     1      -0.874  14.555  19.958  0.00  0.00    +0.000 C 
ATOM      8  C   UNL     1      -0.648  13.096  20.408  0.00  0.00    +0.000 C 
ATOM      9  N   UNL     1       0.464  12.567  19.610  0.00  0.00    +0.000 N 
ATOM     10  C   UNL     1       0.804  11.224  19.726  0.00  0.00    +0.000 A 
ATOM     11  C   UNL     1       1.424  10.557  18.667  0.00  0.00    +0.000 A 
ATOM     12  C   UNL     1       1.720   9.189  18.754  0.00  0.00    +0.000 A 
ATOM     13  C   UNL     1       1.373   8.524  19.926  0.00  0.00    +0.000 A 
ATOM     14  C   UNL     1       0.776   9.249  20.942  0.00  0.00    +0.000 A 
ATOM     15  N   UNL     1       0.475  10.563  20.859  0.00  0.00    +0.000 NA
ENDROOT
BRANCH   1  17
ATOM     16  N   UNL     1      -0.764  17.556  17.755  0.00  0.00    +0.000 N 
ATOM     17  C   UNL     1       0.057  17.311  18.829  0.00  0.00    +0.000 C 
ATOM     18  O   UNL     1       0.070  18.054  19.798  0.00  0.00    +0.000 OA
ATOM     19  H   UNL     1      -1.413  18.319  17.855  0.00  0.00    +0.000 HD
ATOM     20  H   UNL     1      -0.978  16.843  17.073  0.00  0.00    +0.000 HD
ENDBRANCH   1  17
BRANCH  12  21
ATOM     21  C   UNL     1       2.351   8.454  17.596  0.00  0.00    +0.000 C 
BRANCH  21  22
ATOM     22  C   UNL     1       2.817   7.060  17.946  0.00  0.00    +0.000 A 
ATOM     23  C   UNL     1       4.178   6.791  18.141  0.00  0.00    +0.000 A 
ATOM     24  C   UNL     1       4.618   5.484  18.362  0.00  0.00    +0.000 A 
ATOM     25  C   UNL     1       3.706   4.427  18.404  0.00  0.00    +0.000 A 
ATOM     26  C   UNL     1       2.334   4.698  18.309  0.00  0.00    +0.000 A 
ATOM     27  C   UNL     1       1.900   6.002  18.046  0.00  0.00    +0.000 A 
ATOM     28  O   UNL     1       1.333   3.766  18.447  0.00  0.00    +0.000 OA
ATOM     29  C   UNL     1       1.625   2.781  19.441  0.00  0.00    +0.000 C 
ATOM     30  C   UNL     1       2.431   1.633  18.855  0.00  0.00    +0.000 C 
ATOM     31  C   UNL     1       3.526   2.133  17.931  0.00  0.00    +0.000 C 
ATOM     32  O   UNL     1       4.270   3.184  18.549  0.00  0.00    +0.000 OA
ENDBRANCH  21  22
ENDBRANCH  12  21
TORSDOF 3
ENDMDL
MODEL 6
REMARK VINA RESULT:      -8.0      3.673     10.236
REMARK  Name = 
REMARK  3 active torsions:
REMARK  status: ('A' for Active; 'I' for Inactive)
REMARK    1  A    between atoms: C_2  and  C_4
REMARK    2  A    between atoms: C_15  and  C_16
REMARK    3  A    between atoms: C_16  and  C_17
REMARK                            x       y       z     vdW  Elec       q    Type
REMARK                         _______ _______ _______ _____ _____    ______ ____
ROOT
ATOM      1  C   UNL     1       3.275   4.349  19.306  0.00  0.00    +0.000 A 
ATOM      2  C   UNL     1       2.544   4.189  20.493  0.00  0.00    +0.000 A 
ATOM      3  C   UNL     1       1.789   5.248  21.008  0.00  0.00    +0.000 A 
ATOM      4  C   UNL     1       1.750   6.474  20.345  0.00  0.00    +0.000 A 
ATOM      5  C   UNL     1       2.474   6.636  19.173  0.00  0.00    +0.000 A 
ATOM      6  C   UNL     1       3.261   5.591  18.682  0.00  0.00    +0.000 A 
ATOM      7  C   UNL     1       3.949   6.039  17.429  0.00  0.00    +0.000 C 
ATOM      8  C   UNL     1       3.666   7.556  17.434  0.00  0.00    +0.000 C 
ATOM      9  N   UNL     1       2.548   7.782  18.358  0.00  0.00    +0.000 N 
ATOM     10  C   UNL     1       2.003   9.056  18.465  0.00  0.00    +0.000 A 
ATOM     11  C   UNL     1       0.674   9.226  18.859  0.00  0.00    +0.000 A 
ATOM     12  C   UNL     1       0.099  10.505  18.915  0.00  0.00    +0.000 A 
ATOM     13  C   UNL     1       0.896  11.590  18.564  0.00  0.00    +0.000 A 
ATOM     14  C   UNL     1       2.209  11.352  18.200  0.00  0.00    +0.000 A 
ATOM     15  N   UNL     1       2.764  10.123  18.129  0.00  0.00    +0.000 NA
ENDROOT
BRANCH   1  17
ATOM     16  N   UNL     1       5.208   2.882  19.334  0.00  0.00    +0.000 N 
ATOM     17  C   UNL     1       4.018   3.202  18.725  0.00  0.00    +0.000 C 
ATOM     18  O   UNL     1       3.593   2.547  17.786  0.00  0.00    +0.000 OA
ATOM     19  H   UNL     1       5.652   2.032  19.027  0.00  0.00    +0.000 HD
ATOM     20  H   UNL     1       5.452   3.236  20.248  0.00  0.00    +0.000 HD
ENDBRANCH   1  17
BRANCH  12  21
ATOM     21  C   UNL     1      -1.349  10.690  19.298  0.00  0.00    +0.000 C 
BRANCH  21  22
ATOM     22  C   UNL     1      -1.546  11.566  20.514  0.00  0.00    +0.000 A 
ATOM     23  C   UNL     1      -0.900  11.266  21.720  0.00  0.00    +0.000 A 
ATOM     24  C   UNL     1      -1.163  12.015  22.870  0.00  0.00    +0.000 A 
ATOM     25  C   UNL     1      -2.065  13.080  22.831  0.00  0.00    +0.000 A 
ATOM     26  C   UNL     1      -2.642  13.448  21.609  0.00  0.00    +0.000 A 
ATOM     27  C   UNL     1      -2.409  12.672  20.468  0.00  0.00    +0.000 A 
ATOM     28  O   UNL     1      -3.454  14.540  21.416  0.00  0.00    +0.000 OA
ATOM     29  C   UNL     1      -3.056  15.673  22.192  0.00  0.00    +0.000 C 
ATOM     30  C   UNL     1      -3.672  15.628  23.581  0.00  0.00    +0.000 C 
ATOM     31  C   UNL     1      -3.608  14.233  24.176  0.00  0.00    +0.000 C 
ATOM     32  O   UNL     1      -2.296  13.684  24.042  0.00  0.00    +0.000 OA
ENDBRANCH  21  22
ENDBRANCH  12  21
TORSDOF 3
ENDMDL
MODEL 7
REMARK VINA RESULT:      -8.0      3.221      4.477
REMARK  Name = 
REMARK  3 active torsions:
REMARK  status: ('A' for Active; 'I' for Inactive)
REMARK    1  A    between atoms: C_2  and  C_4
REMARK    2  A    between atoms: C_15  and  C_16
REMARK    3  A    between atoms: C_16  and  C_17
REMARK                            x       y       z     vdW  Elec       q    Type
REMARK                         _______ _______ _______ _____ _____    ______ ____
ROOT
ATOM      1  C   UNL     1      -4.373  12.595  20.073  0.00  0.00    +0.000 A 
ATOM      2  C   UNL     1      -4.994  11.926  19.008  0.00  0.00    +0.000 A 
ATOM      3  C   UNL     1      -4.234  11.193  18.092  0.00  0.00    +0.000 A 
ATOM      4  C   UNL     1      -2.850  11.112  18.229  0.00  0.00    +0.000 A 
ATOM      5  C   UNL     1      -2.231  11.775  19.279  0.00  0.00    +0.000 A 
ATOM      6  C   UNL     1      -2.986  12.542  20.170  0.00  0.00    +0.000 A 
ATOM      7  C   UNL     1      -2.074  13.163  21.183  0.00  0.00    +0.000 C 
ATOM      8  C   UNL     1      -0.683  12.872  20.581  0.00  0.00    +0.000 C 
ATOM      9  N   UNL     1      -0.858  11.801  19.592  0.00  0.00    +0.000 N 
ATOM     10  C   UNL     1       0.263  11.254  18.978  0.00  0.00    +0.000 A 
ATOM     11  C   UNL     1       0.235   9.945  18.491  0.00  0.00    +0.000 A 
ATOM     12  C   UNL     1       1.379   9.366  17.921  0.00  0.00    +0.000 A 
ATOM     13  C   UNL     1       2.536  10.137  17.862  0.00  0.00    +0.000 A 
ATOM     14  C   UNL     1       2.489  11.432  18.348  0.00  0.00    +0.000 A 
ATOM     15  N   UNL     1       1.395  11.991  18.911  0.00  0.00    +0.000 NA
ENDROOT
BRANCH   1  17
ATOM     16  N   UNL     1      -5.390  12.662  22.276  0.00  0.00    +0.000 N 
ATOM     17  C   UNL     1      -5.189  13.315  21.084  0.00  0.00    +0.000 C 
ATOM     18  O   UNL     1      -5.629  14.439  20.897  0.00  0.00    +0.000 OA
ATOM     19  H   UNL     1      -5.833  13.193  23.007  0.00  0.00    +0.000 HD
ATOM     20  H   UNL     1      -4.837  11.861  22.545  0.00  0.00    +0.000 HD
ENDBRANCH   1  17
BRANCH  12  21
ATOM     21  C   UNL     1       1.366   7.938  17.432  0.00  0.00    +0.000 C 
BRANCH  21  22
ATOM     22  C   UNL     1       2.519   7.111  17.952  0.00  0.00    +0.000 A 
ATOM     23  C   UNL     1       2.435   6.472  19.196  0.00  0.00    +0.000 A 
ATOM     24  C   UNL     1       3.538   5.795  19.721  0.00  0.00    +0.000 A 
ATOM     25  C   UNL     1       4.737   5.734  19.008  0.00  0.00    +0.000 A 
ATOM     26  C   UNL     1       4.802   6.286  17.722  0.00  0.00    +0.000 A 
ATOM     27  C   UNL     1       3.709   6.999  17.216  0.00  0.00    +0.000 A 
ATOM     28  O   UNL     1       5.882   6.196  16.876  0.00  0.00    +0.000 OA
ATOM     29  C   UNL     1       6.550   4.935  16.961  0.00  0.00    +0.000 C 
ATOM     30  C   UNL     1       7.588   4.939  18.072  0.00  0.00    +0.000 C 
ATOM     31  C   UNL     1       7.062   5.610  19.327  0.00  0.00    +0.000 C 
ATOM     32  O   UNL     1       5.768   5.108  19.665  0.00  0.00    +0.000 OA
ENDBRANCH  21  22
ENDBRANCH  12  21
TORSDOF 3
ENDMDL
MODEL 8
REMARK VINA RESULT:      -7.9      1.039      1.164
REMARK  Name = 
REMARK  3 active torsions:
REMARK  status: ('A' for Active; 'I' for Inactive)
REMARK    1  A    between atoms: C_2  and  C_4
REMARK    2  A    between atoms: C_15  and  C_16
REMARK    3  A    between atoms: C_16  and  C_17
REMARK                            x       y       z     vdW  Elec       q    Type
REMARK                         _______ _______ _______ _____ _____    ______ ____
ROOT
ATOM      1  C   UNL     1       0.993  16.092  19.839  0.00  0.00    +0.000 A 
ATOM      2  C   UNL     1       1.975  16.102  18.838  0.00  0.00    +0.000 A 
ATOM      3  C   UNL     1       2.559  14.906  18.406  0.00  0.00    +0.000 A 
ATOM      4  C   UNL     1       2.167  13.690  18.962  0.00  0.00    +0.000 A 
ATOM      5  C   UNL     1       1.199  13.677  19.956  0.00  0.00    +0.000 A 
ATOM      6  C   UNL     1       0.646  14.875  20.416  0.00  0.00    +0.000 A 
ATOM      7  C   UNL     1      -0.347  14.577  21.496  0.00  0.00    +0.000 C 
ATOM      8  C   UNL     1      -0.077  13.083  21.776  0.00  0.00    +0.000 C 
ATOM      9  N   UNL     1       0.664  12.557  20.623  0.00  0.00    +0.000 N 
ATOM     10  C   UNL     1       0.936  11.196  20.555  0.00  0.00    +0.000 A 
ATOM     11  C   UNL     1       1.119  10.572  19.318  0.00  0.00    +0.000 A 
ATOM     12  C   UNL     1       1.337   9.188  19.237  0.00  0.00    +0.000 A 
ATOM     13  C   UNL     1       1.363   8.465  20.425  0.00  0.00    +0.000 A 
ATOM     14  C   UNL     1       1.191   9.149  21.616  0.00  0.00    +0.000 A 
ATOM     15  N   UNL     1       0.966  10.478  21.700  0.00  0.00    +0.000 NA
ENDROOT
BRANCH   1  17
ATOM     16  N   UNL     1      -0.868  17.636  19.624  0.00  0.00    +0.000 N 
ATOM     17  C   UNL     1       0.325  17.355  20.246  0.00  0.00    +0.000 C 
ATOM     18  O   UNL     1       0.777  18.092  21.109  0.00  0.00    +0.000 OA
ATOM     19  H   UNL     1      -1.384  18.421  19.984  0.00  0.00    +0.000 HD
ATOM     20  H   UNL     1      -1.378  16.934  19.107  0.00  0.00    +0.000 HD
ENDBRANCH   1  17
BRANCH  12  21
ATOM     21  C   UNL     1       1.492   8.503  17.901  0.00  0.00    +0.000 C 
BRANCH  21  22
ATOM     22  C   UNL     1       2.489   7.367  17.916  0.00  0.00    +0.000 A 
ATOM     23  C   UNL     1       2.123   6.104  18.397  0.00  0.00    +0.000 A 
ATOM     24  C   UNL     1       3.073   5.085  18.506  0.00  0.00    +0.000 A 
ATOM     25  C   UNL     1       4.398   5.308  18.128  0.00  0.00    +0.000 A 
ATOM     26  C   UNL     1       4.753   6.537  17.556  0.00  0.00    +0.000 A 
ATOM     27  C   UNL     1       3.810   7.569  17.486  0.00  0.00    +0.000 A 
ATOM     28  O   UNL     1       5.991   6.842  17.043  0.00  0.00    +0.000 OA
ATOM     29  C   UNL     1       6.604   5.735  16.377  0.00  0.00    +0.000 C 
ATOM     30  C   UNL     1       7.372   4.863  17.356  0.00  0.00    +0.000 C 
ATOM     31  C   UNL     1       6.593   4.646  18.641  0.00  0.00    +0.000 C 
ATOM     32  O   UNL     1       5.249   4.255  18.358  0.00  0.00    +0.000 OA
ENDBRANCH  21  22
ENDBRANCH  12  21
TORSDOF 3
ENDMDL
MODEL 9
REMARK VINA RESULT:      -7.9      5.989     10.655
REMARK  Name = 
REMARK  3 active torsions:
REMARK  status: ('A' for Active; 'I' for Inactive)
REMARK    1  A    between atoms: C_2  and  C_4
REMARK    2  A    between atoms: C_15  and  C_16
REMARK    3  A    between atoms: C_16  and  C_17
REMARK                            x       y       z     vdW  Elec       q    Type
REMARK                         _______ _______ _______ _____ _____    ______ ____
ROOT
ATOM      1  C   UNL     1      -0.050  10.908  19.037  0.00  0.00    +0.000 A 
ATOM      2  C   UNL     1       0.095  11.667  20.207  0.00  0.00    +0.000 A 
ATOM      3  C   UNL     1      -0.997  12.353  20.748  0.00  0.00    +0.000 A 
ATOM      4  C   UNL     1      -2.246  12.285  20.132  0.00  0.00    +0.000 A 
ATOM      5  C   UNL     1      -2.393  11.537  18.973  0.00  0.00    +0.000 A 
ATOM      6  C   UNL     1      -1.291  10.887  18.410  0.00  0.00    +0.000 A 
ATOM      7  C   UNL     1      -1.720  10.181  17.161  0.00  0.00    +0.000 C 
ATOM      8  C   UNL     1      -3.140  10.747  16.945  0.00  0.00    +0.000 C 
ATOM      9  N   UNL     1      -3.567  11.336  18.220  0.00  0.00    +0.000 N 
ATOM     10  C   UNL     1      -4.865  11.816  18.346  0.00  0.00    +0.000 A 
ATOM     11  C   UNL     1      -5.484  11.865  19.597  0.00  0.00    +0.000 A 
ATOM     12  C   UNL     1      -6.813  12.295  19.725  0.00  0.00    +0.000 A 
ATOM     13  C   UNL     1      -7.489  12.666  18.567  0.00  0.00    +0.000 A 
ATOM     14  C   UNL     1      -6.811  12.610  17.362  0.00  0.00    +0.000 A 
ATOM     15  N   UNL     1      -5.536  12.183  17.230  0.00  0.00    +0.000 NA
ENDROOT
BRANCH   1  17
ATOM     16  N   UNL     1       2.029  10.834  17.787  0.00  0.00    +0.000 N 
ATOM     17  C   UNL     1       1.095  10.126  18.505  0.00  0.00    +0.000 C 
ATOM     18  O   UNL     1       1.234   8.931  18.717  0.00  0.00    +0.000 OA
ATOM     19  H   UNL     1       2.867  10.336  17.532  0.00  0.00    +0.000 HD
ATOM     20  H   UNL     1       2.070  11.842  17.813  0.00  0.00    +0.000 HD
ENDBRANCH   1  17
BRANCH  12  21
ATOM     21  C   UNL     1      -7.500  12.308  21.069  0.00  0.00    +0.000 C 
BRANCH  21  22
ATOM     22  C   UNL     1      -6.904  13.298  22.043  0.00  0.00    +0.000 A 
ATOM     23  C   UNL     1      -7.669  14.362  22.537  0.00  0.00    +0.000 A 
ATOM     24  C   UNL     1      -7.088  15.334  23.355  0.00  0.00    +0.000 A 
ATOM     25  C   UNL     1      -5.737  15.253  23.701  0.00  0.00    +0.000 A 
ATOM     26  C   UNL     1      -4.988  14.142  23.292  0.00  0.00    +0.000 A 
ATOM     27  C   UNL     1      -5.561  13.192  22.439  0.00  0.00    +0.000 A 
ATOM     28  O   UNL     1      -3.687  13.888  23.658  0.00  0.00    +0.000 OA
ATOM     29  C   UNL     1      -3.405  14.268  25.007  0.00  0.00    +0.000 C 
ATOM     30  C   UNL     1      -3.004  15.731  25.092  0.00  0.00    +0.000 C 
ATOM     31  C   UNL     1      -3.888  16.605  24.221  0.00  0.00    +0.000 C 
ATOM     32  O   UNL     1      -5.268  16.309  24.442  0.00  0.00    +0.000 OA
ENDBRANCH  21  22
ENDBRANCH  12  21
TORSDOF 3
ENDMDL
