MODEL 1
REMARK VINA RESULT:      -8.1      0.000      0.000
REMARK  Name = 
REMARK  4 active torsions:
REMARK  status: ('A' for Active; 'I' for Inactive)
REMARK    1  A    between atoms: C_1  and  N_2
REMARK    2  A    between atoms: C_7  and  O_8
REMARK    3  A    between atoms: N_12  and  C_13
REMARK    4  A    between atoms: C_13  and  C_14
REMARK                            x       y       z     vdW  Elec       q    Type
REMARK                         _______ _______ _______ _____ _____    ______ ____
ROOT
ATOM      1  C   UNL     1      -3.316  12.447  22.265  0.00  0.00    +0.000 C 
ATOM      2  N   UNL     1      -1.909  12.167  22.067  0.00  0.00    +0.000 N 
ATOM      3  C   UNL     1      -1.137  11.478  23.099  0.00  0.00    +0.000 C 
ATOM      4  C   UNL     1      -0.622  10.125  22.622  0.00  0.00    +0.000 C 
ATOM      5  N   UNL     1      -0.047  10.258  21.293  0.00  0.00    +0.000 N 
ATOM      6  C   UNL     1      -0.400  11.295  20.450  0.00  0.00    +0.000 A 
ATOM      7  C   UNL     1       0.271  11.077  19.264  0.00  0.00    +0.000 A 
ATOM      8  C   UNL     1       0.979   9.860  19.361  0.00  0.00    +0.000 A 
ATOM      9  C   UNL     1       1.771   9.090  18.422  0.00  0.00    +0.000 A 
ATOM     10  O   UNL     1       2.016   9.478  17.283  0.00  0.00    +0.000 OA
ATOM     11  N   UNL     1       2.233   7.858  18.942  0.00  0.00    +0.000 N 
ATOM     12  N   UNL     1       2.004   7.387  20.251  0.00  0.00    +0.000 NA
ATOM     13  C   UNL     1       1.292   8.120  21.057  0.00  0.00    +0.000 A 
ATOM     14  C   UNL     1       0.756   9.373  20.636  0.00  0.00    +0.000 A 
ATOM     15  C   UNL     1      -1.402  12.284  20.775  0.00  0.00    +0.000 C 
ATOM     16  O   UNL     1      -1.847  13.070  19.944  0.00  0.00    +0.000 OA
ENDROOT
BRANCH   7  17
ATOM     17  O   UNL     1       0.164  11.874  18.189  0.00  0.00    +0.000 OA
ATOM     18  H   UNL     1      -0.708  12.317  18.181  0.00  0.00    +0.000 HD
ENDBRANCH   7  17
BRANCH  11  19
ATOM     19  C   UNL     1       3.056   7.011  18.091  0.00  0.00    +0.000 C 
BRANCH  19  20
ATOM     20  C   UNL     1       2.839   5.530  18.315  0.00  0.00    +0.000 A 
ATOM     21  C   UNL     1       3.823   4.754  18.952  0.00  0.00    +0.000 A 
ATOM     22  C   UNL     1       3.592   3.407  19.230  0.00  0.00    +0.000 A 
ATOM     23  C   UNL     1       2.381   2.829  18.864  0.00  0.00    +0.000 A 
ATOM     24  F   UNL     1       2.148   1.542  19.156  0.00  0.00    +0.000 F 
ATOM     25  C   UNL     1       1.408   3.568  18.203  0.00  0.00    +0.000 A 
ATOM     26  C   UNL     1       1.640   4.916  17.920  0.00  0.00    +0.000 A 
ENDBRANCH  19  20
ENDBRANCH  11  19
TORSDOF 3
ENDMDL
MODEL 2
REMARK VINA RESULT:      -8.0      1.111      1.295
REMARK  Name = 
REMARK  4 active torsions:
REMARK  status: ('A' for Active; 'I' for Inactive)
REMARK    1  A    between atoms: C_1  and  N_2
REMARK    2  A    between atoms: C_7  and  O_8
REMARK    3  A    between atoms: N_12  and  C_13
REMARK    4  A    between atoms: C_13  and  C_14
REMARK                            x       y       z     vdW  Elec       q    Type
REMARK                         _______ _______ _______ _____ _____    ______ ____
ROOT
ATOM      1  C   UNL     1      -4.075  12.783  22.038  0.00  0.00    +0.000 C 
ATOM      2  N   UNL     1      -2.651  12.596  21.854  0.00  0.00    +0.000 N 
ATOM      3  C   UNL     1      -1.781  12.339  23.000  0.00  0.00    +0.000 C 
ATOM      4  C   UNL     1      -1.130  10.963  22.929  0.00  0.00    +0.000 C 
ATOM      5  N   UNL     1      -0.607  10.735  21.591  0.00  0.00    +0.000 N 
ATOM      6  C   UNL     1      -1.094  11.420  20.494  0.00  0.00    +0.000 A 
ATOM      7  C   UNL     1      -0.432  10.914  19.394  0.00  0.00    +0.000 A 
ATOM      8  C   UNL     1       0.409   9.863  19.817  0.00  0.00    +0.000 A 
ATOM      9  C   UNL     1       1.259   8.922  19.112  0.00  0.00    +0.000 A 
ATOM     10  O   UNL     1       1.431   8.961  17.897  0.00  0.00    +0.000 OA
ATOM     11  N   UNL     1       1.869   7.963  19.955  0.00  0.00    +0.000 N 
ATOM     12  N   UNL     1       1.726   7.899  21.356  0.00  0.00    +0.000 NA
ATOM     13  C   UNL     1       0.957   8.772  21.941  0.00  0.00    +0.000 A 
ATOM     14  C   UNL     1       0.273   9.774  21.190  0.00  0.00    +0.000 A 
ATOM     15  C   UNL     1      -2.192  12.358  20.560  0.00  0.00    +0.000 C 
ATOM     16  O   UNL     1      -2.742  12.800  19.556  0.00  0.00    +0.000 OA
ENDROOT
BRANCH   7  17
ATOM     17  O   UNL     1      -0.654  11.326  18.136  0.00  0.00    +0.000 OA
ATOM     18  H   UNL     1      -1.581  11.621  18.035  0.00  0.00    +0.000 HD
ENDBRANCH   7  17
BRANCH  11  19
ATOM     19  C   UNL     1       2.759   6.980  19.356  0.00  0.00    +0.000 C 
BRANCH  19  20
ATOM     20  C   UNL     1       2.120   5.623  19.154  0.00  0.00    +0.000 A 
ATOM     21  C   UNL     1       2.125   5.013  17.889  0.00  0.00    +0.000 A 
ATOM     22  C   UNL     1       1.606   3.729  17.719  0.00  0.00    +0.000 A 
ATOM     23  C   UNL     1       1.071   3.056  18.811  0.00  0.00    +0.000 A 
ATOM     24  F   UNL     1       0.598   1.812  18.655  0.00  0.00    +0.000 F 
ATOM     25  C   UNL     1       1.024   3.653  20.065  0.00  0.00    +0.000 A 
ATOM     26  C   UNL     1       1.539   4.940  20.236  0.00  0.00    +0.000 A 
ENDBRANCH  19  20
ENDBRANCH  11  19
TORSDOF 3
ENDMDL
MODEL 3
REMARK VINA RESULT:      -7.9      3.677      7.840
REMARK  Name = 
REMARK  4 active torsions:
REMARK  status: ('A' for Active; 'I' for Inactive)
REMARK    1  A    between atoms: C_1  and  N_2
REMARK    2  A    between atoms: C_7  and  O_8
REMARK    3  A    between atoms: N_12  and  C_13
REMARK    4  A    between atoms: C_13  and  C_14
REMARK                            x       y       z     vdW  Elec       q    Type
REMARK                         _______ _______ _______ _____ _____    ______ ____
ROOT
ATOM      1  C   UNL     1       3.646   1.779  18.056  0.00  0.00    +0.000 C 
ATOM      2  N   UNL     1       4.014   3.116  18.473  0.00  0.00    +0.000 N 
ATOM      3  C   UNL     1       4.846   3.958  17.616  0.00  0.00    +0.000 C 
ATOM      4  C   UNL     1       4.106   5.205  17.144  0.00  0.00    +0.000 C 
ATOM      5  N   UNL     1       3.413   5.819  18.265  0.00  0.00    +0.000 N 
ATOM      6  C   UNL     1       3.075   5.097  19.394  0.00  0.00    +0.000 A 
ATOM      7  C   UNL     1       2.376   5.961  20.213  0.00  0.00    +0.000 A 
ATOM      8  C   UNL     1       2.226   7.195  19.546  0.00  0.00    +0.000 A 
ATOM      9  C   UNL     1       1.523   8.422  19.866  0.00  0.00    +0.000 A 
ATOM     10  O   UNL     1       0.938   8.595  20.932  0.00  0.00    +0.000 OA
ATOM     11  N   UNL     1       1.576   9.394  18.840  0.00  0.00    +0.000 N 
ATOM     12  N   UNL     1       2.259   9.252  17.615  0.00  0.00    +0.000 NA
ATOM     13  C   UNL     1       2.881   8.133  17.380  0.00  0.00    +0.000 A 
ATOM     14  C   UNL     1       2.879   7.072  18.333  0.00  0.00    +0.000 A 
ATOM     15  C   UNL     1       3.311   3.678  19.536  0.00  0.00    +0.000 C 
ATOM     16  O   UNL     1       2.825   3.017  20.449  0.00  0.00    +0.000 OA
ENDROOT
BRANCH   7  17
ATOM     17  O   UNL     1       1.865   5.609  21.403  0.00  0.00    +0.000 OA
ATOM     18  H   UNL     1       2.582   5.475  22.054  0.00  0.00    +0.000 HD
ENDBRANCH   7  17
BRANCH  11  19
ATOM     19  C   UNL     1       0.919  10.674  19.063  0.00  0.00    +0.000 C 
BRANCH  19  20
ATOM     20  C   UNL     1      -0.525  10.704  18.609  0.00  0.00    +0.000 A 
ATOM     21  C   UNL     1      -1.426  11.632  19.157  0.00  0.00    +0.000 A 
ATOM     22  C   UNL     1      -2.735  11.712  18.683  0.00  0.00    +0.000 A 
ATOM     23  C   UNL     1      -3.150  10.859  17.668  0.00  0.00    +0.000 A 
ATOM     24  F   UNL     1      -4.400  10.955  17.193  0.00  0.00    +0.000 F 
ATOM     25  C   UNL     1      -2.287   9.910  17.134  0.00  0.00    +0.000 A 
ATOM     26  C   UNL     1      -0.976   9.826  17.611  0.00  0.00    +0.000 A 
ENDBRANCH  19  20
ENDBRANCH  11  19
TORSDOF 3
ENDMDL
MODEL 4
REMARK VINA RESULT:      -7.9      3.438      7.642
REMARK  Name = 
REMARK  4 active torsions:
REMARK  status: ('A' for Active; 'I' for Inactive)
REMARK    1  A    between atoms: C_1  and  N_2
REMARK    2  A    between atoms: C_7  and  O_8
REMARK    3  A    between atoms: N_12  and  C_13
REMARK    4  A    between atoms: C_13  and  C_14
REMARK                            x       y       z     vdW  Elec       q    Type
REMARK                         _______ _______ _______ _____ _____    ______ ____
ROOT
ATOM      1  C   UNL     1       4.824   1.968  20.461  0.00  0.00    +0.000 C 
ATOM      2  N   UNL     1       3.695   2.735  19.979  0.00  0.00    +0.000 N 
ATOM      3  C   UNL     1       2.479   2.853  20.783  0.00  0.00    +0.000 C 
ATOM      4  C   UNL     1       2.213   4.291  21.211  0.00  0.00    +0.000 C 
ATOM      5  N   UNL     1       2.388   5.183  20.076  0.00  0.00    +0.000 N 
ATOM      6  C   UNL     1       3.161   4.829  18.987  0.00  0.00    +0.000 A 
ATOM      7  C   UNL     1       3.166   5.920  18.141  0.00  0.00    +0.000 A 
ATOM      8  C   UNL     1       2.451   6.970  18.756  0.00  0.00    +0.000 A 
ATOM      9  C   UNL     1       2.203   8.352  18.393  0.00  0.00    +0.000 A 
ATOM     10  O   UNL     1       2.579   8.839  17.330  0.00  0.00    +0.000 OA
ATOM     11  N   UNL     1       1.488   9.080  19.373  0.00  0.00    +0.000 N 
ATOM     12  N   UNL     1       1.009   8.555  20.591  0.00  0.00    +0.000 NA
ATOM     13  C   UNL     1       1.254   7.306  20.866  0.00  0.00    +0.000 A 
ATOM     14  C   UNL     1       1.984   6.480  19.961  0.00  0.00    +0.000 A 
ATOM     15  C   UNL     1       3.909   3.594  18.904  0.00  0.00    +0.000 C 
ATOM     16  O   UNL     1       4.745   3.387  18.030  0.00  0.00    +0.000 OA
ENDROOT
BRANCH   7  17
ATOM     17  O   UNL     1       3.832   5.958  16.977  0.00  0.00    +0.000 OA
ATOM     18  H   UNL     1       3.372   5.417  16.305  0.00  0.00    +0.000 HD
ENDBRANCH   7  17
BRANCH  11  19
ATOM     19  C   UNL     1       1.166  10.473  19.105  0.00  0.00    +0.000 C 
BRANCH  19  20
ATOM     20  C   UNL     1      -0.295  10.709  18.786  0.00  0.00    +0.000 A 
ATOM     21  C   UNL     1      -1.034  11.670  19.496  0.00  0.00    +0.000 A 
ATOM     22  C   UNL     1      -2.357  11.944  19.150  0.00  0.00    +0.000 A 
ATOM     23  C   UNL     1      -2.948  11.251  18.099  0.00  0.00    +0.000 A 
ATOM     24  F   UNL     1      -4.211  11.533  17.748  0.00  0.00    +0.000 F 
ATOM     25  C   UNL     1      -2.247  10.272  17.405  0.00  0.00    +0.000 A 
ATOM     26  C   UNL     1      -0.924   9.995  17.754  0.00  0.00    +0.000 A 
ENDBRANCH  19  20
ENDBRANCH  11  19
TORSDOF 3
ENDMDL
MODEL 5
REMARK VINA RESULT:      -7.7      4.298      5.673
REMARK  Name = 
REMARK  4 active torsions:
REMARK  status: ('A' for Active; 'I' for Inactive)
REMARK    1  A    between atoms: C_1  and  N_2
REMARK    2  A    between atoms: C_7  and  O_8
REMARK    3  A    between atoms: N_12  and  C_13
REMARK    4  A    between atoms: C_13  and  C_14
REMARK                            x       y       z     vdW  Elec       q    Type
REMARK                         _______ _______ _______ _____ _____    ______ ____
ROOT
ATOM      1  C   UNL     1       0.846  10.763  21.065  0.00  0.00    +0.000 C 
ATOM      2  N   UNL     1       0.850   9.641  20.150  0.00  0.00    +0.000 N 
ATOM      3  C   UNL     1       0.762   9.859  18.706  0.00  0.00    +0.000 C 
ATOM      4  C   UNL     1       2.017   9.391  17.979  0.00  0.00    +0.000 C 
ATOM      5  N   UNL     1       2.405   8.075  18.463  0.00  0.00    +0.000 N 
ATOM      6  C   UNL     1       2.011   7.614  19.705  0.00  0.00    +0.000 A 
ATOM      7  C   UNL     1       2.606   6.379  19.867  0.00  0.00    +0.000 A 
ATOM      8  C   UNL     1       3.426   6.122  18.748  0.00  0.00    +0.000 A 
ATOM      9  C   UNL     1       4.343   5.050  18.410  0.00  0.00    +0.000 A 
ATOM     10  O   UNL     1       4.501   4.061  19.121  0.00  0.00    +0.000 OA
ATOM     11  N   UNL     1       5.032   5.253  17.191  0.00  0.00    +0.000 N 
ATOM     12  N   UNL     1       4.859   6.355  16.329  0.00  0.00    +0.000 NA
ATOM     13  C   UNL     1       4.018   7.286  16.676  0.00  0.00    +0.000 A 
ATOM     14  C   UNL     1       3.282   7.200  17.895  0.00  0.00    +0.000 A 
ATOM     15  C   UNL     1       1.250   8.403  20.647  0.00  0.00    +0.000 C 
ATOM     16  O   UNL     1       1.085   8.058  21.813  0.00  0.00    +0.000 OA
ENDROOT
BRANCH   7  17
ATOM     17  O   UNL     1       2.468   5.624  20.969  0.00  0.00    +0.000 OA
ATOM     18  H   UNL     1       1.589   5.197  20.979  0.00  0.00    +0.000 HD
ENDBRANCH   7  17
BRANCH  11  19
ATOM     19  C   UNL     1       5.965   4.229  16.744  0.00  0.00    +0.000 C 
BRANCH  19  20
ATOM     20  C   UNL     1       6.307   4.319  15.272  0.00  0.00    +0.000 A 
ATOM     21  C   UNL     1       7.406   5.080  14.841  0.00  0.00    +0.000 A 
ATOM     22  C   UNL     1       7.770   5.100  13.494  0.00  0.00    +0.000 A 
ATOM     23  C   UNL     1       7.029   4.368  12.573  0.00  0.00    +0.000 A 
ATOM     24  F   UNL     1       7.394   4.365  11.284  0.00  0.00    +0.000 F 
ATOM     25  C   UNL     1       5.917   3.636  12.972  0.00  0.00    +0.000 A 
ATOM     26  C   UNL     1       5.550   3.618  14.319  0.00  0.00    +0.000 A 
ENDBRANCH  19  20
ENDBRANCH  11  19
TORSDOF 3
ENDMDL
MODEL 6
REMARK VINA RESULT:      -7.7      2.240      2.810
REMARK  Name = 
REMARK  4 active torsions:
REMARK  status: ('A' for Active; 'I' for Inactive)
REMARK    1  A    between atoms: C_1  and  N_2
REMARK    2  A    between atoms: C_7  and  O_8
REMARK    3  A    between atoms: N_12  and  C_13
REMARK    4  A    between atoms: C_13  and  C_14
REMARK                            x       y       z     vdW  Elec       q    Type
REMARK                         _______ _______ _______ _____ _____    ______ ____
ROOT
ATOM      1  C   UNL     1      -2.540  12.126  22.245  0.00  0.00    +0.000 C 
ATOM      2  N   UNL     1      -1.187  11.639  22.075  0.00  0.00    +0.000 N 
ATOM      3  C   UNL     1      -0.585  10.754  23.070  0.00  0.00    +0.000 C 
ATOM      4  C   UNL     1      -0.267   9.378  22.496  0.00  0.00    +0.000 C 
ATOM      5  N   UNL     1       0.387   9.523  21.205  0.00  0.00    +0.000 N 
ATOM      6  C   UNL     1       0.244  10.668  20.443  0.00  0.00    +0.000 A 
ATOM      7  C   UNL     1       0.931  10.441  19.267  0.00  0.00    +0.000 A 
ATOM      8  C   UNL     1       1.431   9.122  19.284  0.00  0.00    +0.000 A 
ATOM      9  C   UNL     1       2.138   8.312  18.310  0.00  0.00    +0.000 A 
ATOM     10  O   UNL     1       2.497   8.746  17.219  0.00  0.00    +0.000 OA
ATOM     11  N   UNL     1       2.374   6.984  18.737  0.00  0.00    +0.000 N 
ATOM     12  N   UNL     1       2.009   6.452  19.991  0.00  0.00    +0.000 NA
ATOM     13  C   UNL     1       1.382   7.224  20.832  0.00  0.00    +0.000 A 
ATOM     14  C   UNL     1       1.072   8.576  20.502  0.00  0.00    +0.000 A 
ATOM     15  C   UNL     1      -0.605  11.776  20.817  0.00  0.00    +0.000 C 
ATOM     16  O   UNL     1      -0.878  12.688  20.042  0.00  0.00    +0.000 OA
ENDROOT
BRANCH   7  17
ATOM     17  O   UNL     1       1.003  11.329  18.263  0.00  0.00    +0.000 OA
ATOM     18  H   UNL     1       1.704  11.987  18.443  0.00  0.00    +0.000 HD
ENDBRANCH   7  17
BRANCH  11  19
ATOM     19  C   UNL     1       3.094   6.086  17.845  0.00  0.00    +0.000 C 
BRANCH  19  20
ATOM     20  C   UNL     1       4.588   6.065  18.081  0.00  0.00    +0.000 A 
ATOM     21  C   UNL     1       5.449   6.827  17.273  0.00  0.00    +0.000 A 
ATOM     22  C   UNL     1       6.818   6.869  17.539  0.00  0.00    +0.000 A 
ATOM     23  C   UNL     1       7.331   6.143  18.607  0.00  0.00    +0.000 A 
ATOM     24  F   UNL     1       8.642   6.205  18.881  0.00  0.00    +0.000 F 
ATOM     25  C   UNL     1       6.504   5.355  19.399  0.00  0.00    +0.000 A 
ATOM     26  C   UNL     1       5.134   5.308  19.131  0.00  0.00    +0.000 A 
ENDBRANCH  19  20
ENDBRANCH  11  19
TORSDOF 3
ENDMDL
MODEL 7
REMARK VINA RESULT:      -7.4      3.716      7.819
REMARK  Name = 
REMARK  4 active torsions:
REMARK  status: ('A' for Active; 'I' for Inactive)
REMARK    1  A    between atoms: C_1  and  N_2
REMARK    2  A    between atoms: C_7  and  O_8
REMARK    3  A    between atoms: N_12  and  C_13
REMARK    4  A    between atoms: C_13  and  C_14
REMARK                            x       y       z     vdW  Elec       q    Type
REMARK                         _______ _______ _______ _____ _____    ______ ____
ROOT
ATOM      1  C   UNL     1       4.605   3.400  17.012  0.00  0.00    +0.000 C 
ATOM      2  N   UNL     1       4.640   4.661  17.722  0.00  0.00    +0.000 N 
ATOM      3  C   UNL     1       5.206   5.853  17.091  0.00  0.00    +0.000 C 
ATOM      4  C   UNL     1       4.162   6.945  16.890  0.00  0.00    +0.000 C 
ATOM      5  N   UNL     1       3.375   7.104  18.103  0.00  0.00    +0.000 N 
ATOM      6  C   UNL     1       3.267   6.091  19.036  0.00  0.00    +0.000 A 
ATOM      7  C   UNL     1       2.404   6.549  20.010  0.00  0.00    +0.000 A 
ATOM      8  C   UNL     1       1.926   7.821  19.628  0.00  0.00    +0.000 A 
ATOM      9  C   UNL     1       0.950   8.730  20.196  0.00  0.00    +0.000 A 
ATOM     10  O   UNL     1       0.378   8.512  21.261  0.00  0.00    +0.000 OA
ATOM     11  N   UNL     1       0.723   9.885  19.411  0.00  0.00    +0.000 N 
ATOM     12  N   UNL     1       1.377  10.192  18.201  0.00  0.00    +0.000 NA
ATOM     13  C   UNL     1       2.251   9.345  17.738  0.00  0.00    +0.000 A 
ATOM     14  C   UNL     1       2.547   8.135  18.434  0.00  0.00    +0.000 A 
ATOM     15  C   UNL     1       3.856   4.781  18.866  0.00  0.00    +0.000 C 
ATOM     16  O   UNL     1       3.583   3.836  19.600  0.00  0.00    +0.000 OA
ENDROOT
BRANCH   7  17
ATOM     17  O   UNL     1       2.038   5.828  21.082  0.00  0.00    +0.000 OA
ATOM     18  H   UNL     1       1.609   4.995  20.799  0.00  0.00    +0.000 HD
ENDBRANCH   7  17
BRANCH  11  19
ATOM     19  C   UNL     1      -0.226  10.877  19.896  0.00  0.00    +0.000 C 
BRANCH  19  20
ATOM     20  C   UNL     1      -1.512  10.930  19.100  0.00  0.00    +0.000 A 
ATOM     21  C   UNL     1      -1.785   9.959  18.121  0.00  0.00    +0.000 A 
ATOM     22  C   UNL     1      -3.003   9.960  17.442  0.00  0.00    +0.000 A 
ATOM     23  C   UNL     1      -3.948  10.938  17.732  0.00  0.00    +0.000 A 
ATOM     24  F   UNL     1      -5.130  10.923  17.101  0.00  0.00    +0.000 F 
ATOM     25  C   UNL     1      -3.686  11.928  18.672  0.00  0.00    +0.000 A 
ATOM     26  C   UNL     1      -2.465  11.930  19.349  0.00  0.00    +0.000 A 
ENDBRANCH  19  20
ENDBRANCH  11  19
TORSDOF 3
ENDMDL
MODEL 8
REMARK VINA RESULT:      -7.3      2.715      3.530
REMARK  Name = 
REMARK  4 active torsions:
REMARK  status: ('A' for Active; 'I' for Inactive)
REMARK    1  A    between atoms: C_1  and  N_2
REMARK    2  A    between atoms: C_7  and  O_8
REMARK    3  A    between atoms: N_12  and  C_13
REMARK    4  A    between atoms: C_13  and  C_14
REMARK                            x       y       z     vdW  Elec       q    Type
REMARK                         _______ _______ _______ _____ _____    ______ ____
ROOT
ATOM      1  C   UNL     1       0.971  14.111  21.193  0.00  0.00    +0.000 C 
ATOM      2  N   UNL     1       0.478  12.910  20.552  0.00  0.00    +0.000 N 
ATOM      3  C   UNL     1       0.439  12.807  19.095  0.00  0.00    +0.000 C 
ATOM      4  C   UNL     1       1.360  11.712  18.572  0.00  0.00    +0.000 C 
ATOM      5  N   UNL     1       1.184  10.503  19.361  0.00  0.00    +0.000 N 
ATOM      6  C   UNL     1       0.677  10.542  20.646  0.00  0.00    +0.000 A 
ATOM      7  C   UNL     1       0.712   9.245  21.118  0.00  0.00    +0.000 A 
ATOM      8  C   UNL     1       1.312   8.425  20.139  0.00  0.00    +0.000 A 
ATOM      9  C   UNL     1       1.690   7.025  20.108  0.00  0.00    +0.000 A 
ATOM     10  O   UNL     1       1.449   6.250  21.030  0.00  0.00    +0.000 OA
ATOM     11  N   UNL     1       2.358   6.641  18.922  0.00  0.00    +0.000 N 
ATOM     12  N   UNL     1       2.629   7.486  17.827  0.00  0.00    +0.000 NA
ATOM     13  C   UNL     1       2.262   8.734  17.902  0.00  0.00    +0.000 A 
ATOM     14  C   UNL     1       1.599   9.239  19.060  0.00  0.00    +0.000 A 
ATOM     15  C   UNL     1       0.346  11.767  21.338  0.00  0.00    +0.000 C 
ATOM     16  O   UNL     1       0.092  11.799  22.538  0.00  0.00    +0.000 OA
ENDROOT
BRANCH   7  17
ATOM     17  O   UNL     1       0.312   8.889  22.348  0.00  0.00    +0.000 OA
ATOM     18  H   UNL     1      -0.648   9.045  22.452  0.00  0.00    +0.000 HD
ENDBRANCH   7  17
BRANCH  11  19
ATOM     19  C   UNL     1       2.766   5.251  18.775  0.00  0.00    +0.000 C 
BRANCH  19  20
ATOM     20  C   UNL     1       4.208   5.084  18.346  0.00  0.00    +0.000 A 
ATOM     21  C   UNL     1       5.256   5.400  19.227  0.00  0.00    +0.000 A 
ATOM     22  C   UNL     1       6.582   5.172  18.861  0.00  0.00    +0.000 A 
ATOM     23  C   UNL     1       6.866   4.636  17.611  0.00  0.00    +0.000 A 
ATOM     24  F   UNL     1       8.139   4.390  17.270  0.00  0.00    +0.000 F 
ATOM     25  C   UNL     1       5.848   4.347  16.710  0.00  0.00    +0.000 A 
ATOM     26  C   UNL     1       4.520   4.579  17.073  0.00  0.00    +0.000 A 
ENDBRANCH  19  20
ENDBRANCH  11  19
TORSDOF 3
ENDMDL
MODEL 9
REMARK VINA RESULT:      -7.2      3.813      8.035
REMARK  Name = 
REMARK  4 active torsions:
REMARK  status: ('A' for Active; 'I' for Inactive)
REMARK    1  A    between atoms: C_1  and  N_2
REMARK    2  A    between atoms: C_7  and  O_8
REMARK    3  A    between atoms: N_12  and  C_13
REMARK    4  A    between atoms: C_13  and  C_14
REMARK                            x       y       z     vdW  Elec       q    Type
REMARK                         _______ _______ _______ _____ _____    ______ ____
ROOT
ATOM      1  C   UNL     1       5.462   3.524  16.169  0.00  0.00    +0.000 C 
ATOM      2  N   UNL     1       5.401   4.714  16.993  0.00  0.00    +0.000 N 
ATOM      3  C   UNL     1       5.793   6.014  16.450  0.00  0.00    +0.000 C 
ATOM      4  C   UNL     1       4.625   6.992  16.406  0.00  0.00    +0.000 C 
ATOM      5  N   UNL     1       3.900   6.951  17.666  0.00  0.00    +0.000 N 
ATOM      6  C   UNL     1       3.961   5.853  18.504  0.00  0.00    +0.000 A 
ATOM      7  C   UNL     1       3.113   6.121  19.559  0.00  0.00    +0.000 A 
ATOM      8  C   UNL     1       2.476   7.358  19.324  0.00  0.00    +0.000 A 
ATOM      9  C   UNL     1       1.442   8.096  20.024  0.00  0.00    +0.000 A 
ATOM     10  O   UNL     1       0.963   7.720  21.090  0.00  0.00    +0.000 OA
ATOM     11  N   UNL     1       1.042   9.282  19.364  0.00  0.00    +0.000 N 
ATOM     12  N   UNL     1       1.585   9.768  18.157  0.00  0.00    +0.000 NA
ATOM     13  C   UNL     1       2.517   9.071  17.573  0.00  0.00    +0.000 A 
ATOM     14  C   UNL     1       2.986   7.847  18.135  0.00  0.00    +0.000 A 
ATOM     15  C   UNL     1       4.679   4.641  18.181  0.00  0.00    +0.000 C 
ATOM     16  O   UNL     1       4.557   3.609  18.835  0.00  0.00    +0.000 OA
ENDROOT
BRANCH   7  17
ATOM     17  O   UNL     1       2.894   5.271  20.574  0.00  0.00    +0.000 OA
ATOM     18  H   UNL     1       3.360   5.576  21.378  0.00  0.00    +0.000 HD
ENDBRANCH   7  17
BRANCH  11  19
ATOM     19  C   UNL     1       0.021  10.111  19.988  0.00  0.00    +0.000 C 
BRANCH  19  20
ATOM     20  C   UNL     1      -1.125  10.462  19.064  0.00  0.00    +0.000 A 
ATOM     21  C   UNL     1      -1.934  11.581  19.324  0.00  0.00    +0.000 A 
ATOM     22  C   UNL     1      -2.940  11.951  18.432  0.00  0.00    +0.000 A 
ATOM     23  C   UNL     1      -3.148  11.197  17.283  0.00  0.00    +0.000 A 
ATOM     24  F   UNL     1      -4.096  11.568  16.411  0.00  0.00    +0.000 F 
ATOM     25  C   UNL     1      -2.383  10.066  17.022  0.00  0.00    +0.000 A 
ATOM     26  C   UNL     1      -1.378   9.693  17.917  0.00  0.00    +0.000 A 
ENDBRANCH  19  20
ENDBRANCH  11  19
TORSDOF 3
ENDMDL
