MODEL 1
REMARK VINA RESULT:      -8.7      0.000      0.000
REMARK  Name = 
REMARK  6 active torsions:
REMARK  status: ('A' for Active; 'I' for Inactive)
REMARK    1  A    between atoms: O_1  and  C_2
REMARK    2  A    between atoms: C_7  and  C_8
REMARK    3  A    between atoms: C_8  and  C_9
REMARK    4  A    between atoms: C_13  and  O_14
REMARK    5  A    between atoms: O_14  and  C_15
REMARK    6  A    between atoms: C_15  and  C_16
REMARK                            x       y       z     vdW  Elec       q    Type
REMARK                         _______ _______ _______ _____ _____    ______ ____
ROOT
ATOM      1  C   UNL     1       3.336   3.356  17.893  0.00  0.00    +0.000 A 
ATOM      2  C   UNL     1       2.385   2.335  17.768  0.00  0.00    +0.000 A 
ATOM      3  C   UNL     1       1.242   2.334  18.564  0.00  0.00    +0.000 A 
ATOM      4  C   UNL     1       1.017   3.372  19.467  0.00  0.00    +0.000 A 
ATOM      5  C   UNL     1       1.904   4.447  19.539  0.00  0.00    +0.000 A 
ATOM      6  C   UNL     1       3.073   4.425  18.769  0.00  0.00    +0.000 A 
ENDROOT
BRANCH   1   7
ATOM      7  C   UNL     1       4.642   3.259  17.137  0.00  0.00    +0.000 C 
BRANCH   7  13
ATOM      8  C   UNL     1       7.472   7.265  17.719  0.00  0.00    +0.000 A 
ATOM      9  N   UNL     1       8.130   6.780  18.826  0.00  0.00    +0.000 N 
ATOM     10  C   UNL     1       7.829   5.523  19.297  0.00  0.00    +0.000 A 
ATOM     11  N   UNL     1       6.984   4.678  18.788  0.00  0.00    +0.000 NA
ATOM     12  C   UNL     1       6.335   5.130  17.658  0.00  0.00    +0.000 A 
ATOM     13  C   UNL     1       5.373   4.528  16.952  0.00  0.00    +0.000 A 
ATOM     14  C   UNL     1       5.082   5.563  15.952  0.00  0.00    +0.000 A 
ATOM     15  N   UNL     1       5.765   6.667  16.032  0.00  0.00    +0.000 NA
ATOM     16  C   UNL     1       6.584   6.457  17.115  0.00  0.00    +0.000 A 
ATOM     17  H   UNL     1       8.700   7.407  19.374  0.00  0.00    +0.000 HD
BRANCH   8  18
ATOM     18  O   UNL     1       7.722   8.543  17.295  0.00  0.00    +0.000 OA
ATOM     19  H   UNL     1       7.329   8.650  16.418  0.00  0.00    +0.000 HD
ENDBRANCH   8  18
ENDBRANCH   7  13
ENDBRANCH   1   7
BRANCH   5  20
ATOM     20  O   UNL     1       1.725   5.551  20.336  0.00  0.00    +0.000 OA
BRANCH  20  21
ATOM     21  C   UNL     1       2.631   6.631  20.077  0.00  0.00    +0.000 C 
BRANCH  21  22
ATOM     22  C   UNL     1       1.934   7.883  19.599  0.00  0.00    +0.000 A 
ATOM     23  C   UNL     1       1.201   8.699  20.472  0.00  0.00    +0.000 A 
ATOM     24  C   UNL     1       0.676   9.914  20.029  0.00  0.00    +0.000 A 
ATOM     25  C   UNL     1       0.885  10.329  18.715  0.00  0.00    +0.000 A 
ATOM     26  C   UNL     1       1.610   9.529  17.837  0.00  0.00    +0.000 A 
ATOM     27  C   UNL     1       2.134   8.312  18.277  0.00  0.00    +0.000 A 
ENDBRANCH  21  22
ENDBRANCH  20  21
ENDBRANCH   5  20
TORSDOF 6
ENDMDL
MODEL 2
REMARK VINA RESULT:      -8.5      3.148      5.249
REMARK  Name = 
REMARK  6 active torsions:
REMARK  status: ('A' for Active; 'I' for Inactive)
REMARK    1  A    between atoms: O_1  and  C_2
REMARK    2  A    between atoms: C_7  and  C_8
REMARK    3  A    between atoms: C_8  and  C_9
REMARK    4  A    between atoms: C_13  and  O_14
REMARK    5  A    between atoms: O_14  and  C_15
REMARK    6  A    between atoms: C_15  and  C_16
REMARK                            x       y       z     vdW  Elec       q    Type
REMARK                         _______ _______ _______ _____ _____    ______ ____
ROOT
ATOM      1  C   UNL     1       2.522   7.610  18.567  0.00  0.00    +0.000 A 
ATOM      2  C   UNL     1       2.310   7.091  19.851  0.00  0.00    +0.000 A 
ATOM      3  C   UNL     1       1.537   7.790  20.775  0.00  0.00    +0.000 A 
ATOM      4  C   UNL     1       0.937   8.995  20.416  0.00  0.00    +0.000 A 
ATOM      5  C   UNL     1       1.057   9.482  19.113  0.00  0.00    +0.000 A 
ATOM      6  C   UNL     1       1.869   8.800  18.200  0.00  0.00    +0.000 A 
ENDROOT
BRANCH   1   7
ATOM      7  C   UNL     1       3.489   6.920  17.631  0.00  0.00    +0.000 C 
BRANCH   7  13
ATOM      8  C   UNL     1       4.260   2.308  19.222  0.00  0.00    +0.000 A 
ATOM      9  N   UNL     1       3.055   1.826  18.764  0.00  0.00    +0.000 N 
ATOM     10  C   UNL     1       2.195   2.671  18.099  0.00  0.00    +0.000 A 
ATOM     11  N   UNL     1       2.398   3.919  17.804  0.00  0.00    +0.000 NA
ATOM     12  C   UNL     1       3.613   4.416  18.225  0.00  0.00    +0.000 A 
ATOM     13  C   UNL     1       4.082   5.664  18.131  0.00  0.00    +0.000 A 
ATOM     14  C   UNL     1       5.367   5.524  18.828  0.00  0.00    +0.000 A 
ATOM     15  N   UNL     1       5.655   4.348  19.301  0.00  0.00    +0.000 NA
ATOM     16  C   UNL     1       4.564   3.589  18.955  0.00  0.00    +0.000 A 
ATOM     17  H   UNL     1       2.744   0.913  19.062  0.00  0.00    +0.000 HD
BRANCH   8  18
ATOM     18  O   UNL     1       5.082   1.485  19.945  0.00  0.00    +0.000 OA
ATOM     19  H   UNL     1       5.103   0.623  19.508  0.00  0.00    +0.000 HD
ENDBRANCH   8  18
ENDBRANCH   7  13
ENDBRANCH   1   7
BRANCH   5  20
ATOM     20  O   UNL     1       0.437  10.614  18.645  0.00  0.00    +0.000 OA
BRANCH  20  21
ATOM     21  C   UNL     1      -0.898  10.810  19.129  0.00  0.00    +0.000 C 
BRANCH  21  22
ATOM     22  C   UNL     1      -1.929  10.818  18.025  0.00  0.00    +0.000 A 
ATOM     23  C   UNL     1      -1.814   9.988  16.901  0.00  0.00    +0.000 A 
ATOM     24  C   UNL     1      -2.845   9.924  15.962  0.00  0.00    +0.000 A 
ATOM     25  C   UNL     1      -4.002  10.681  16.140  0.00  0.00    +0.000 A 
ATOM     26  C   UNL     1      -4.129  11.511  17.251  0.00  0.00    +0.000 A 
ATOM     27  C   UNL     1      -3.099  11.577  18.190  0.00  0.00    +0.000 A 
ENDBRANCH  21  22
ENDBRANCH  20  21
ENDBRANCH   5  20
TORSDOF 6
ENDMDL
MODEL 3
REMARK VINA RESULT:      -8.3      3.358      6.929
REMARK  Name = 
REMARK  6 active torsions:
REMARK  status: ('A' for Active; 'I' for Inactive)
REMARK    1  A    between atoms: O_1  and  C_2
REMARK    2  A    between atoms: C_7  and  C_8
REMARK    3  A    between atoms: C_8  and  C_9
REMARK    4  A    between atoms: C_13  and  O_14
REMARK    5  A    between atoms: O_14  and  C_15
REMARK    6  A    between atoms: C_15  and  C_16
REMARK                            x       y       z     vdW  Elec       q    Type
REMARK                         _______ _______ _______ _____ _____    ______ ____
ROOT
ATOM      1  C   UNL     1       5.824   6.183  17.544  0.00  0.00    +0.000 A 
ATOM      2  C   UNL     1       6.224   5.385  18.624  0.00  0.00    +0.000 A 
ATOM      3  C   UNL     1       7.429   5.634  19.277  0.00  0.00    +0.000 A 
ATOM      4  C   UNL     1       8.229   6.705  18.883  0.00  0.00    +0.000 A 
ATOM      5  C   UNL     1       7.804   7.569  17.873  0.00  0.00    +0.000 A 
ATOM      6  C   UNL     1       6.614   7.292  17.191  0.00  0.00    +0.000 A 
ENDROOT
BRANCH   1   7
ATOM      7  C   UNL     1       4.595   5.804  16.749  0.00  0.00    +0.000 C 
BRANCH   7  13
ATOM      8  C   UNL     1       1.332   4.104  20.044  0.00  0.00    +0.000 A 
ATOM      9  N   UNL     1       1.245   5.287  20.740  0.00  0.00    +0.000 N 
ATOM     10  C   UNL     1       1.974   6.377  20.319  0.00  0.00    +0.000 A 
ATOM     11  N   UNL     1       2.746   6.446  19.278  0.00  0.00    +0.000 NA
ATOM     12  C   UNL     1       2.825   5.280  18.546  0.00  0.00    +0.000 A 
ATOM     13  C   UNL     1       3.578   5.018  17.473  0.00  0.00    +0.000 A 
ATOM     14  C   UNL     1       3.246   3.605  17.248  0.00  0.00    +0.000 A 
ATOM     15  N   UNL     1       2.405   3.059  18.076  0.00  0.00    +0.000 NA
ATOM     16  C   UNL     1       2.102   4.080  18.942  0.00  0.00    +0.000 A 
ATOM     17  H   UNL     1       0.784   5.298  21.638  0.00  0.00    +0.000 HD
BRANCH   8  18
ATOM     18  O   UNL     1       0.663   3.002  20.505  0.00  0.00    +0.000 OA
ATOM     19  H   UNL     1       0.325   3.204  21.389  0.00  0.00    +0.000 HD
ENDBRANCH   8  18
ENDBRANCH   7  13
ENDBRANCH   1   7
BRANCH   5  20
ATOM     20  O   UNL     1       8.483   8.694  17.474  0.00  0.00    +0.000 OA
BRANCH  20  21
ATOM     21  C   UNL     1       8.070   9.905  18.121  0.00  0.00    +0.000 C 
BRANCH  21  22
ATOM     22  C   UNL     1       9.227  10.695  18.686  0.00  0.00    +0.000 A 
ATOM     23  C   UNL     1       9.375  10.903  20.064  0.00  0.00    +0.000 A 
ATOM     24  C   UNL     1      10.520  11.526  20.565  0.00  0.00    +0.000 A 
ATOM     25  C   UNL     1      11.529  11.938  19.696  0.00  0.00    +0.000 A 
ATOM     26  C   UNL     1      11.394  11.738  18.325  0.00  0.00    +0.000 A 
ATOM     27  C   UNL     1      10.250  11.118  17.822  0.00  0.00    +0.000 A 
ENDBRANCH  21  22
ENDBRANCH  20  21
ENDBRANCH   5  20
TORSDOF 6
ENDMDL
MODEL 4
REMARK VINA RESULT:      -8.3      0.914      1.062
REMARK  Name = 
REMARK  6 active torsions:
REMARK  status: ('A' for Active; 'I' for Inactive)
REMARK    1  A    between atoms: O_1  and  C_2
REMARK    2  A    between atoms: C_7  and  C_8
REMARK    3  A    between atoms: C_8  and  C_9
REMARK    4  A    between atoms: C_13  and  O_14
REMARK    5  A    between atoms: O_14  and  C_15
REMARK    6  A    between atoms: C_15  and  C_16
REMARK                            x       y       z     vdW  Elec       q    Type
REMARK                         _______ _______ _______ _____ _____    ______ ____
ROOT
ATOM      1  C   UNL     1       3.348   3.690  18.727  0.00  0.00    +0.000 A 
ATOM      2  C   UNL     1       2.977   2.554  19.458  0.00  0.00    +0.000 A 
ATOM      3  C   UNL     1       2.259   2.682  20.645  0.00  0.00    +0.000 A 
ATOM      4  C   UNL     1       1.872   3.943  21.096  0.00  0.00    +0.000 A 
ATOM      5  C   UNL     1       2.150   5.079  20.334  0.00  0.00    +0.000 A 
ATOM      6  C   UNL     1       2.907   4.952  19.164  0.00  0.00    +0.000 A 
ENDROOT
BRANCH   1   7
ATOM      7  C   UNL     1       4.258   3.544  17.528  0.00  0.00    +0.000 C 
BRANCH   7  13
ATOM      8  C   UNL     1       7.549   7.218  17.774  0.00  0.00    +0.000 A 
ATOM      9  N   UNL     1       8.163   6.745  18.911  0.00  0.00    +0.000 N 
ATOM     10  C   UNL     1       7.724   5.573  19.482  0.00  0.00    +0.000 A 
ATOM     11  N   UNL     1       6.778   4.797  19.046  0.00  0.00    +0.000 NA
ATOM     12  C   UNL     1       6.168   5.234  17.889  0.00  0.00    +0.000 A 
ATOM     13  C   UNL     1       5.131   4.698  17.239  0.00  0.00    +0.000 A 
ATOM     14  C   UNL     1       4.948   5.681  16.163  0.00  0.00    +0.000 A 
ATOM     15  N   UNL     1       5.757   6.698  16.151  0.00  0.00    +0.000 NA
ATOM     16  C   UNL     1       6.562   6.477  17.241  0.00  0.00    +0.000 A 
ATOM     17  H   UNL     1       8.812   7.341  19.405  0.00  0.00    +0.000 HD
BRANCH   8  18
ATOM     18  O   UNL     1       7.941   8.421  17.249  0.00  0.00    +0.000 OA
ATOM     19  H   UNL     1       7.935   9.075  17.961  0.00  0.00    +0.000 HD
ENDBRANCH   8  18
ENDBRANCH   7  13
ENDBRANCH   1   7
BRANCH   5  20
ATOM     20  O   UNL     1       1.739   6.350  20.654  0.00  0.00    +0.000 OA
BRANCH  20  21
ATOM     21  C   UNL     1       2.201   7.372  19.762  0.00  0.00    +0.000 C 
BRANCH  21  22
ATOM     22  C   UNL     1       1.333   8.609  19.783  0.00  0.00    +0.000 A 
ATOM     23  C   UNL     1       0.631   8.998  20.932  0.00  0.00    +0.000 A 
ATOM     24  C   UNL     1      -0.058  10.211  20.961  0.00  0.00    +0.000 A 
ATOM     25  C   UNL     1      -0.046  11.050  19.848  0.00  0.00    +0.000 A 
ATOM     26  C   UNL     1       0.647  10.676  18.700  0.00  0.00    +0.000 A 
ATOM     27  C   UNL     1       1.335   9.462  18.668  0.00  0.00    +0.000 A 
ENDBRANCH  21  22
ENDBRANCH  20  21
ENDBRANCH   5  20
TORSDOF 6
ENDMDL
MODEL 5
REMARK VINA RESULT:      -8.1      3.489      6.945
REMARK  Name = 
REMARK  6 active torsions:
REMARK  status: ('A' for Active; 'I' for Inactive)
REMARK    1  A    between atoms: O_1  and  C_2
REMARK    2  A    between atoms: C_7  and  C_8
REMARK    3  A    between atoms: C_8  and  C_9
REMARK    4  A    between atoms: C_13  and  O_14
REMARK    5  A    between atoms: O_14  and  C_15
REMARK    6  A    between atoms: C_15  and  C_16
REMARK                            x       y       z     vdW  Elec       q    Type
REMARK                         _______ _______ _______ _____ _____    ______ ____
ROOT
ATOM      1  C   UNL     1       5.930   6.090  17.478  0.00  0.00    +0.000 A 
ATOM      2  C   UNL     1       6.543   5.221  18.391  0.00  0.00    +0.000 A 
ATOM      3  C   UNL     1       7.732   5.583  19.020  0.00  0.00    +0.000 A 
ATOM      4  C   UNL     1       8.302   6.831  18.773  0.00  0.00    +0.000 A 
ATOM      5  C   UNL     1       7.658   7.747  17.940  0.00  0.00    +0.000 A 
ATOM      6  C   UNL     1       6.487   7.365  17.277  0.00  0.00    +0.000 A 
ENDROOT
BRANCH   1   7
ATOM      7  C   UNL     1       4.730   5.619  16.688  0.00  0.00    +0.000 C 
BRANCH   7  13
ATOM      8  C   UNL     1       1.402   2.718  18.901  0.00  0.00    +0.000 A 
ATOM      9  N   UNL     1       2.117   1.558  18.712  0.00  0.00    +0.000 N 
ATOM     10  C   UNL     1       3.341   1.611  18.085  0.00  0.00    +0.000 A 
ATOM     11  N   UNL     1       3.956   2.672  17.657  0.00  0.00    +0.000 NA
ATOM     12  C   UNL     1       3.272   3.851  17.864  0.00  0.00    +0.000 A 
ATOM     13  C   UNL     1       3.606   5.087  17.482  0.00  0.00    +0.000 A 
ATOM     14  C   UNL     1       2.432   5.840  17.943  0.00  0.00    +0.000 A 
ATOM     15  N   UNL     1       1.488   5.161  18.525  0.00  0.00    +0.000 NA
ATOM     16  C   UNL     1       1.961   3.872  18.499  0.00  0.00    +0.000 A 
ATOM     17  H   UNL     1       1.669   0.670  18.882  0.00  0.00    +0.000 HD
BRANCH   8  18
ATOM     18  O   UNL     1       0.153   2.654  19.460  0.00  0.00    +0.000 OA
ATOM     19  H   UNL     1      -0.498   2.710  18.748  0.00  0.00    +0.000 HD
ENDBRANCH   8  18
ENDBRANCH   7  13
ENDBRANCH   1   7
BRANCH   5  20
ATOM     20  O   UNL     1       8.100   9.026  17.702  0.00  0.00    +0.000 OA
BRANCH  20  21
ATOM     21  C   UNL     1       8.954   9.564  18.719  0.00  0.00    +0.000 C 
BRANCH  21  22
ATOM     22  C   UNL     1       9.414  10.972  18.418  0.00  0.00    +0.000 A 
ATOM     23  C   UNL     1      10.749  11.364  18.585  0.00  0.00    +0.000 A 
ATOM     24  C   UNL     1      11.168  12.632  18.178  0.00  0.00    +0.000 A 
ATOM     25  C   UNL     1      10.261  13.516  17.595  0.00  0.00    +0.000 A 
ATOM     26  C   UNL     1       8.931  13.139  17.424  0.00  0.00    +0.000 A 
ATOM     27  C   UNL     1       8.510  11.873  17.832  0.00  0.00    +0.000 A 
ENDBRANCH  21  22
ENDBRANCH  20  21
ENDBRANCH   5  20
TORSDOF 6
ENDMDL
MODEL 6
REMARK VINA RESULT:      -8.0      1.226      1.947
REMARK  Name = 
REMARK  6 active torsions:
REMARK  status: ('A' for Active; 'I' for Inactive)
REMARK    1  A    between atoms: O_1  and  C_2
REMARK    2  A    between atoms: C_7  and  C_8
REMARK    3  A    between atoms: C_8  and  C_9
REMARK    4  A    between atoms: C_13  and  O_14
REMARK    5  A    between atoms: O_14  and  C_15
REMARK    6  A    between atoms: C_15  and  C_16
REMARK                            x       y       z     vdW  Elec       q    Type
REMARK                         _______ _______ _______ _____ _____    ______ ____
ROOT
ATOM      1  C   UNL     1       2.979   4.198  18.376  0.00  0.00    +0.000 A 
ATOM      2  C   UNL     1       2.138   3.178  18.840  0.00  0.00    +0.000 A 
ATOM      3  C   UNL     1       1.268   3.408  19.904  0.00  0.00    +0.000 A 
ATOM      4  C   UNL     1       1.203   4.669  20.492  0.00  0.00    +0.000 A 
ATOM      5  C   UNL     1       1.963   5.724  19.985  0.00  0.00    +0.000 A 
ATOM      6  C   UNL     1       2.866   5.480  18.944  0.00  0.00    +0.000 A 
ENDROOT
BRANCH   1   7
ATOM      7  C   UNL     1       4.024   3.888  17.329  0.00  0.00    +0.000 C 
BRANCH   7  13
ATOM      8  C   UNL     1       7.656   7.207  17.761  0.00  0.00    +0.000 A 
ATOM      9  N   UNL     1       8.149   6.685  18.934  0.00  0.00    +0.000 N 
ATOM     10  C   UNL     1       7.557   5.569  19.481  0.00  0.00    +0.000 A 
ATOM     11  N   UNL     1       6.564   4.891  18.992  0.00  0.00    +0.000 NA
ATOM     12  C   UNL     1       6.073   5.377  17.799  0.00  0.00    +0.000 A 
ATOM     13  C   UNL     1       5.027   4.944  17.089  0.00  0.00    +0.000 A 
ATOM     14  C   UNL     1       5.011   5.929  16.000  0.00  0.00    +0.000 A 
ATOM     15  N   UNL     1       5.920   6.858  16.034  0.00  0.00    +0.000 NA
ATOM     16  C   UNL     1       6.632   6.567  17.171  0.00  0.00    +0.000 A 
ATOM     17  H   UNL     1       8.825   7.216  19.464  0.00  0.00    +0.000 HD
BRANCH   8  18
ATOM     18  O   UNL     1       8.200   8.359  17.256  0.00  0.00    +0.000 OA
ATOM     19  H   UNL     1       7.756   8.559  16.421  0.00  0.00    +0.000 HD
ENDBRANCH   8  18
ENDBRANCH   7  13
ENDBRANCH   1   7
BRANCH   5  20
ATOM     20  O   UNL     1       1.905   7.017  20.444  0.00  0.00    +0.000 OA
BRANCH  20  21
ATOM     21  C   UNL     1       0.838   7.278  21.366  0.00  0.00    +0.000 C 
BRANCH  21  22
ATOM     22  C   UNL     1       0.444   8.736  21.412  0.00  0.00    +0.000 A 
ATOM     23  C   UNL     1       0.464   9.543  20.267  0.00  0.00    +0.000 A 
ATOM     24  C   UNL     1      -0.026  10.849  20.314  0.00  0.00    +0.000 A 
ATOM     25  C   UNL     1      -0.549  11.358  21.503  0.00  0.00    +0.000 A 
ATOM     26  C   UNL     1      -0.575  10.567  22.648  0.00  0.00    +0.000 A 
ATOM     27  C   UNL     1      -0.083   9.262  22.603  0.00  0.00    +0.000 A 
ENDBRANCH  21  22
ENDBRANCH  20  21
ENDBRANCH   5  20
TORSDOF 6
ENDMDL
MODEL 7
REMARK VINA RESULT:      -8.0      2.633      4.289
REMARK  Name = 
REMARK  6 active torsions:
REMARK  status: ('A' for Active; 'I' for Inactive)
REMARK    1  A    between atoms: O_1  and  C_2
REMARK    2  A    between atoms: C_7  and  C_8
REMARK    3  A    between atoms: C_8  and  C_9
REMARK    4  A    between atoms: C_13  and  O_14
REMARK    5  A    between atoms: O_14  and  C_15
REMARK    6  A    between atoms: C_15  and  C_16
REMARK                            x       y       z     vdW  Elec       q    Type
REMARK                         _______ _______ _______ _____ _____    ______ ____
ROOT
ATOM      1  C   UNL     1       2.152   7.000  18.671  0.00  0.00    +0.000 A 
ATOM      2  C   UNL     1       2.048   6.744  20.044  0.00  0.00    +0.000 A 
ATOM      3  C   UNL     1       1.667   7.755  20.924  0.00  0.00    +0.000 A 
ATOM      4  C   UNL     1       1.349   9.022  20.438  0.00  0.00    +0.000 A 
ATOM      5  C   UNL     1       1.355   9.272  19.064  0.00  0.00    +0.000 A 
ATOM      6  C   UNL     1       1.779   8.267  18.187  0.00  0.00    +0.000 A 
ENDROOT
BRANCH   1   7
ATOM      7  C   UNL     1       2.716   5.940  17.753  0.00  0.00    +0.000 C 
BRANCH   7  13
ATOM      8  C   UNL     1       7.429   4.552  17.246  0.00  0.00    +0.000 A 
ATOM      9  N   UNL     1       7.460   4.746  15.884  0.00  0.00    +0.000 N 
ATOM     10  C   UNL     1       6.337   5.214  15.240  0.00  0.00    +0.000 A 
ATOM     11  N   UNL     1       5.204   5.545  15.784  0.00  0.00    +0.000 NA
ATOM     12  C   UNL     1       5.160   5.388  17.153  0.00  0.00    +0.000 A 
ATOM     13  C   UNL     1       4.129   5.577  17.981  0.00  0.00    +0.000 A 
ATOM     14  C   UNL     1       4.727   5.168  19.258  0.00  0.00    +0.000 A 
ATOM     15  N   UNL     1       5.964   4.767  19.226  0.00  0.00    +0.000 NA
ATOM     16  C   UNL     1       6.301   4.876  17.900  0.00  0.00    +0.000 A 
ATOM     17  H   UNL     1       8.241   4.390  15.353  0.00  0.00    +0.000 HD
BRANCH   8  18
ATOM     18  O   UNL     1       8.524   4.019  17.873  0.00  0.00    +0.000 OA
ATOM     19  H   UNL     1       8.374   4.064  18.827  0.00  0.00    +0.000 HD
ENDBRANCH   8  18
ENDBRANCH   7  13
ENDBRANCH   1   7
BRANCH   5  20
ATOM     20  O   UNL     1       0.980  10.460  18.488  0.00  0.00    +0.000 OA
BRANCH  20  21
ATOM     21  C   UNL     1      -0.111  11.124  19.139  0.00  0.00    +0.000 C 
BRANCH  21  22
ATOM     22  C   UNL     1      -1.435  10.897  18.447  0.00  0.00    +0.000 A 
ATOM     23  C   UNL     1      -2.566  11.671  18.745  0.00  0.00    +0.000 A 
ATOM     24  C   UNL     1      -3.738  11.524  18.001  0.00  0.00    +0.000 A 
ATOM     25  C   UNL     1      -3.789  10.612  16.948  0.00  0.00    +0.000 A 
ATOM     26  C   UNL     1      -2.674   9.836  16.642  0.00  0.00    +0.000 A 
ATOM     27  C   UNL     1      -1.502   9.979  17.386  0.00  0.00    +0.000 A 
ENDBRANCH  21  22
ENDBRANCH  20  21
ENDBRANCH   5  20
TORSDOF 6
ENDMDL
MODEL 8
REMARK VINA RESULT:      -7.9      3.238      5.716
REMARK  Name = 
REMARK  6 active torsions:
REMARK  status: ('A' for Active; 'I' for Inactive)
REMARK    1  A    between atoms: O_1  and  C_2
REMARK    2  A    between atoms: C_7  and  C_8
REMARK    3  A    between atoms: C_8  and  C_9
REMARK    4  A    between atoms: C_13  and  O_14
REMARK    5  A    between atoms: O_14  and  C_15
REMARK    6  A    between atoms: C_15  and  C_16
REMARK                            x       y       z     vdW  Elec       q    Type
REMARK                         _______ _______ _______ _____ _____    ______ ____
ROOT
ATOM      1  C   UNL     1       2.145   7.514  19.574  0.00  0.00    +0.000 A 
ATOM      2  C   UNL     1       2.863   7.545  18.371  0.00  0.00    +0.000 A 
ATOM      3  C   UNL     1       2.673   8.584  17.462  0.00  0.00    +0.000 A 
ATOM      4  C   UNL     1       1.793   9.622  17.760  0.00  0.00    +0.000 A 
ATOM      5  C   UNL     1       1.139   9.659  18.993  0.00  0.00    +0.000 A 
ATOM      6  C   UNL     1       1.299   8.594  19.886  0.00  0.00    +0.000 A 
ENDROOT
BRANCH   1   7
ATOM      7  C   UNL     1       2.245   6.304  20.474  0.00  0.00    +0.000 C 
BRANCH   7  13
ATOM      8  C   UNL     1       3.181   1.815  18.640  0.00  0.00    +0.000 A 
ATOM      9  N   UNL     1       1.857   1.477  18.482  0.00  0.00    +0.000 N 
ATOM     10  C   UNL     1       0.880   2.387  18.820  0.00  0.00    +0.000 A 
ATOM     11  N   UNL     1       1.056   3.596  19.259  0.00  0.00    +0.000 NA
ATOM     12  C   UNL     1       2.376   3.969  19.394  0.00  0.00    +0.000 A 
ATOM     13  C   UNL     1       2.875   5.110  19.879  0.00  0.00    +0.000 A 
ATOM     14  C   UNL     1       4.315   4.826  19.815  0.00  0.00    +0.000 A 
ATOM     15  N   UNL     1       4.664   3.658  19.361  0.00  0.00    +0.000 NA
ATOM     16  C   UNL     1       3.464   3.053  19.080  0.00  0.00    +0.000 A 
ATOM     17  H   UNL     1       1.613   0.519  18.281  0.00  0.00    +0.000 HD
BRANCH   8  18
ATOM     18  O   UNL     1       4.149   0.884  18.371  0.00  0.00    +0.000 OA
ATOM     19  H   UNL     1       4.040   0.595  17.455  0.00  0.00    +0.000 HD
ENDBRANCH   8  18
ENDBRANCH   7  13
ENDBRANCH   1   7
BRANCH   5  20
ATOM     20  O   UNL     1       0.318  10.679  19.407  0.00  0.00    +0.000 OA
BRANCH  20  21
ATOM     21  C   UNL     1      -1.051  10.305  19.604  0.00  0.00    +0.000 C 
BRANCH  21  22
ATOM     22  C   UNL     1      -1.911  10.558  18.387  0.00  0.00    +0.000 A 
ATOM     23  C   UNL     1      -1.755   9.819  17.206  0.00  0.00    +0.000 A 
ATOM     24  C   UNL     1      -2.646   9.987  16.145  0.00  0.00    +0.000 A 
ATOM     25  C   UNL     1      -3.705  10.887  16.256  0.00  0.00    +0.000 A 
ATOM     26  C   UNL     1      -3.871  11.628  17.423  0.00  0.00    +0.000 A 
ATOM     27  C   UNL     1      -2.980  11.463  18.484  0.00  0.00    +0.000 A 
ENDBRANCH  21  22
ENDBRANCH  20  21
ENDBRANCH   5  20
TORSDOF 6
ENDMDL
MODEL 9
REMARK VINA RESULT:      -7.9      4.873      9.030
REMARK  Name = 
REMARK  6 active torsions:
REMARK  status: ('A' for Active; 'I' for Inactive)
REMARK    1  A    between atoms: O_1  and  C_2
REMARK    2  A    between atoms: C_7  and  C_8
REMARK    3  A    between atoms: C_8  and  C_9
REMARK    4  A    between atoms: C_13  and  O_14
REMARK    5  A    between atoms: O_14  and  C_15
REMARK    6  A    between atoms: C_15  and  C_16
REMARK                            x       y       z     vdW  Elec       q    Type
REMARK                         _______ _______ _______ _____ _____    ______ ____
ROOT
ATOM      1  C   UNL     1       0.409  10.629  19.508  0.00  0.00    +0.000 A 
ATOM      2  C   UNL     1       0.288  10.515  20.899  0.00  0.00    +0.000 A 
ATOM      3  C   UNL     1       0.758   9.380  21.558  0.00  0.00    +0.000 A 
ATOM      4  C   UNL     1       1.387   8.365  20.840  0.00  0.00    +0.000 A 
ATOM      5  C   UNL     1       1.602   8.502  19.467  0.00  0.00    +0.000 A 
ATOM      6  C   UNL     1       1.092   9.623  18.802  0.00  0.00    +0.000 A 
ENDROOT
BRANCH   1   7
ATOM      7  C   UNL     1      -0.244  11.790  18.793  0.00  0.00    +0.000 C 
BRANCH   7  13
ATOM      8  C   UNL     1      -4.843  11.355  17.045  0.00  0.00    +0.000 A 
ATOM      9  N   UNL     1      -4.456  10.820  15.838  0.00  0.00    +0.000 N 
ATOM     10  C   UNL     1      -3.120  10.603  15.589  0.00  0.00    +0.000 A 
ATOM     11  N   UNL     1      -2.128  10.819  16.400  0.00  0.00    +0.000 NA
ATOM     12  C   UNL     1      -2.494  11.325  17.629  0.00  0.00    +0.000 A 
ATOM     13  C   UNL     1      -1.710  11.709  18.640  0.00  0.00    +0.000 A 
ATOM     14  C   UNL     1      -2.714  12.209  19.588  0.00  0.00    +0.000 A 
ATOM     15  N   UNL     1      -3.957  12.153  19.212  0.00  0.00    +0.000 NA
ATOM     16  C   UNL     1      -3.886  11.603  17.956  0.00  0.00    +0.000 A 
ATOM     17  H   UNL     1      -5.132  10.747  15.092  0.00  0.00    +0.000 HD
BRANCH   8  18
ATOM     18  O   UNL     1      -6.166  11.636  17.263  0.00  0.00    +0.000 OA
ATOM     19  H   UNL     1      -6.661  10.808  17.204  0.00  0.00    +0.000 HD
ENDBRANCH   8  18
ENDBRANCH   7  13
ENDBRANCH   1   7
BRANCH   5  20
ATOM     20  O   UNL     1       2.282   7.595  18.692  0.00  0.00    +0.000 OA
BRANCH  20  21
ATOM     21  C   UNL     1       2.894   6.523  19.421  0.00  0.00    +0.000 C 
BRANCH  21  22
ATOM     22  C   UNL     1       2.125   5.226  19.316  0.00  0.00    +0.000 A 
ATOM     23  C   UNL     1       2.087   4.485  18.128  0.00  0.00    +0.000 A 
ATOM     24  C   UNL     1       1.477   3.230  18.097  0.00  0.00    +0.000 A 
ATOM     25  C   UNL     1       0.908   2.700  19.255  0.00  0.00    +0.000 A 
ATOM     26  C   UNL     1       0.938   3.426  20.443  0.00  0.00    +0.000 A 
ATOM     27  C   UNL     1       1.545   4.682  20.474  0.00  0.00    +0.000 A 
ENDBRANCH  21  22
ENDBRANCH  20  21
ENDBRANCH   5  20
TORSDOF 6
ENDMDL
