MODEL 1
REMARK VINA RESULT:      -5.7      0.000      0.000
REMARK  Name = 
REMARK  3 active torsions:
REMARK  status: ('A' for Active; 'I' for Inactive)
REMARK    1  A    between atoms: C_1  and  N_2
REMARK    2  A    between atoms: N_2  and  C_3
REMARK    3  A    between atoms: C_5  and  C_7
REMARK                            x       y       z     vdW  Elec       q    Type
REMARK                         _______ _______ _______ _____ _____    ______ ____
ROOT
ATOM      1  C   UNL     1       5.426   4.086  18.309  0.00  0.00    +0.000 C 
ATOM      2  C   UNL     1       5.152   5.337  19.093  0.00  0.00    +0.000 C 
ATOM      3  C   UNL     1       4.077   4.779  18.196  0.00  0.00    +0.000 C 
ATOM      4  F   UNL     1       3.872   5.493  17.015  0.00  0.00    +0.000 F 
ENDROOT
BRANCH   3   5
ATOM      5  C   UNL     1       2.831   4.179  18.796  0.00  0.00    +0.000 A 
ATOM      6  C   UNL     1       2.304   4.668  20.006  0.00  0.00    +0.000 A 
ATOM      7  C   UNL     1       1.152   4.118  20.578  0.00  0.00    +0.000 A 
ATOM      8  C   UNL     1       0.496   3.069  19.945  0.00  0.00    +0.000 A 
ATOM      9  C   UNL     1       0.983   2.578  18.736  0.00  0.00    +0.000 A 
ATOM     10  C   UNL     1       2.133   3.135  18.168  0.00  0.00    +0.000 A 
ENDBRANCH   3   5
BRANCH   1  12
ATOM     11  C   UNL     1       7.713   4.655  17.676  0.00  0.00    +0.000 C 
ATOM     12  N   UNL     1       6.418   4.171  17.216  0.00  0.00    +0.000 NA
ATOM     13  H   UNL     1       6.544   3.244  16.801  0.00  0.00    +0.000 HD
ENDBRANCH   1  12
TORSDOF 2
ENDMDL
MODEL 2
REMARK VINA RESULT:      -5.6      2.593      4.797
REMARK  Name = 
REMARK  3 active torsions:
REMARK  status: ('A' for Active; 'I' for Inactive)
REMARK    1  A    between atoms: C_1  and  N_2
REMARK    2  A    between atoms: N_2  and  C_3
REMARK    3  A    between atoms: C_5  and  C_7
REMARK                            x       y       z     vdW  Elec       q    Type
REMARK                         _______ _______ _______ _____ _____    ______ ____
ROOT
ATOM      1  C   UNL     1       2.646   2.779  19.258  0.00  0.00    +0.000 C 
ATOM      2  C   UNL     1       2.650   2.126  17.906  0.00  0.00    +0.000 C 
ATOM      3  C   UNL     1       2.381   3.605  18.010  0.00  0.00    +0.000 C 
ATOM      4  F   UNL     1       1.050   3.973  17.811  0.00  0.00    +0.000 F 
ENDROOT
BRANCH   3   5
ATOM      5  C   UNL     1       3.394   4.593  17.490  0.00  0.00    +0.000 A 
ATOM      6  C   UNL     1       4.416   4.187  16.612  0.00  0.00    +0.000 A 
ATOM      7  C   UNL     1       5.366   5.090  16.126  0.00  0.00    +0.000 A 
ATOM      8  C   UNL     1       5.309   6.428  16.502  0.00  0.00    +0.000 A 
ATOM      9  C   UNL     1       4.295   6.863  17.354  0.00  0.00    +0.000 A 
ATOM     10  C   UNL     1       3.348   5.954  17.833  0.00  0.00    +0.000 A 
ENDBRANCH   3   5
BRANCH   1  12
ATOM     11  C   UNL     1       1.800   2.876  21.545  0.00  0.00    +0.000 C 
ATOM     12  N   UNL     1       1.548   2.424  20.183  0.00  0.00    +0.000 NA
ATOM     13  H   UNL     1       0.677   2.849  19.853  0.00  0.00    +0.000 HD
ENDBRANCH   1  12
TORSDOF 2
ENDMDL
MODEL 3
REMARK VINA RESULT:      -5.6      2.613      4.603
REMARK  Name = 
REMARK  3 active torsions:
REMARK  status: ('A' for Active; 'I' for Inactive)
REMARK    1  A    between atoms: C_1  and  N_2
REMARK    2  A    between atoms: N_2  and  C_3
REMARK    3  A    between atoms: C_5  and  C_7
REMARK                            x       y       z     vdW  Elec       q    Type
REMARK                         _______ _______ _______ _____ _____    ______ ____
ROOT
ATOM      1  C   UNL     1       2.703   2.770  19.283  0.00  0.00    +0.000 C 
ATOM      2  C   UNL     1       2.708   2.110  17.934  0.00  0.00    +0.000 C 
ATOM      3  C   UNL     1       2.398   3.581  18.034  0.00  0.00    +0.000 C 
ATOM      4  F   UNL     1       1.054   3.910  17.851  0.00  0.00    +0.000 F 
ENDROOT
BRANCH   3   5
ATOM      5  C   UNL     1       3.375   4.595  17.497  0.00  0.00    +0.000 A 
ATOM      6  C   UNL     1       3.318   5.942  17.904  0.00  0.00    +0.000 A 
ATOM      7  C   UNL     1       4.214   6.895  17.409  0.00  0.00    +0.000 A 
ATOM      8  C   UNL     1       5.196   6.519  16.499  0.00  0.00    +0.000 A 
ATOM      9  C   UNL     1       5.289   5.190  16.094  0.00  0.00    +0.000 A 
ATOM     10  C   UNL     1       4.392   4.242  16.595  0.00  0.00    +0.000 A 
ENDBRANCH   3   5
BRANCH   1  12
ATOM     11  C   UNL     1       1.881   2.859  21.579  0.00  0.00    +0.000 C 
ATOM     12  N   UNL     1       1.627   2.389  20.224  0.00  0.00    +0.000 NA
ATOM     13  H   UNL     1       0.740   2.783  19.901  0.00  0.00    +0.000 HD
ENDBRANCH   1  12
TORSDOF 2
ENDMDL
MODEL 4
REMARK VINA RESULT:      -5.6      1.527      1.814
REMARK  Name = 
REMARK  3 active torsions:
REMARK  status: ('A' for Active; 'I' for Inactive)
REMARK    1  A    between atoms: C_1  and  N_2
REMARK    2  A    between atoms: N_2  and  C_3
REMARK    3  A    between atoms: C_5  and  C_7
REMARK                            x       y       z     vdW  Elec       q    Type
REMARK                         _______ _______ _______ _____ _____    ______ ____
ROOT
ATOM      1  C   UNL     1       5.269   4.488  18.098  0.00  0.00    +0.000 C 
ATOM      2  C   UNL     1       4.096   4.894  17.254  0.00  0.00    +0.000 C 
ATOM      3  C   UNL     1       4.040   3.597  18.020  0.00  0.00    +0.000 C 
ATOM      4  F   UNL     1       4.184   2.450  17.239  0.00  0.00    +0.000 F 
ENDROOT
BRANCH   3   5
ATOM      5  C   UNL     1       3.097   3.452  19.187  0.00  0.00    +0.000 A 
ATOM      6  C   UNL     1       1.817   4.037  19.160  0.00  0.00    +0.000 A 
ATOM      7  C   UNL     1       0.934   3.916  20.237  0.00  0.00    +0.000 A 
ATOM      8  C   UNL     1       1.310   3.197  21.366  0.00  0.00    +0.000 A 
ATOM      9  C   UNL     1       2.563   2.590  21.413  0.00  0.00    +0.000 A 
ATOM     10  C   UNL     1       3.439   2.713  20.331  0.00  0.00    +0.000 A 
ENDBRANCH   3   5
BRANCH   1  12
ATOM     11  C   UNL     1       6.920   5.123  16.417  0.00  0.00    +0.000 C 
ATOM     12  N   UNL     1       6.519   4.123  17.397  0.00  0.00    +0.000 NA
ATOM     13  H   UNL     1       7.272   4.014  18.082  0.00  0.00    +0.000 HD
ENDBRANCH   1  12
TORSDOF 2
ENDMDL
MODEL 5
REMARK VINA RESULT:      -5.6      0.185      1.382
REMARK  Name = 
REMARK  3 active torsions:
REMARK  status: ('A' for Active; 'I' for Inactive)
REMARK    1  A    between atoms: C_1  and  N_2
REMARK    2  A    between atoms: N_2  and  C_3
REMARK    3  A    between atoms: C_5  and  C_7
REMARK                            x       y       z     vdW  Elec       q    Type
REMARK                         _______ _______ _______ _____ _____    ______ ____
ROOT
ATOM      1  C   UNL     1       5.433   4.195  18.360  0.00  0.00    +0.000 C 
ATOM      2  C   UNL     1       5.098   5.493  19.036  0.00  0.00    +0.000 C 
ATOM      3  C   UNL     1       4.055   4.813  18.189  0.00  0.00    +0.000 C 
ATOM      4  F   UNL     1       3.821   5.416  16.952  0.00  0.00    +0.000 F 
ENDROOT
BRANCH   3   5
ATOM      5  C   UNL     1       2.836   4.208  18.837  0.00  0.00    +0.000 A 
ATOM      6  C   UNL     1       1.999   3.328  18.125  0.00  0.00    +0.000 A 
ATOM      7  C   UNL     1       0.861   2.764  18.711  0.00  0.00    +0.000 A 
ATOM      8  C   UNL     1       0.539   3.062  20.030  0.00  0.00    +0.000 A 
ATOM      9  C   UNL     1       1.360   3.913  20.766  0.00  0.00    +0.000 A 
ATOM     10  C   UNL     1       2.497   4.472  20.175  0.00  0.00    +0.000 A 
ENDBRANCH   3   5
BRANCH   1  12
ATOM     11  C   UNL     1       7.732   4.695  17.711  0.00  0.00    +0.000 C 
ATOM     12  N   UNL     1       6.425   4.234  17.263  0.00  0.00    +0.000 NA
ATOM     13  H   UNL     1       6.527   3.297  16.865  0.00  0.00    +0.000 HD
ENDBRANCH   1  12
TORSDOF 2
ENDMDL
MODEL 6
REMARK VINA RESULT:      -5.6      1.768      2.110
REMARK  Name = 
REMARK  3 active torsions:
REMARK  status: ('A' for Active; 'I' for Inactive)
REMARK    1  A    between atoms: C_1  and  N_2
REMARK    2  A    between atoms: N_2  and  C_3
REMARK    3  A    between atoms: C_5  and  C_7
REMARK                            x       y       z     vdW  Elec       q    Type
REMARK                         _______ _______ _______ _____ _____    ______ ____
ROOT
ATOM      1  C   UNL     1       5.703   5.919  17.682  0.00  0.00    +0.000 C 
ATOM      2  C   UNL     1       4.566   6.740  17.145  0.00  0.00    +0.000 C 
ATOM      3  C   UNL     1       4.638   5.273  16.810  0.00  0.00    +0.000 C 
ATOM      4  F   UNL     1       5.030   4.991  15.500  0.00  0.00    +0.000 F 
ENDROOT
BRANCH   3   5
ATOM      5  C   UNL     1       3.623   4.318  17.384  0.00  0.00    +0.000 A 
ATOM      6  C   UNL     1       2.359   4.773  17.806  0.00  0.00    +0.000 A 
ATOM      7  C   UNL     1       1.409   3.901  18.346  0.00  0.00    +0.000 A 
ATOM      8  C   UNL     1       1.701   2.547  18.468  0.00  0.00    +0.000 A 
ATOM      9  C   UNL     1       2.935   2.064  18.040  0.00  0.00    +0.000 A 
ATOM     10  C   UNL     1       3.879   2.942  17.499  0.00  0.00    +0.000 A 
ENDBRANCH   3   5
BRANCH   1  12
ATOM     11  C   UNL     1       7.571   7.486  17.591  0.00  0.00    +0.000 C 
ATOM     12  N   UNL     1       7.054   6.197  17.150  0.00  0.00    +0.000 NA
ATOM     13  H   UNL     1       7.698   5.464  17.460  0.00  0.00    +0.000 HD
ENDBRANCH   1  12
TORSDOF 2
ENDMDL
MODEL 7
REMARK VINA RESULT:      -5.6      1.465      1.716
REMARK  Name = 
REMARK  3 active torsions:
REMARK  status: ('A' for Active; 'I' for Inactive)
REMARK    1  A    between atoms: C_1  and  N_2
REMARK    2  A    between atoms: N_2  and  C_3
REMARK    3  A    between atoms: C_5  and  C_7
REMARK                            x       y       z     vdW  Elec       q    Type
REMARK                         _______ _______ _______ _____ _____    ______ ____
ROOT
ATOM      1  C   UNL     1       5.311   4.539  18.233  0.00  0.00    +0.000 C 
ATOM      2  C   UNL     1       4.171   5.033  17.389  0.00  0.00    +0.000 C 
ATOM      3  C   UNL     1       4.053   3.699  18.080  0.00  0.00    +0.000 C 
ATOM      4  F   UNL     1       4.174   2.592  17.240  0.00  0.00    +0.000 F 
ENDROOT
BRANCH   3   5
ATOM      5  C   UNL     1       3.081   3.524  19.219  0.00  0.00    +0.000 A 
ATOM      6  C   UNL     1       3.428   2.772  20.357  0.00  0.00    +0.000 A 
ATOM      7  C   UNL     1       2.535   2.596  21.419  0.00  0.00    +0.000 A 
ATOM      8  C   UNL     1       1.273   3.178  21.369  0.00  0.00    +0.000 A 
ATOM      9  C   UNL     1       0.909   3.945  20.264  0.00  0.00    +0.000 A 
ATOM     10  C   UNL     1       1.808   4.119  19.208  0.00  0.00    +0.000 A 
ENDBRANCH   3   5
BRANCH   1  12
ATOM     11  C   UNL     1       7.082   5.249  16.712  0.00  0.00    +0.000 C 
ATOM     12  N   UNL     1       6.562   4.168  17.537  0.00  0.00    +0.000 NA
ATOM     13  H   UNL     1       7.272   3.913  18.229  0.00  0.00    +0.000 HD
ENDBRANCH   1  12
TORSDOF 2
ENDMDL
MODEL 8
REMARK VINA RESULT:      -5.5      1.775      2.358
REMARK  Name = 
REMARK  3 active torsions:
REMARK  status: ('A' for Active; 'I' for Inactive)
REMARK    1  A    between atoms: C_1  and  N_2
REMARK    2  A    between atoms: N_2  and  C_3
REMARK    3  A    between atoms: C_5  and  C_7
REMARK                            x       y       z     vdW  Elec       q    Type
REMARK                         _______ _______ _______ _____ _____    ______ ____
ROOT
ATOM      1  C   UNL     1       5.662   5.953  17.591  0.00  0.00    +0.000 C 
ATOM      2  C   UNL     1       4.534   6.726  16.969  0.00  0.00    +0.000 C 
ATOM      3  C   UNL     1       4.621   5.240  16.743  0.00  0.00    +0.000 C 
ATOM      4  F   UNL     1       5.046   4.866  15.467  0.00  0.00    +0.000 F 
ENDROOT
BRANCH   3   5
ATOM      5  C   UNL     1       3.597   4.322  17.360  0.00  0.00    +0.000 A 
ATOM      6  C   UNL     1       3.853   2.946  17.507  0.00  0.00    +0.000 A 
ATOM      7  C   UNL     1       2.911   2.082  18.073  0.00  0.00    +0.000 A 
ATOM      8  C   UNL     1       1.690   2.578  18.514  0.00  0.00    +0.000 A 
ATOM      9  C   UNL     1       1.416   3.940  18.401  0.00  0.00    +0.000 A 
ATOM     10  C   UNL     1       2.364   4.798  17.837  0.00  0.00    +0.000 A 
ENDBRANCH   3   5
BRANCH   1  12
ATOM     11  C   UNL     1       7.574   7.468  17.535  0.00  0.00    +0.000 C 
ATOM     12  N   UNL     1       7.025   6.201  17.073  0.00  0.00    +0.000 NA
ATOM     13  H   UNL     1       7.645   5.445  17.376  0.00  0.00    +0.000 HD
ENDBRANCH   1  12
TORSDOF 2
ENDMDL
MODEL 9
REMARK VINA RESULT:      -5.4      2.075      2.934
REMARK  Name = 
REMARK  3 active torsions:
REMARK  status: ('A' for Active; 'I' for Inactive)
REMARK    1  A    between atoms: C_1  and  N_2
REMARK    2  A    between atoms: N_2  and  C_3
REMARK    3  A    between atoms: C_5  and  C_7
REMARK                            x       y       z     vdW  Elec       q    Type
REMARK                         _______ _______ _______ _____ _____    ______ ____
ROOT
ATOM      1  C   UNL     1       6.336   5.768  16.267  0.00  0.00    +0.000 C 
ATOM      2  C   UNL     1       6.396   4.337  15.817  0.00  0.00    +0.000 C 
ATOM      3  C   UNL     1       5.828   4.659  17.175  0.00  0.00    +0.000 C 
ATOM      4  F   UNL     1       6.661   4.339  18.248  0.00  0.00    +0.000 F 
ENDROOT
BRANCH   3   5
ATOM      5  C   UNL     1       4.356   4.471  17.439  0.00  0.00    +0.000 A 
ATOM      6  C   UNL     1       3.742   3.218  17.254  0.00  0.00    +0.000 A 
ATOM      7  C   UNL     1       2.377   3.030  17.490  0.00  0.00    +0.000 A 
ATOM      8  C   UNL     1       1.594   4.093  17.926  0.00  0.00    +0.000 A 
ATOM      9  C   UNL     1       2.179   5.339  18.138  0.00  0.00    +0.000 A 
ATOM     10  C   UNL     1       3.544   5.520  17.903  0.00  0.00    +0.000 A 
ENDBRANCH   3   5
BRANCH   1  12
ATOM     11  C   UNL     1       7.465   7.578  17.453  0.00  0.00    +0.000 C 
ATOM     12  N   UNL     1       7.619   6.450  16.545  0.00  0.00    +0.000 NA
ATOM     13  H   UNL     1       8.274   5.782  16.960  0.00  0.00    +0.000 HD
ENDBRANCH   1  12
TORSDOF 2
ENDMDL
