MODEL 1
REMARK VINA RESULT:      -7.4      0.000      0.000
REMARK  Name = 
REMARK  5 active torsions:
REMARK  status: ('A' for Active; 'I' for Inactive)
REMARK    1  A    between atoms: C_1  and  O_2
REMARK    2  A    between atoms: O_2  and  C_3
REMARK    3  A    between atoms: C_6  and  C_7
REMARK    4  A    between atoms: C_7  and  N_8
REMARK    5  A    between atoms: C_12  and  C_13
REMARK                            x       y       z     vdW  Elec       q    Type
REMARK                         _______ _______ _______ _____ _____    ______ ____
ROOT
ATOM      1  N   UNL     1       2.922   5.011  18.691  0.00  0.00    +0.000 N 
ATOM      2  C   UNL     1       1.944   4.196  18.184  0.00  0.00    +0.000 A 
ATOM      3  N   UNL     1       2.370   3.482  17.169  0.00  0.00    +0.000 NA
ATOM      4  C   UNL     1       3.669   3.861  16.999  0.00  0.00    +0.000 A 
ATOM      5  C   UNL     1       4.065   4.823  17.918  0.00  0.00    +0.000 A 
ENDROOT
BRANCH   5   6
ATOM      6  C   UNL     1       5.363   5.513  18.011  0.00  0.00    +0.000 A 
ATOM      7  C   UNL     1       6.282   5.117  18.998  0.00  0.00    +0.000 A 
ATOM      8  C   UNL     1       7.515   5.761  19.149  0.00  0.00    +0.000 A 
ATOM      9  C   UNL     1       7.860   6.809  18.302  0.00  0.00    +0.000 A 
ATOM     10  C   UNL     1       6.963   7.223  17.324  0.00  0.00    +0.000 A 
ATOM     11  C   UNL     1       5.720   6.594  17.195  0.00  0.00    +0.000 A 
ENDBRANCH   5   6
BRANCH   1  12
ATOM     12  C   UNL     1       2.772   5.934  19.812  0.00  0.00    +0.000 C 
BRANCH  12  16
ATOM     13  C   UNL     1       1.145   9.823  18.869  0.00  0.00    +0.000 A 
ATOM     14  C   UNL     1       0.991   9.285  20.147  0.00  0.00    +0.000 A 
ATOM     15  C   UNL     1       1.519   8.030  20.452  0.00  0.00    +0.000 A 
ATOM     16  C   UNL     1       2.196   7.287  19.472  0.00  0.00    +0.000 A 
ATOM     17  C   UNL     1       2.317   7.820  18.182  0.00  0.00    +0.000 A 
ATOM     18  C   UNL     1       1.794   9.082  17.884  0.00  0.00    +0.000 A 
BRANCH  13  20
ATOM     19  C   UNL     1      -0.739  11.213  19.185  0.00  0.00    +0.000 C 
ATOM     20  O   UNL     1       0.588  11.061  18.691  0.00  0.00    +0.000 OA
ENDBRANCH  13  20
ENDBRANCH  12  16
ENDBRANCH   1  12
TORSDOF 4
ENDMDL
MODEL 2
REMARK VINA RESULT:      -7.3      0.153      1.084
REMARK  Name = 
REMARK  5 active torsions:
REMARK  status: ('A' for Active; 'I' for Inactive)
REMARK    1  A    between atoms: C_1  and  O_2
REMARK    2  A    between atoms: O_2  and  C_3
REMARK    3  A    between atoms: C_6  and  C_7
REMARK    4  A    between atoms: C_7  and  N_8
REMARK    5  A    between atoms: C_12  and  C_13
REMARK                            x       y       z     vdW  Elec       q    Type
REMARK                         _______ _______ _______ _____ _____    ______ ____
ROOT
ATOM      1  N   UNL     1       2.837   5.007  18.709  0.00  0.00    +0.000 N 
ATOM      2  C   UNL     1       1.863   4.208  18.164  0.00  0.00    +0.000 A 
ATOM      3  N   UNL     1       2.313   3.495  17.160  0.00  0.00    +0.000 NA
ATOM      4  C   UNL     1       3.622   3.856  17.035  0.00  0.00    +0.000 A 
ATOM      5  C   UNL     1       4.001   4.807  17.973  0.00  0.00    +0.000 A 
ENDROOT
BRANCH   5   6
ATOM      6  C   UNL     1       5.305   5.477  18.114  0.00  0.00    +0.000 A 
ATOM      7  C   UNL     1       5.653   6.497  17.211  0.00  0.00    +0.000 A 
ATOM      8  C   UNL     1       6.893   7.143  17.281  0.00  0.00    +0.000 A 
ATOM      9  C   UNL     1       7.805   6.790  18.270  0.00  0.00    +0.000 A 
ATOM     10  C   UNL     1       7.485   5.779  19.169  0.00  0.00    +0.000 A 
ATOM     11  C   UNL     1       6.255   5.117  19.077  0.00  0.00    +0.000 A 
ENDBRANCH   5   6
BRANCH   1  12
ATOM     12  C   UNL     1       2.663   5.925  19.831  0.00  0.00    +0.000 C 
BRANCH  12  16
ATOM     13  C   UNL     1       1.206   9.871  18.849  0.00  0.00    +0.000 A 
ATOM     14  C   UNL     1       1.014   9.346  20.127  0.00  0.00    +0.000 A 
ATOM     15  C   UNL     1       1.488   8.073  20.445  0.00  0.00    +0.000 A 
ATOM     16  C   UNL     1       2.146   7.298  19.477  0.00  0.00    +0.000 A 
ATOM     17  C   UNL     1       2.306   7.819  18.187  0.00  0.00    +0.000 A 
ATOM     18  C   UNL     1       1.837   9.100  17.876  0.00  0.00    +0.000 A 
BRANCH  13  20
ATOM     19  C   UNL     1      -0.718  11.219  18.608  0.00  0.00    +0.000 C 
ATOM     20  O   UNL     1       0.702  11.130  18.658  0.00  0.00    +0.000 OA
ENDBRANCH  13  20
ENDBRANCH  12  16
ENDBRANCH   1  12
TORSDOF 4
ENDMDL
MODEL 3
REMARK VINA RESULT:      -7.3      0.267      1.111
REMARK  Name = 
REMARK  5 active torsions:
REMARK  status: ('A' for Active; 'I' for Inactive)
REMARK    1  A    between atoms: C_1  and  O_2
REMARK    2  A    between atoms: O_2  and  C_3
REMARK    3  A    between atoms: C_6  and  C_7
REMARK    4  A    between atoms: C_7  and  N_8
REMARK    5  A    between atoms: C_12  and  C_13
REMARK                            x       y       z     vdW  Elec       q    Type
REMARK                         _______ _______ _______ _____ _____    ______ ____
ROOT
ATOM      1  N   UNL     1       2.917   4.993  18.709  0.00  0.00    +0.000 N 
ATOM      2  C   UNL     1       1.934   4.184  18.200  0.00  0.00    +0.000 A 
ATOM      3  N   UNL     1       2.348   3.491  17.166  0.00  0.00    +0.000 NA
ATOM      4  C   UNL     1       3.643   3.877  16.986  0.00  0.00    +0.000 A 
ATOM      5  C   UNL     1       4.050   4.823  17.918  0.00  0.00    +0.000 A 
ENDROOT
BRANCH   5   6
ATOM      6  C   UNL     1       5.346   5.515  18.006  0.00  0.00    +0.000 A 
ATOM      7  C   UNL     1       6.267   5.124  18.994  0.00  0.00    +0.000 A 
ATOM      8  C   UNL     1       7.499   5.771  19.141  0.00  0.00    +0.000 A 
ATOM      9  C   UNL     1       7.842   6.814  18.289  0.00  0.00    +0.000 A 
ATOM     10  C   UNL     1       6.945   7.223  17.309  0.00  0.00    +0.000 A 
ATOM     11  C   UNL     1       5.702   6.592  17.184  0.00  0.00    +0.000 A 
ENDBRANCH   5   6
BRANCH   1  12
ATOM     12  C   UNL     1       2.780   5.893  19.850  0.00  0.00    +0.000 C 
BRANCH  12  16
ATOM     13  C   UNL     1       1.104   9.770  18.940  0.00  0.00    +0.000 A 
ATOM     14  C   UNL     1       1.799   9.055  17.965  0.00  0.00    +0.000 A 
ATOM     15  C   UNL     1       2.337   7.802  18.258  0.00  0.00    +0.000 A 
ATOM     16  C   UNL     1       2.202   7.253  19.543  0.00  0.00    +0.000 A 
ATOM     17  C   UNL     1       1.531   7.991  20.527  0.00  0.00    +0.000 A 
ATOM     18  C   UNL     1       0.985   9.243  20.225  0.00  0.00    +0.000 A 
BRANCH  13  20
ATOM     19  C   UNL     1       0.156  11.837  19.575  0.00  0.00    +0.000 C 
ATOM     20  O   UNL     1       0.618  10.983  18.534  0.00  0.00    +0.000 OA
ENDBRANCH  13  20
ENDBRANCH  12  16
ENDBRANCH   1  12
TORSDOF 4
ENDMDL
MODEL 4
REMARK VINA RESULT:      -7.3      2.862      5.831
REMARK  Name = 
REMARK  5 active torsions:
REMARK  status: ('A' for Active; 'I' for Inactive)
REMARK    1  A    between atoms: C_1  and  O_2
REMARK    2  A    between atoms: O_2  and  C_3
REMARK    3  A    between atoms: C_6  and  C_7
REMARK    4  A    between atoms: C_7  and  N_8
REMARK    5  A    between atoms: C_12  and  C_13
REMARK                            x       y       z     vdW  Elec       q    Type
REMARK                         _______ _______ _______ _____ _____    ______ ____
ROOT
ATOM      1  N   UNL     1       3.330   3.278  19.134  0.00  0.00    +0.000 N 
ATOM      2  C   UNL     1       2.872   1.987  19.073  0.00  0.00    +0.000 A 
ATOM      3  N   UNL     1       1.572   1.930  18.907  0.00  0.00    +0.000 NA
ATOM      4  C   UNL     1       1.168   3.232  18.877  0.00  0.00    +0.000 A 
ATOM      5  C   UNL     1       2.226   4.119  19.025  0.00  0.00    +0.000 A 
ENDROOT
BRANCH   5   6
ATOM      6  C   UNL     1       2.178   5.588  19.103  0.00  0.00    +0.000 A 
ATOM      7  C   UNL     1       1.816   6.201  20.315  0.00  0.00    +0.000 A 
ATOM      8  C   UNL     1       1.724   7.592  20.432  0.00  0.00    +0.000 A 
ATOM      9  C   UNL     1       2.008   8.402  19.338  0.00  0.00    +0.000 A 
ATOM     10  C   UNL     1       2.361   7.818  18.127  0.00  0.00    +0.000 A 
ATOM     11  C   UNL     1       2.425   6.425  18.007  0.00  0.00    +0.000 A 
ENDBRANCH   5   6
BRANCH   1  12
ATOM     12  C   UNL     1       4.720   3.685  19.320  0.00  0.00    +0.000 C 
BRANCH  12  16
ATOM     13  C   UNL     1       6.817   4.958  15.763  0.00  0.00    +0.000 A 
ATOM     14  C   UNL     1       7.262   5.353  17.024  0.00  0.00    +0.000 A 
ATOM     15  C   UNL     1       6.587   4.939  18.173  0.00  0.00    +0.000 A 
ATOM     16  C   UNL     1       5.440   4.136  18.072  0.00  0.00    +0.000 A 
ATOM     17  C   UNL     1       4.979   3.771  16.801  0.00  0.00    +0.000 A 
ATOM     18  C   UNL     1       5.666   4.180  15.653  0.00  0.00    +0.000 A 
BRANCH  13  20
ATOM     19  C   UNL     1       7.242   4.867  13.442  0.00  0.00    +0.000 C 
ATOM     20  O   UNL     1       7.562   5.422  14.713  0.00  0.00    +0.000 OA
ENDBRANCH  13  20
ENDBRANCH  12  16
ENDBRANCH   1  12
TORSDOF 4
ENDMDL
MODEL 5
REMARK VINA RESULT:      -7.3      2.802      5.869
REMARK  Name = 
REMARK  5 active torsions:
REMARK  status: ('A' for Active; 'I' for Inactive)
REMARK    1  A    between atoms: C_1  and  O_2
REMARK    2  A    between atoms: O_2  and  C_3
REMARK    3  A    between atoms: C_6  and  C_7
REMARK    4  A    between atoms: C_7  and  N_8
REMARK    5  A    between atoms: C_12  and  C_13
REMARK                            x       y       z     vdW  Elec       q    Type
REMARK                         _______ _______ _______ _____ _____    ______ ____
ROOT
ATOM      1  N   UNL     1       3.318   3.290  19.186  0.00  0.00    +0.000 N 
ATOM      2  C   UNL     1       2.894   1.991  19.070  0.00  0.00    +0.000 A 
ATOM      3  N   UNL     1       1.605   1.909  18.841  0.00  0.00    +0.000 NA
ATOM      4  C   UNL     1       1.172   3.202  18.824  0.00  0.00    +0.000 A 
ATOM      5  C   UNL     1       2.200   4.109  19.045  0.00  0.00    +0.000 A 
ENDROOT
BRANCH   5   6
ATOM      6  C   UNL     1       2.113   5.574  19.157  0.00  0.00    +0.000 A 
ATOM      7  C   UNL     1       2.405   6.368  18.034  0.00  0.00    +0.000 A 
ATOM      8  C   UNL     1       2.369   7.765  18.097  0.00  0.00    +0.000 A 
ATOM      9  C   UNL     1       2.022   8.398  19.285  0.00  0.00    +0.000 A 
ATOM     10  C   UNL     1       1.736   7.634  20.411  0.00  0.00    +0.000 A 
ATOM     11  C   UNL     1       1.801   6.238  20.351  0.00  0.00    +0.000 A 
ENDBRANCH   5   6
BRANCH   1  12
ATOM     12  C   UNL     1       4.687   3.725  19.448  0.00  0.00    +0.000 C 
BRANCH  12  16
ATOM     13  C   UNL     1       6.863   5.136  15.994  0.00  0.00    +0.000 A 
ATOM     14  C   UNL     1       5.751   4.309  15.838  0.00  0.00    +0.000 A 
ATOM     15  C   UNL     1       5.046   3.856  16.953  0.00  0.00    +0.000 A 
ATOM     16  C   UNL     1       5.459   4.212  18.247  0.00  0.00    +0.000 A 
ATOM     17  C   UNL     1       6.596   5.015  18.397  0.00  0.00    +0.000 A 
ATOM     18  C   UNL     1       7.294   5.474  17.275  0.00  0.00    +0.000 A 
BRANCH  13  20
ATOM     19  C   UNL     1       7.073   4.799  13.666  0.00  0.00    +0.000 C 
ATOM     20  O   UNL     1       7.469   5.520  14.828  0.00  0.00    +0.000 OA
ENDBRANCH  13  20
ENDBRANCH  12  16
ENDBRANCH   1  12
TORSDOF 4
ENDMDL
MODEL 6
REMARK VINA RESULT:      -7.3      0.142      1.528
REMARK  Name = 
REMARK  5 active torsions:
REMARK  status: ('A' for Active; 'I' for Inactive)
REMARK    1  A    between atoms: C_1  and  O_2
REMARK    2  A    between atoms: O_2  and  C_3
REMARK    3  A    between atoms: C_6  and  C_7
REMARK    4  A    between atoms: C_7  and  N_8
REMARK    5  A    between atoms: C_12  and  C_13
REMARK                            x       y       z     vdW  Elec       q    Type
REMARK                         _______ _______ _______ _____ _____    ______ ____
ROOT
ATOM      1  N   UNL     1       2.879   4.997  18.728  0.00  0.00    +0.000 N 
ATOM      2  C   UNL     1       1.901   4.207  18.179  0.00  0.00    +0.000 A 
ATOM      3  N   UNL     1       2.339   3.521  17.151  0.00  0.00    +0.000 NA
ATOM      4  C   UNL     1       3.644   3.892  17.015  0.00  0.00    +0.000 A 
ATOM      5  C   UNL     1       4.033   4.822  17.969  0.00  0.00    +0.000 A 
ENDROOT
BRANCH   5   6
ATOM      6  C   UNL     1       5.335   5.497  18.106  0.00  0.00    +0.000 A 
ATOM      7  C   UNL     1       5.665   6.537  17.221  0.00  0.00    +0.000 A 
ATOM      8  C   UNL     1       6.902   7.189  17.287  0.00  0.00    +0.000 A 
ATOM      9  C   UNL     1       7.830   6.820  18.255  0.00  0.00    +0.000 A 
ATOM     10  C   UNL     1       7.528   5.788  19.137  0.00  0.00    +0.000 A 
ATOM     11  C   UNL     1       6.301   5.121  19.048  0.00  0.00    +0.000 A 
ENDBRANCH   5   6
BRANCH   1  12
ATOM     12  C   UNL     1       2.717   5.887  19.874  0.00  0.00    +0.000 C 
BRANCH  12  16
ATOM     13  C   UNL     1       1.121   9.795  18.958  0.00  0.00    +0.000 A 
ATOM     14  C   UNL     1       1.819   9.074  17.990  0.00  0.00    +0.000 A 
ATOM     15  C   UNL     1       2.332   7.810  18.285  0.00  0.00    +0.000 A 
ATOM     16  C   UNL     1       2.167   7.258  19.565  0.00  0.00    +0.000 A 
ATOM     17  C   UNL     1       1.493   8.003  20.541  0.00  0.00    +0.000 A 
ATOM     18  C   UNL     1       0.973   9.265  20.238  0.00  0.00    +0.000 A 
BRANCH  13  20
ATOM     19  C   UNL     1      -0.396  11.567  19.328  0.00  0.00    +0.000 C 
ATOM     20  O   UNL     1       0.662  11.019  18.550  0.00  0.00    +0.000 OA
ENDBRANCH  13  20
ENDBRANCH  12  16
ENDBRANCH   1  12
TORSDOF 4
ENDMDL
MODEL 7
REMARK VINA RESULT:      -7.3      2.810      5.815
REMARK  Name = 
REMARK  5 active torsions:
REMARK  status: ('A' for Active; 'I' for Inactive)
REMARK    1  A    between atoms: C_1  and  O_2
REMARK    2  A    between atoms: O_2  and  C_3
REMARK    3  A    between atoms: C_6  and  C_7
REMARK    4  A    between atoms: C_7  and  N_8
REMARK    5  A    between atoms: C_12  and  C_13
REMARK                            x       y       z     vdW  Elec       q    Type
REMARK                         _______ _______ _______ _____ _____    ______ ____
ROOT
ATOM      1  N   UNL     1       3.294   3.296  19.180  0.00  0.00    +0.000 N 
ATOM      2  C   UNL     1       2.831   2.008  19.083  0.00  0.00    +0.000 A 
ATOM      3  N   UNL     1       1.541   1.962  18.854  0.00  0.00    +0.000 NA
ATOM      4  C   UNL     1       1.147   3.267  18.818  0.00  0.00    +0.000 A 
ATOM      5  C   UNL     1       2.203   4.145  19.026  0.00  0.00    +0.000 A 
ENDROOT
BRANCH   5   6
ATOM      6  C   UNL     1       2.160   5.614  19.116  0.00  0.00    +0.000 A 
ATOM      7  C   UNL     1       1.764   6.217  20.323  0.00  0.00    +0.000 A 
ATOM      8  C   UNL     1       1.676   7.608  20.451  0.00  0.00    +0.000 A 
ATOM      9  C   UNL     1       1.999   8.426  19.374  0.00  0.00    +0.000 A 
ATOM     10  C   UNL     1       2.387   7.852  18.169  0.00  0.00    +0.000 A 
ATOM     11  C   UNL     1       2.446   6.460  18.037  0.00  0.00    +0.000 A 
ENDBRANCH   5   6
BRANCH   1  12
ATOM     12  C   UNL     1       4.676   3.692  19.436  0.00  0.00    +0.000 C 
BRANCH  12  16
ATOM     13  C   UNL     1       6.863   5.079  15.978  0.00  0.00    +0.000 A 
ATOM     14  C   UNL     1       5.755   4.245  15.825  0.00  0.00    +0.000 A 
ATOM     15  C   UNL     1       5.047   3.800  16.941  0.00  0.00    +0.000 A 
ATOM     16  C   UNL     1       5.452   4.171  18.233  0.00  0.00    +0.000 A 
ATOM     17  C   UNL     1       6.586   4.980  18.381  0.00  0.00    +0.000 A 
ATOM     18  C   UNL     1       7.287   5.431  17.258  0.00  0.00    +0.000 A 
BRANCH  13  20
ATOM     19  C   UNL     1       7.015   4.787  13.640  0.00  0.00    +0.000 C 
ATOM     20  O   UNL     1       7.473   5.453  14.811  0.00  0.00    +0.000 OA
ENDBRANCH  13  20
ENDBRANCH  12  16
ENDBRANCH   1  12
TORSDOF 4
ENDMDL
MODEL 8
REMARK VINA RESULT:      -7.3      2.902      5.956
REMARK  Name = 
REMARK  5 active torsions:
REMARK  status: ('A' for Active; 'I' for Inactive)
REMARK    1  A    between atoms: C_1  and  O_2
REMARK    2  A    between atoms: O_2  and  C_3
REMARK    3  A    between atoms: C_6  and  C_7
REMARK    4  A    between atoms: C_7  and  N_8
REMARK    5  A    between atoms: C_12  and  C_13
REMARK                            x       y       z     vdW  Elec       q    Type
REMARK                         _______ _______ _______ _____ _____    ______ ____
ROOT
ATOM      1  N   UNL     1       3.369   3.267  19.057  0.00  0.00    +0.000 N 
ATOM      2  C   UNL     1       2.978   1.962  18.903  0.00  0.00    +0.000 A 
ATOM      3  N   UNL     1       1.678   1.845  18.777  0.00  0.00    +0.000 NA
ATOM      4  C   UNL     1       1.204   3.121  18.870  0.00  0.00    +0.000 A 
ATOM      5  C   UNL     1       2.219   4.051  19.056  0.00  0.00    +0.000 A 
ENDROOT
BRANCH   5   6
ATOM      6  C   UNL     1       2.095   5.504  19.259  0.00  0.00    +0.000 A 
ATOM      7  C   UNL     1       2.362   6.372  18.186  0.00  0.00    +0.000 A 
ATOM      8  C   UNL     1       2.290   7.761  18.335  0.00  0.00    +0.000 A 
ATOM      9  C   UNL     1       1.933   8.311  19.561  0.00  0.00    +0.000 A 
ATOM     10  C   UNL     1       1.671   7.473  20.638  0.00  0.00    +0.000 A 
ATOM     11  C   UNL     1       1.771   6.084  20.492  0.00  0.00    +0.000 A 
ENDBRANCH   5   6
BRANCH   1  12
ATOM     12  C   UNL     1       4.741   3.736  19.229  0.00  0.00    +0.000 C 
BRANCH  12  16
ATOM     13  C   UNL     1       6.792   4.946  15.625  0.00  0.00    +0.000 A 
ATOM     14  C   UNL     1       7.423   5.051  16.864  0.00  0.00    +0.000 A 
ATOM     15  C   UNL     1       6.762   4.657  18.028  0.00  0.00    +0.000 A 
ATOM     16  C   UNL     1       5.447   4.168  17.967  0.00  0.00    +0.000 A 
ATOM     17  C   UNL     1       4.808   4.097  16.723  0.00  0.00    +0.000 A 
ATOM     18  C   UNL     1       5.479   4.484  15.558  0.00  0.00    +0.000 A 
BRANCH  13  20
ATOM     19  C   UNL     1       7.191   4.781  13.303  0.00  0.00    +0.000 C 
ATOM     20  O   UNL     1       7.542   5.358  14.556  0.00  0.00    +0.000 OA
ENDBRANCH  13  20
ENDBRANCH  12  16
ENDBRANCH   1  12
TORSDOF 4
ENDMDL
MODEL 9
REMARK VINA RESULT:      -7.2      1.273      1.763
REMARK  Name = 
REMARK  5 active torsions:
REMARK  status: ('A' for Active; 'I' for Inactive)
REMARK    1  A    between atoms: C_1  and  O_2
REMARK    2  A    between atoms: O_2  and  C_3
REMARK    3  A    between atoms: C_6  and  C_7
REMARK    4  A    between atoms: C_7  and  N_8
REMARK    5  A    between atoms: C_12  and  C_13
REMARK                            x       y       z     vdW  Elec       q    Type
REMARK                         _______ _______ _______ _____ _____    ______ ____
ROOT
ATOM      1  N   UNL     1       2.723   4.618  18.827  0.00  0.00    +0.000 N 
ATOM      2  C   UNL     1       1.487   4.032  18.918  0.00  0.00    +0.000 A 
ATOM      3  N   UNL     1       1.350   3.031  18.081  0.00  0.00    +0.000 NA
ATOM      4  C   UNL     1       2.534   2.976  17.409  0.00  0.00    +0.000 A 
ATOM      5  C   UNL     1       3.428   3.953  17.827  0.00  0.00    +0.000 A 
ENDROOT
BRANCH   5   6
ATOM      6  C   UNL     1       4.772   4.244  17.300  0.00  0.00    +0.000 A 
ATOM      7  C   UNL     1       4.959   4.334  15.909  0.00  0.00    +0.000 A 
ATOM      8  C   UNL     1       6.221   4.576  15.356  0.00  0.00    +0.000 A 
ATOM      9  C   UNL     1       7.322   4.749  16.187  0.00  0.00    +0.000 A 
ATOM     10  C   UNL     1       7.162   4.657  17.565  0.00  0.00    +0.000 A 
ATOM     11  C   UNL     1       5.903   4.387  18.113  0.00  0.00    +0.000 A 
ENDBRANCH   5   6
BRANCH   1  12
ATOM     12  C   UNL     1       3.191   5.757  19.611  0.00  0.00    +0.000 C 
BRANCH  12  16
ATOM     13  C   UNL     1       1.107   9.488  18.985  0.00  0.00    +0.000 A 
ATOM     14  C   UNL     1       1.103   8.880  20.240  0.00  0.00    +0.000 A 
ATOM     15  C   UNL     1       1.779   7.677  20.443  0.00  0.00    +0.000 A 
ATOM     16  C   UNL     1       2.455   7.054  19.382  0.00  0.00    +0.000 A 
ATOM     17  C   UNL     1       2.427   7.654  18.117  0.00  0.00    +0.000 A 
ATOM     18  C   UNL     1       1.755   8.866  17.921  0.00  0.00    +0.000 A 
BRANCH  13  20
ATOM     19  C   UNL     1      -0.854  10.591  18.265  0.00  0.00    +0.000 C 
ATOM     20  O   UNL     1       0.414  10.666  18.910  0.00  0.00    +0.000 OA
ENDBRANCH  13  20
ENDBRANCH  12  16
ENDBRANCH   1  12
TORSDOF 4
ENDMDL
