MODEL 1
REMARK VINA RESULT:      -6.3      0.000      0.000
REMARK  Name = 
REMARK  5 active torsions:
REMARK  status: ('A' for Active; 'I' for Inactive)
REMARK    1  A    between atoms: C_2  and  C_3
REMARK    2  A    between atoms: C_3  and  C_4
REMARK    3  A    between atoms: N_9  and  N_10
REMARK    4  A    between atoms: C_11  and  C_12
REMARK    5  A    between atoms: C_13  and  C_14
REMARK                            x       y       z     vdW  Elec       q    Type
REMARK                         _______ _______ _______ _____ _____    ______ ____
ROOT
ATOM      1  O   UNL     1       5.409   5.456  15.592  0.00  0.00    +0.000 OA
ATOM      2  C   UNL     1       5.664   6.248  16.503  0.00  0.00    +0.000 C 
ATOM      3  N   UNL     1       6.970   6.583  16.776  0.00  0.00    +0.000 N 
ATOM      4  H   UNL     1       7.682   6.133  16.211  0.00  0.00    +0.000 HD
ENDROOT
BRANCH   3   5
ATOM      5  N   UNL     1       7.305   7.412  17.796  0.00  0.00    +0.000 NA
ATOM      6  C   UNL     1       8.066   8.411  17.489  0.00  0.00    +0.000 C 
BRANCH   6   7
ATOM      7  C   UNL     1       8.507   9.348  18.537  0.00  0.00    +0.000 C 
ATOM      8  C   UNL     1       9.115  10.500  18.225  0.00  0.00    +0.000 C 
BRANCH   8   9
ATOM      9  C   UNL     1       9.548  11.373  19.261  0.00  0.00    +0.000 A 
ATOM     10  C   UNL     1       9.524  11.179  20.638  0.00  0.00    +0.000 A 
ATOM     11  C   UNL     1      10.053  12.340  21.253  0.00  0.00    +0.000 A 
ATOM     12  C   UNL     1      10.379  13.189  20.229  0.00  0.00    +0.000 A 
ATOM     13  O   UNL     1      10.085  12.623  19.036  0.00  0.00    +0.000 OA
ENDBRANCH   8   9
ENDBRANCH   6   7
ENDBRANCH   3   5
BRANCH   2  14
ATOM     14  C   UNL     1       4.576   6.882  17.355  0.00  0.00    +0.000 C 
BRANCH  14  15
ATOM     15  C   UNL     1       3.794   5.824  18.079  0.00  0.00    +0.000 A 
ATOM     16  C   UNL     1       2.441   5.554  18.008  0.00  0.00    +0.000 A 
ATOM     17  C   UNL     1       2.055   4.481  18.862  0.00  0.00    +0.000 A 
ATOM     18  C   UNL     1       3.124   3.972  19.564  0.00  0.00    +0.000 A 
ATOM     19  S   UNL     1       4.582   4.782  19.189  0.00  0.00    +0.000 S 
ENDBRANCH  14  15
ENDBRANCH   2  14
TORSDOF 5
ENDMDL
MODEL 2
REMARK VINA RESULT:      -6.2      1.684      2.071
REMARK  Name = 
REMARK  5 active torsions:
REMARK  status: ('A' for Active; 'I' for Inactive)
REMARK    1  A    between atoms: C_2  and  C_3
REMARK    2  A    between atoms: C_3  and  C_4
REMARK    3  A    between atoms: N_9  and  N_10
REMARK    4  A    between atoms: C_11  and  C_12
REMARK    5  A    between atoms: C_13  and  C_14
REMARK                            x       y       z     vdW  Elec       q    Type
REMARK                         _______ _______ _______ _____ _____    ______ ____
ROOT
ATOM      1  O   UNL     1       4.831   3.473  16.679  0.00  0.00    +0.000 OA
ATOM      2  C   UNL     1       5.239   4.391  17.394  0.00  0.00    +0.000 C 
ATOM      3  N   UNL     1       5.688   5.559  16.822  0.00  0.00    +0.000 N 
ATOM      4  H   UNL     1       5.680   5.602  15.809  0.00  0.00    +0.000 HD
ENDROOT
BRANCH   3   5
ATOM      5  N   UNL     1       6.189   6.580  17.562  0.00  0.00    +0.000 NA
ATOM      6  C   UNL     1       7.430   6.879  17.350  0.00  0.00    +0.000 C 
BRANCH   6   7
ATOM      7  C   UNL     1       8.070   7.953  18.128  0.00  0.00    +0.000 C 
ATOM      8  C   UNL     1       8.120   9.209  17.664  0.00  0.00    +0.000 C 
BRANCH   8   9
ATOM      9  C   UNL     1       8.765  10.220  18.431  0.00  0.00    +0.000 A 
ATOM     10  C   UNL     1       9.006  11.549  18.102  0.00  0.00    +0.000 A 
ATOM     11  C   UNL     1       9.688  12.152  19.187  0.00  0.00    +0.000 A 
ATOM     12  C   UNL     1       9.831  11.169  20.130  0.00  0.00    +0.000 A 
ATOM     13  O   UNL     1       9.282  10.012  19.691  0.00  0.00    +0.000 OA
ENDBRANCH   8   9
ENDBRANCH   6   7
ENDBRANCH   3   5
BRANCH   2  14
ATOM     14  C   UNL     1       5.270   4.286  18.910  0.00  0.00    +0.000 C 
BRANCH  14  15
ATOM     15  C   UNL     1       3.904   4.537  19.481  0.00  0.00    +0.000 A 
ATOM     16  C   UNL     1       3.226   5.736  19.596  0.00  0.00    +0.000 A 
ATOM     17  C   UNL     1       1.951   5.583  20.213  0.00  0.00    +0.000 A 
ATOM     18  C   UNL     1       1.699   4.274  20.556  0.00  0.00    +0.000 A 
ATOM     19  S   UNL     1       2.992   3.239  20.131  0.00  0.00    +0.000 S 
ENDBRANCH  14  15
ENDBRANCH   2  14
TORSDOF 5
ENDMDL
MODEL 3
REMARK VINA RESULT:      -6.1      3.464      8.962
REMARK  Name = 
REMARK  5 active torsions:
REMARK  status: ('A' for Active; 'I' for Inactive)
REMARK    1  A    between atoms: C_2  and  C_3
REMARK    2  A    between atoms: C_3  and  C_4
REMARK    3  A    between atoms: N_9  and  N_10
REMARK    4  A    between atoms: C_11  and  C_12
REMARK    5  A    between atoms: C_13  and  C_14
REMARK                            x       y       z     vdW  Elec       q    Type
REMARK                         _______ _______ _______ _____ _____    ______ ____
ROOT
ATOM      1  O   UNL     1      11.051  11.694  20.000  0.00  0.00    +0.000 OA
ATOM      2  C   UNL     1      10.357  11.196  19.111  0.00  0.00    +0.000 C 
ATOM      3  N   UNL     1       9.412  10.247  19.427  0.00  0.00    +0.000 N 
ATOM      4  H   UNL     1       9.345   9.980  20.403  0.00  0.00    +0.000 HD
ENDROOT
BRANCH   3   5
ATOM      5  N   UNL     1       8.657   9.635  18.481  0.00  0.00    +0.000 NA
ATOM      6  C   UNL     1       8.550   8.350  18.582  0.00  0.00    +0.000 C 
BRANCH   6   7
ATOM      7  C   UNL     1       7.775   7.597  17.582  0.00  0.00    +0.000 C 
ATOM      8  C   UNL     1       7.350   6.351  17.831  0.00  0.00    +0.000 C 
BRANCH   8   9
ATOM      9  C   UNL     1       6.621   5.641  16.835  0.00  0.00    +0.000 A 
ATOM     10  C   UNL     1       5.754   4.565  16.985  0.00  0.00    +0.000 A 
ATOM     11  C   UNL     1       5.284   4.199  15.700  0.00  0.00    +0.000 A 
ATOM     12  C   UNL     1       5.880   5.067  14.824  0.00  0.00    +0.000 A 
ATOM     13  O   UNL     1       6.679   5.934  15.490  0.00  0.00    +0.000 OA
ENDBRANCH   8   9
ENDBRANCH   6   7
ENDBRANCH   3   5
BRANCH   2  14
ATOM     14  C   UNL     1      10.503  11.592  17.650  0.00  0.00    +0.000 C 
BRANCH  14  15
ATOM     15  C   UNL     1      10.646  13.081  17.522  0.00  0.00    +0.000 A 
ATOM     16  C   UNL     1      11.720  13.804  17.040  0.00  0.00    +0.000 A 
ATOM     17  C   UNL     1      11.496  15.210  17.093  0.00  0.00    +0.000 A 
ATOM     18  C   UNL     1      10.263  15.516  17.621  0.00  0.00    +0.000 A 
ATOM     19  S   UNL     1       9.381  14.114  18.045  0.00  0.00    +0.000 S 
ENDBRANCH  14  15
ENDBRANCH   2  14
TORSDOF 5
ENDMDL
MODEL 4
REMARK VINA RESULT:      -6.1      0.997      1.213
REMARK  Name = 
REMARK  5 active torsions:
REMARK  status: ('A' for Active; 'I' for Inactive)
REMARK    1  A    between atoms: C_2  and  C_3
REMARK    2  A    between atoms: C_3  and  C_4
REMARK    3  A    between atoms: N_9  and  N_10
REMARK    4  A    between atoms: C_11  and  C_12
REMARK    5  A    between atoms: C_13  and  C_14
REMARK                            x       y       z     vdW  Elec       q    Type
REMARK                         _______ _______ _______ _____ _____    ______ ____
ROOT
ATOM      1  O   UNL     1       5.130   4.231  16.062  0.00  0.00    +0.000 OA
ATOM      2  C   UNL     1       5.569   5.280  16.538  0.00  0.00    +0.000 C 
ATOM      3  N   UNL     1       6.773   5.781  16.100  0.00  0.00    +0.000 N 
ATOM      4  H   UNL     1       7.266   5.236  15.402  0.00  0.00    +0.000 HD
ENDROOT
BRANCH   3   5
ATOM      5  N   UNL     1       7.321   6.906  16.625  0.00  0.00    +0.000 NA
ATOM      6  C   UNL     1       7.760   6.811  17.838  0.00  0.00    +0.000 C 
BRANCH   6   7
ATOM      7  C   UNL     1       8.343   7.989  18.502  0.00  0.00    +0.000 C 
ATOM      8  C   UNL     1       8.356   9.187  17.902  0.00  0.00    +0.000 C 
BRANCH   8   9
ATOM      9  C   UNL     1       8.947  10.301  18.562  0.00  0.00    +0.000 A 
ATOM     10  C   UNL     1       9.355  10.420  19.886  0.00  0.00    +0.000 A 
ATOM     11  C   UNL     1       9.871  11.726  20.069  0.00  0.00    +0.000 A 
ATOM     12  C   UNL     1       9.760  12.345  18.853  0.00  0.00    +0.000 A 
ATOM     13  O   UNL     1       9.212  11.505  17.945  0.00  0.00    +0.000 OA
ENDBRANCH   8   9
ENDBRANCH   6   7
ENDBRANCH   3   5
BRANCH   2  14
ATOM     14  C   UNL     1       4.823   6.060  17.609  0.00  0.00    +0.000 C 
BRANCH  14  15
ATOM     15  C   UNL     1       3.766   5.201  18.242  0.00  0.00    +0.000 A 
ATOM     16  C   UNL     1       2.407   5.189  17.997  0.00  0.00    +0.000 A 
ATOM     17  C   UNL     1       1.716   4.246  18.812  0.00  0.00    +0.000 A 
ATOM     18  C   UNL     1       2.568   3.574  19.658  0.00  0.00    +0.000 A 
ATOM     19  S   UNL     1       4.191   4.077  19.465  0.00  0.00    +0.000 S 
ENDBRANCH  14  15
ENDBRANCH   2  14
TORSDOF 5
ENDMDL
MODEL 5
REMARK VINA RESULT:      -6.1      1.230      1.344
REMARK  Name = 
REMARK  5 active torsions:
REMARK  status: ('A' for Active; 'I' for Inactive)
REMARK    1  A    between atoms: C_2  and  C_3
REMARK    2  A    between atoms: C_3  and  C_4
REMARK    3  A    between atoms: N_9  and  N_10
REMARK    4  A    between atoms: C_11  and  C_12
REMARK    5  A    between atoms: C_13  and  C_14
REMARK                            x       y       z     vdW  Elec       q    Type
REMARK                         _______ _______ _______ _____ _____    ______ ____
ROOT
ATOM      1  O   UNL     1       5.048   4.740  16.308  0.00  0.00    +0.000 OA
ATOM      2  C   UNL     1       5.629   5.358  17.203  0.00  0.00    +0.000 C 
ATOM      3  N   UNL     1       6.108   6.626  16.962  0.00  0.00    +0.000 N 
ATOM      4  H   UNL     1       5.974   6.992  16.026  0.00  0.00    +0.000 HD
ENDROOT
BRANCH   3   5
ATOM      5  N   UNL     1       6.794   7.328  17.898  0.00  0.00    +0.000 NA
ATOM      6  C   UNL     1       7.747   8.083  17.456  0.00  0.00    +0.000 C 
BRANCH   6   7
ATOM      7  C   UNL     1       8.567   8.860  18.402  0.00  0.00    +0.000 C 
ATOM      8  C   UNL     1       8.806  10.163  18.202  0.00  0.00    +0.000 C 
BRANCH   8   9
ATOM      9  C   UNL     1       9.620  10.881  19.123  0.00  0.00    +0.000 A 
ATOM     10  C   UNL     1       9.362  11.209  20.449  0.00  0.00    +0.000 A 
ATOM     11  C   UNL     1      10.470  11.939  20.943  0.00  0.00    +0.000 A 
ATOM     12  C   UNL     1      11.355  12.023  19.901  0.00  0.00    +0.000 A 
ATOM     13  O   UNL     1      10.860  11.394  18.811  0.00  0.00    +0.000 OA
ENDBRANCH   8   9
ENDBRANCH   6   7
ENDBRANCH   3   5
BRANCH   2  14
ATOM     14  C   UNL     1       5.844   4.770  18.588  0.00  0.00    +0.000 C 
BRANCH  14  15
ATOM     15  C   UNL     1       4.525   4.492  19.250  0.00  0.00    +0.000 A 
ATOM     16  C   UNL     1       3.584   5.394  19.706  0.00  0.00    +0.000 A 
ATOM     17  C   UNL     1       2.459   4.753  20.301  0.00  0.00    +0.000 A 
ATOM     18  C   UNL     1       2.581   3.383  20.288  0.00  0.00    +0.000 A 
ATOM     19  S   UNL     1       4.041   2.876  19.557  0.00  0.00    +0.000 S 
ENDBRANCH  14  15
ENDBRANCH   2  14
TORSDOF 5
ENDMDL
MODEL 6
REMARK VINA RESULT:      -6.1      6.308      8.961
REMARK  Name = 
REMARK  5 active torsions:
REMARK  status: ('A' for Active; 'I' for Inactive)
REMARK    1  A    between atoms: C_2  and  C_3
REMARK    2  A    between atoms: C_3  and  C_4
REMARK    3  A    between atoms: N_9  and  N_10
REMARK    4  A    between atoms: C_11  and  C_12
REMARK    5  A    between atoms: C_13  and  C_14
REMARK                            x       y       z     vdW  Elec       q    Type
REMARK                         _______ _______ _______ _____ _____    ______ ____
ROOT
ATOM      1  O   UNL     1      -0.275  12.423  18.876  0.00  0.00    +0.000 OA
ATOM      2  C   UNL     1      -0.120  11.228  18.616  0.00  0.00    +0.000 C 
ATOM      3  N   UNL     1       1.106  10.772  18.189  0.00  0.00    +0.000 N 
ATOM      4  H   UNL     1       1.839  11.465  18.087  0.00  0.00    +0.000 HD
ENDROOT
BRANCH   3   5
ATOM      5  N   UNL     1       1.315   9.476  17.845  0.00  0.00    +0.000 NA
ATOM      6  C   UNL     1       2.493   9.005  18.096  0.00  0.00    +0.000 C 
BRANCH   6   7
ATOM      7  C   UNL     1       2.823   7.617  17.730  0.00  0.00    +0.000 C 
ATOM      8  C   UNL     1       2.196   6.582  18.304  0.00  0.00    +0.000 C 
BRANCH   8   9
ATOM      9  C   UNL     1       2.552   5.252  17.944  0.00  0.00    +0.000 A 
ATOM     10  C   UNL     1       1.735   4.138  17.788  0.00  0.00    +0.000 A 
ATOM     11  C   UNL     1       2.556   3.040  17.434  0.00  0.00    +0.000 A 
ATOM     12  C   UNL     1       3.834   3.529  17.386  0.00  0.00    +0.000 A 
ATOM     13  O   UNL     1       3.845   4.849  17.686  0.00  0.00    +0.000 OA
ENDBRANCH   8   9
ENDBRANCH   6   7
ENDBRANCH   3   5
BRANCH   2  14
ATOM     14  C   UNL     1      -1.247  10.216  18.746  0.00  0.00    +0.000 C 
BRANCH  14  15
ATOM     15  C   UNL     1      -2.287  10.450  17.689  0.00  0.00    +0.000 A 
ATOM     16  C   UNL     1      -2.264  10.071  16.360  0.00  0.00    +0.000 A 
ATOM     17  C   UNL     1      -3.429  10.491  15.655  0.00  0.00    +0.000 A 
ATOM     18  C   UNL     1      -4.299  11.183  16.465  0.00  0.00    +0.000 A 
ATOM     19  S   UNL     1      -3.716  11.320  18.066  0.00  0.00    +0.000 S 
ENDBRANCH  14  15
ENDBRANCH   2  14
TORSDOF 5
ENDMDL
MODEL 7
REMARK VINA RESULT:      -6.1      1.695      2.319
REMARK  Name = 
REMARK  5 active torsions:
REMARK  status: ('A' for Active; 'I' for Inactive)
REMARK    1  A    between atoms: C_2  and  C_3
REMARK    2  A    between atoms: C_3  and  C_4
REMARK    3  A    between atoms: N_9  and  N_10
REMARK    4  A    between atoms: C_11  and  C_12
REMARK    5  A    between atoms: C_13  and  C_14
REMARK                            x       y       z     vdW  Elec       q    Type
REMARK                         _______ _______ _______ _____ _____    ______ ____
ROOT
ATOM      1  O   UNL     1       3.678   4.407  17.089  0.00  0.00    +0.000 OA
ATOM      2  C   UNL     1       4.370   5.273  17.628  0.00  0.00    +0.000 C 
ATOM      3  N   UNL     1       5.104   6.145  16.857  0.00  0.00    +0.000 N 
ATOM      4  H   UNL     1       5.055   6.016  15.853  0.00  0.00    +0.000 HD
ENDROOT
BRANCH   3   5
ATOM      5  N   UNL     1       5.916   7.084  17.403  0.00  0.00    +0.000 NA
ATOM      6  C   UNL     1       7.186   6.845  17.338  0.00  0.00    +0.000 C 
BRANCH   6   7
ATOM      7  C   UNL     1       8.144   7.794  17.931  0.00  0.00    +0.000 C 
ATOM      8  C   UNL     1       7.911   9.113  17.917  0.00  0.00    +0.000 C 
BRANCH   8   9
ATOM      9  C   UNL     1       8.866  10.005  18.479  0.00  0.00    +0.000 A 
ATOM     10  C   UNL     1       9.735  10.878  17.835  0.00  0.00    +0.000 A 
ATOM     11  C   UNL     1      10.498  11.545  18.824  0.00  0.00    +0.000 A 
ATOM     12  C   UNL     1      10.062  11.055  20.026  0.00  0.00    +0.000 A 
ATOM     13  O   UNL     1       9.087  10.137  19.834  0.00  0.00    +0.000 OA
ENDBRANCH   8   9
ENDBRANCH   6   7
ENDBRANCH   3   5
BRANCH   2  14
ATOM     14  C   UNL     1       4.450   5.423  19.139  0.00  0.00    +0.000 C 
BRANCH  14  15
ATOM     15  C   UNL     1       3.417   4.561  19.807  0.00  0.00    +0.000 A 
ATOM     16  C   UNL     1       3.477   3.211  20.091  0.00  0.00    +0.000 A 
ATOM     17  C   UNL     1       2.289   2.734  20.716  0.00  0.00    +0.000 A 
ATOM     18  C   UNL     1       1.357   3.733  20.881  0.00  0.00    +0.000 A 
ATOM     19  S   UNL     1       1.917   5.236  20.290  0.00  0.00    +0.000 S 
ENDBRANCH  14  15
ENDBRANCH   2  14
TORSDOF 5
ENDMDL
MODEL 8
REMARK VINA RESULT:      -6.0      1.092      1.194
REMARK  Name = 
REMARK  5 active torsions:
REMARK  status: ('A' for Active; 'I' for Inactive)
REMARK    1  A    between atoms: C_2  and  C_3
REMARK    2  A    between atoms: C_3  and  C_4
REMARK    3  A    between atoms: N_9  and  N_10
REMARK    4  A    between atoms: C_11  and  C_12
REMARK    5  A    between atoms: C_13  and  C_14
REMARK                            x       y       z     vdW  Elec       q    Type
REMARK                         _______ _______ _______ _____ _____    ______ ____
ROOT
ATOM      1  O   UNL     1       6.470   4.163  16.863  0.00  0.00    +0.000 OA
ATOM      2  C   UNL     1       6.649   5.136  17.599  0.00  0.00    +0.000 C 
ATOM      3  N   UNL     1       7.549   6.113  17.238  0.00  0.00    +0.000 N 
ATOM      4  H   UNL     1       8.050   5.971  16.368  0.00  0.00    +0.000 HD
ENDROOT
BRANCH   3   5
ATOM      5  N   UNL     1       7.817   7.178  18.035  0.00  0.00    +0.000 NA
ATOM      6  C   UNL     1       7.836   8.332  17.452  0.00  0.00    +0.000 C 
BRANCH   6   7
ATOM      7  C   UNL     1       8.148   9.543  18.231  0.00  0.00    +0.000 C 
ATOM      8  C   UNL     1       9.312   9.666  18.883  0.00  0.00    +0.000 C 
BRANCH   8   9
ATOM      9  C   UNL     1       9.574  10.840  19.644  0.00  0.00    +0.000 A 
ATOM     10  C   UNL     1       9.257  11.113  20.970  0.00  0.00    +0.000 A 
ATOM     11  C   UNL     1       9.716  12.419  21.269  0.00  0.00    +0.000 A 
ATOM     12  C   UNL     1      10.295  12.884  20.118  0.00  0.00    +0.000 A 
ATOM     13  O   UNL     1      10.218  11.950  19.142  0.00  0.00    +0.000 OA
ENDBRANCH   8   9
ENDBRANCH   6   7
ENDBRANCH   3   5
BRANCH   2  14
ATOM     14  C   UNL     1       5.907   5.306  18.915  0.00  0.00    +0.000 C 
BRANCH  14  15
ATOM     15  C   UNL     1       4.450   4.992  18.739  0.00  0.00    +0.000 A 
ATOM     16  C   UNL     1       3.463   5.775  18.172  0.00  0.00    +0.000 A 
ATOM     17  C   UNL     1       2.185   5.145  18.201  0.00  0.00    +0.000 A 
ATOM     18  C   UNL     1       2.235   3.906  18.796  0.00  0.00    +0.000 A 
ATOM     19  S   UNL     1       3.815   3.505  19.310  0.00  0.00    +0.000 S 
ENDBRANCH  14  15
ENDBRANCH   2  14
TORSDOF 5
ENDMDL
MODEL 9
REMARK VINA RESULT:      -6.0      1.397      1.807
REMARK  Name = 
REMARK  5 active torsions:
REMARK  status: ('A' for Active; 'I' for Inactive)
REMARK    1  A    between atoms: C_2  and  C_3
REMARK    2  A    between atoms: C_3  and  C_4
REMARK    3  A    between atoms: N_9  and  N_10
REMARK    4  A    between atoms: C_11  and  C_12
REMARK    5  A    between atoms: C_13  and  C_14
REMARK                            x       y       z     vdW  Elec       q    Type
REMARK                         _______ _______ _______ _____ _____    ______ ____
ROOT
ATOM      1  O   UNL     1       5.107   3.894  16.419  0.00  0.00    +0.000 OA
ATOM      2  C   UNL     1       5.238   5.083  16.718  0.00  0.00    +0.000 C 
ATOM      3  N   UNL     1       6.298   5.804  16.218  0.00  0.00    +0.000 N 
ATOM      4  H   UNL     1       6.951   5.302  15.627  0.00  0.00    +0.000 HD
ENDROOT
BRANCH   3   5
ATOM      5  N   UNL     1       6.511   7.101  16.554  0.00  0.00    +0.000 NA
ATOM      6  C   UNL     1       7.465   7.319  17.400  0.00  0.00    +0.000 C 
BRANCH   6   7
ATOM      7  C   UNL     1       7.751   8.693  17.847  0.00  0.00    +0.000 C 
ATOM      8  C   UNL     1       8.846   8.974  18.565  0.00  0.00    +0.000 C 
BRANCH   8   9
ATOM      9  C   UNL     1       9.083  10.308  19.000  0.00  0.00    +0.000 A 
ATOM     10  C   UNL     1       9.180  11.471  18.245  0.00  0.00    +0.000 A 
ATOM     11  C   UNL     1       9.434  12.547  19.130  0.00  0.00    +0.000 A 
ATOM     12  C   UNL     1       9.477  11.997  20.384  0.00  0.00    +0.000 A 
ATOM     13  O   UNL     1       9.267  10.662  20.319  0.00  0.00    +0.000 OA
ENDBRANCH   8   9
ENDBRANCH   6   7
ENDBRANCH   3   5
BRANCH   2  14
ATOM     14  C   UNL     1       4.260   5.801  17.634  0.00  0.00    +0.000 C 
BRANCH  14  15
ATOM     15  C   UNL     1       3.478   4.810  18.447  0.00  0.00    +0.000 A 
ATOM     16  C   UNL     1       3.857   4.157  19.604  0.00  0.00    +0.000 A 
ATOM     17  C   UNL     1       2.851   3.268  20.080  0.00  0.00    +0.000 A 
ATOM     18  C   UNL     1       1.740   3.265  19.269  0.00  0.00    +0.000 A 
ATOM     19  S   UNL     1       1.910   4.332  17.944  0.00  0.00    +0.000 S 
ENDBRANCH  14  15
ENDBRANCH   2  14
TORSDOF 5
ENDMDL
