MODEL 1
REMARK VINA RESULT:      -8.5      0.000      0.000
REMARK  Name = 
REMARK  9 active torsions:
REMARK  status: ('A' for Active; 'I' for Inactive)
REMARK    1  A    between atoms: C_1  and  C_2
REMARK    2  A    between atoms: C_2  and  O_3
REMARK    3  A    between atoms: O_3  and  C_4
REMARK    4  A    between atoms: C_4  and  C_6
REMARK    5  A    between atoms: C_9  and  N_10
REMARK    6  A    between atoms: C_11  and  C_13
REMARK    7  A    between atoms: C_16  and  C_17
REMARK    8  A    between atoms: C_18  and  S_19
REMARK    9  A    between atoms: S_19  and  N_22
REMARK                            x       y       z     vdW  Elec       q    Type
REMARK                         _______ _______ _______ _____ _____    ______ ____
ROOT
ATOM      1  C   UNL     1       2.175   6.421  20.127  0.00  0.00    +0.000 A 
ATOM      2  C   UNL     1       1.583   5.418  20.900  0.00  0.00    +0.000 A 
ATOM      3  C   UNL     1       2.081   4.107  20.879  0.00  0.00    +0.000 A 
ATOM      4  C   UNL     1       3.167   3.755  20.057  0.00  0.00    +0.000 A 
ATOM      5  C   UNL     1       3.560   2.306  19.982  0.00  0.00    +0.000 C 
ATOM      6  C   UNL     1       3.767   4.763  19.283  0.00  0.00    +0.000 A 
ATOM      7  C   UNL     1       3.299   6.099  19.353  0.00  0.00    +0.000 A 
ENDROOT
BRANCH   1   9
ATOM      8  N   UNL     1       0.740   8.097  21.238  0.00  0.00    +0.000 N 
ATOM      9  C   UNL     1       1.550   7.798  20.149  0.00  0.00    +0.000 C 
ATOM     10  O   UNL     1       1.840   8.548  19.232  0.00  0.00    +0.000 OA
ATOM     11  H   UNL     1       0.667   7.412  21.979  0.00  0.00    +0.000 HD
BRANCH   8  15
ATOM     12  C   UNL     1      -1.366  11.716  22.070  0.00  0.00    +0.000 A 
ATOM     13  C   UNL     1      -0.988  11.415  20.758  0.00  0.00    +0.000 A 
ATOM     14  C   UNL     1      -0.291  10.229  20.465  0.00  0.00    +0.000 A 
ATOM     15  C   UNL     1       0.045   9.321  21.471  0.00  0.00    +0.000 A 
ATOM     16  C   UNL     1      -0.331   9.631  22.787  0.00  0.00    +0.000 A 
ATOM     17  C   UNL     1      -1.027  10.814  23.086  0.00  0.00    +0.000 A 
BRANCH  12  18
ATOM     18  C   UNL     1      -2.110  12.988  22.312  0.00  0.00    +0.000 C 
ATOM     19  O   UNL     1      -2.621  13.653  21.435  0.00  0.00    +0.000 OA
BRANCH  18  20
ATOM     20  O   UNL     1      -2.117  13.286  23.644  0.00  0.00    +0.000 OA
BRANCH  20  22
ATOM     21  C   UNL     1      -4.226  12.484  24.546  0.00  0.00    +0.000 C 
ATOM     22  C   UNL     1      -3.384  13.694  24.189  0.00  0.00    +0.000 C 
ENDBRANCH  20  22
ENDBRANCH  18  20
ENDBRANCH  12  18
ENDBRANCH   8  15
ENDBRANCH   1   9
BRANCH   6  23
ATOM     23  S   UNL     1       4.927   4.384  17.966  0.00  0.00    +0.000 S 
ATOM     24  O   UNL     1       6.228   4.268  18.591  0.00  0.00    +0.000 OA
ATOM     25  O   UNL     1       4.376   3.252  17.250  0.00  0.00    +0.000 OA
BRANCH  23  26
ATOM     26  N   UNL     1       4.996   5.705  16.888  0.00  0.00    +0.000 NA
ATOM     27  C   UNL     1       5.271   5.446  15.444  0.00  0.00    +0.000 C 
ATOM     28  C   UNL     1       6.731   5.047  15.212  0.00  0.00    +0.000 C 
ATOM     29  O   UNL     1       7.656   6.009  15.742  0.00  0.00    +0.000 OA
ATOM     30  C   UNL     1       7.404   6.377  17.106  0.00  0.00    +0.000 C 
ATOM     31  C   UNL     1       5.943   6.793  17.332  0.00  0.00    +0.000 C 
ENDBRANCH  23  26
ENDBRANCH   6  23
TORSDOF 7
ENDMDL
MODEL 2
REMARK VINA RESULT:      -8.2      3.183     10.294
REMARK  Name = 
REMARK  9 active torsions:
REMARK  status: ('A' for Active; 'I' for Inactive)
REMARK    1  A    between atoms: C_1  and  C_2
REMARK    2  A    between atoms: C_2  and  O_3
REMARK    3  A    between atoms: O_3  and  C_4
REMARK    4  A    between atoms: C_4  and  C_6
REMARK    5  A    between atoms: C_9  and  N_10
REMARK    6  A    between atoms: C_11  and  C_13
REMARK    7  A    between atoms: C_16  and  C_17
REMARK    8  A    between atoms: C_18  and  S_19
REMARK    9  A    between atoms: S_19  and  N_22
REMARK                            x       y       z     vdW  Elec       q    Type
REMARK                         _______ _______ _______ _____ _____    ______ ____
ROOT
ATOM      1  C   UNL     1       1.321   8.907  19.592  0.00  0.00    +0.000 A 
ATOM      2  C   UNL     1       1.098   8.092  20.705  0.00  0.00    +0.000 A 
ATOM      3  C   UNL     1       0.363   8.561  21.803  0.00  0.00    +0.000 A 
ATOM      4  C   UNL     1      -0.143   9.874  21.831  0.00  0.00    +0.000 A 
ATOM      5  C   UNL     1      -0.803  10.353  23.094  0.00  0.00    +0.000 C 
ATOM      6  C   UNL     1       0.076  10.693  20.711  0.00  0.00    +0.000 A 
ATOM      7  C   UNL     1       0.768  10.195  19.578  0.00  0.00    +0.000 A 
ENDROOT
BRANCH   1   9
ATOM      8  N   UNL     1       2.867   7.182  18.730  0.00  0.00    +0.000 N 
ATOM      9  C   UNL     1       2.175   8.359  18.469  0.00  0.00    +0.000 C 
ATOM     10  O   UNL     1       2.155   8.972  17.414  0.00  0.00    +0.000 OA
ATOM     11  H   UNL     1       2.712   6.727  19.619  0.00  0.00    +0.000 HD
BRANCH   8  15
ATOM     12  C   UNL     1       5.510   5.226  16.007  0.00  0.00    +0.000 A 
ATOM     13  C   UNL     1       4.477   4.506  16.616  0.00  0.00    +0.000 A 
ATOM     14  C   UNL     1       3.599   5.132  17.518  0.00  0.00    +0.000 A 
ATOM     15  C   UNL     1       3.731   6.487  17.833  0.00  0.00    +0.000 A 
ATOM     16  C   UNL     1       4.773   7.203  17.224  0.00  0.00    +0.000 A 
ATOM     17  C   UNL     1       5.654   6.583  16.323  0.00  0.00    +0.000 A 
BRANCH  12  18
ATOM     18  C   UNL     1       6.403   4.503  15.054  0.00  0.00    +0.000 C 
ATOM     19  O   UNL     1       7.614   4.570  15.073  0.00  0.00    +0.000 OA
BRANCH  18  20
ATOM     20  O   UNL     1       5.660   3.777  14.168  0.00  0.00    +0.000 OA
BRANCH  20  22
ATOM     21  C   UNL     1       5.171   3.130  11.877  0.00  0.00    +0.000 C 
ATOM     22  C   UNL     1       6.222   3.629  12.852  0.00  0.00    +0.000 C 
ENDBRANCH  20  22
ENDBRANCH  18  20
ENDBRANCH  12  18
ENDBRANCH   8  15
ENDBRANCH   1   9
BRANCH   6  23
ATOM     23  S   UNL     1      -0.224  12.463  20.757  0.00  0.00    +0.000 S 
ATOM     24  O   UNL     1      -1.655  12.636  20.609  0.00  0.00    +0.000 OA
ATOM     25  O   UNL     1       0.435  12.958  21.947  0.00  0.00    +0.000 OA
BRANCH  23  26
ATOM     26  N   UNL     1       0.519  13.188  19.403  0.00  0.00    +0.000 NA
ATOM     27  C   UNL     1       1.910  13.712  19.536  0.00  0.00    +0.000 C 
ATOM     28  C   UNL     1       1.953  14.992  20.375  0.00  0.00    +0.000 C 
ATOM     29  O   UNL     1       1.071  16.009  19.873  0.00  0.00    +0.000 OA
ATOM     30  C   UNL     1      -0.270  15.559  19.635  0.00  0.00    +0.000 C 
ATOM     31  C   UNL     1      -0.310  14.285  18.779  0.00  0.00    +0.000 C 
ENDBRANCH  23  26
ENDBRANCH   6  23
TORSDOF 7
ENDMDL
MODEL 3
REMARK VINA RESULT:      -8.2      0.984      1.377
REMARK  Name = 
REMARK  9 active torsions:
REMARK  status: ('A' for Active; 'I' for Inactive)
REMARK    1  A    between atoms: C_1  and  C_2
REMARK    2  A    between atoms: C_2  and  O_3
REMARK    3  A    between atoms: O_3  and  C_4
REMARK    4  A    between atoms: C_4  and  C_6
REMARK    5  A    between atoms: C_9  and  N_10
REMARK    6  A    between atoms: C_11  and  C_13
REMARK    7  A    between atoms: C_16  and  C_17
REMARK    8  A    between atoms: C_18  and  S_19
REMARK    9  A    between atoms: S_19  and  N_22
REMARK                            x       y       z     vdW  Elec       q    Type
REMARK                         _______ _______ _______ _____ _____    ______ ____
ROOT
ATOM      1  C   UNL     1       2.260   6.296  20.145  0.00  0.00    +0.000 A 
ATOM      2  C   UNL     1       1.628   5.254  20.831  0.00  0.00    +0.000 A 
ATOM      3  C   UNL     1       2.094   3.936  20.724  0.00  0.00    +0.000 A 
ATOM      4  C   UNL     1       3.189   3.618  19.899  0.00  0.00    +0.000 A 
ATOM      5  C   UNL     1       3.550   2.168  19.726  0.00  0.00    +0.000 C 
ATOM      6  C   UNL     1       3.829   4.663  19.213  0.00  0.00    +0.000 A 
ATOM      7  C   UNL     1       3.391   6.003  19.371  0.00  0.00    +0.000 A 
ENDROOT
BRANCH   1   9
ATOM      8  N   UNL     1       1.120   8.030  21.486  0.00  0.00    +0.000 N 
ATOM      9  C   UNL     1       1.667   7.683  20.256  0.00  0.00    +0.000 C 
ATOM     10  O   UNL     1       1.754   8.398  19.271  0.00  0.00    +0.000 OA
ATOM     11  H   UNL     1       1.206   7.371  22.248  0.00  0.00    +0.000 HD
BRANCH   8  15
ATOM     12  C   UNL     1      -0.626  11.814  22.414  0.00  0.00    +0.000 A 
ATOM     13  C   UNL     1      -1.021  10.672  23.117  0.00  0.00    +0.000 A 
ATOM     14  C   UNL     1      -0.460   9.416  22.823  0.00  0.00    +0.000 A 
ATOM     15  C   UNL     1       0.505   9.272  21.823  0.00  0.00    +0.000 A 
ATOM     16  C   UNL     1       0.894  10.420  21.116  0.00  0.00    +0.000 A 
ATOM     17  C   UNL     1       0.336  11.677  21.405  0.00  0.00    +0.000 A 
BRANCH  12  18
ATOM     18  C   UNL     1      -1.256  13.117  22.780  0.00  0.00    +0.000 C 
ATOM     19  O   UNL     1      -0.648  14.058  23.246  0.00  0.00    +0.000 OA
BRANCH  18  20
ATOM     20  O   UNL     1      -2.597  13.083  22.525  0.00  0.00    +0.000 OA
BRANCH  20  22
ATOM     21  C   UNL     1      -4.456  12.800  20.986  0.00  0.00    +0.000 C 
ATOM     22  C   UNL     1      -2.969  13.065  21.136  0.00  0.00    +0.000 C 
ENDBRANCH  20  22
ENDBRANCH  18  20
ENDBRANCH  12  18
ENDBRANCH   8  15
ENDBRANCH   1   9
BRANCH   6  23
ATOM     23  S   UNL     1       5.007   4.352  17.894  0.00  0.00    +0.000 S 
ATOM     24  O   UNL     1       6.306   4.251  18.525  0.00  0.00    +0.000 OA
ATOM     25  O   UNL     1       4.490   3.228  17.142  0.00  0.00    +0.000 OA
BRANCH  23  26
ATOM     26  N   UNL     1       5.049   5.706  16.855  0.00  0.00    +0.000 NA
ATOM     27  C   UNL     1       5.301   5.491  15.399  0.00  0.00    +0.000 C 
ATOM     28  C   UNL     1       6.759   5.109  15.130  0.00  0.00    +0.000 C 
ATOM     29  O   UNL     1       7.687   6.061  15.673  0.00  0.00    +0.000 OA
ATOM     30  C   UNL     1       7.456   6.386  17.051  0.00  0.00    +0.000 C 
ATOM     31  C   UNL     1       5.998   6.786  17.315  0.00  0.00    +0.000 C 
ENDBRANCH  23  26
ENDBRANCH   6  23
TORSDOF 7
ENDMDL
MODEL 4
REMARK VINA RESULT:      -8.2      1.062      1.552
REMARK  Name = 
REMARK  9 active torsions:
REMARK  status: ('A' for Active; 'I' for Inactive)
REMARK    1  A    between atoms: C_1  and  C_2
REMARK    2  A    between atoms: C_2  and  O_3
REMARK    3  A    between atoms: O_3  and  C_4
REMARK    4  A    between atoms: C_4  and  C_6
REMARK    5  A    between atoms: C_9  and  N_10
REMARK    6  A    between atoms: C_11  and  C_13
REMARK    7  A    between atoms: C_16  and  C_17
REMARK    8  A    between atoms: C_18  and  S_19
REMARK    9  A    between atoms: S_19  and  N_22
REMARK                            x       y       z     vdW  Elec       q    Type
REMARK                         _______ _______ _______ _____ _____    ______ ____
ROOT
ATOM      1  C   UNL     1       2.187   6.823  20.006  0.00  0.00    +0.000 A 
ATOM      2  C   UNL     1       1.852   5.800  20.897  0.00  0.00    +0.000 A 
ATOM      3  C   UNL     1       2.398   4.516  20.755  0.00  0.00    +0.000 A 
ATOM      4  C   UNL     1       3.272   4.212  19.695  0.00  0.00    +0.000 A 
ATOM      5  C   UNL     1       3.711   2.784  19.525  0.00  0.00    +0.000 C 
ATOM      6  C   UNL     1       3.614   5.240  18.801  0.00  0.00    +0.000 A 
ATOM      7  C   UNL     1       3.106   6.551  18.983  0.00  0.00    +0.000 A 
ENDROOT
BRANCH   1   9
ATOM      8  N   UNL     1       1.050   8.471  21.455  0.00  0.00    +0.000 N 
ATOM      9  C   UNL     1       1.514   8.167  20.180  0.00  0.00    +0.000 C 
ATOM     10  O   UNL     1       1.470   8.891  19.199  0.00  0.00    +0.000 OA
ATOM     11  H   UNL     1       1.244   7.815  22.200  0.00  0.00    +0.000 HD
BRANCH   8  15
ATOM     12  C   UNL     1      -1.034  11.971  22.732  0.00  0.00    +0.000 A 
ATOM     13  C   UNL     1      -0.095  12.056  21.701  0.00  0.00    +0.000 A 
ATOM     14  C   UNL     1       0.604  10.915  21.268  0.00  0.00    +0.000 A 
ATOM     15  C   UNL     1       0.383   9.666  21.855  0.00  0.00    +0.000 A 
ATOM     16  C   UNL     1      -0.556   9.587  22.895  0.00  0.00    +0.000 A 
ATOM     17  C   UNL     1      -1.257  10.724  23.331  0.00  0.00    +0.000 A 
BRANCH  12  18
ATOM     18  C   UNL     1      -1.746  13.219  23.139  0.00  0.00    +0.000 C 
ATOM     19  O   UNL     1      -1.204  14.172  23.658  0.00  0.00    +0.000 OA
BRANCH  18  20
ATOM     20  O   UNL     1      -3.077  13.118  22.852  0.00  0.00    +0.000 OA
BRANCH  20  22
ATOM     21  C   UNL     1      -4.463  12.505  24.751  0.00  0.00    +0.000 C 
ATOM     22  C   UNL     1      -3.974  13.627  23.854  0.00  0.00    +0.000 C 
ENDBRANCH  20  22
ENDBRANCH  18  20
ENDBRANCH  12  18
ENDBRANCH   8  15
ENDBRANCH   1   9
BRANCH   6  23
ATOM     23  S   UNL     1       4.440   4.906  17.242  0.00  0.00    +0.000 S 
ATOM     24  O   UNL     1       3.844   3.695  16.718  0.00  0.00    +0.000 OA
ATOM     25  O   UNL     1       4.366   6.129  16.471  0.00  0.00    +0.000 OA
BRANCH  23  26
ATOM     26  N   UNL     1       6.086   4.574  17.545  0.00  0.00    +0.000 NA
ATOM     27  C   UNL     1       6.920   5.610  18.223  0.00  0.00    +0.000 C 
ATOM     28  C   UNL     1       7.223   6.787  17.291  0.00  0.00    +0.000 C 
ATOM     29  O   UNL     1       7.830   6.371  16.058  0.00  0.00    +0.000 OA
ATOM     30  C   UNL     1       7.131   5.313  15.387  0.00  0.00    +0.000 C 
ATOM     31  C   UNL     1       6.844   4.127  16.319  0.00  0.00    +0.000 C 
ENDBRANCH  23  26
ENDBRANCH   6  23
TORSDOF 7
ENDMDL
MODEL 5
REMARK VINA RESULT:      -8.1      0.894      1.290
REMARK  Name = 
REMARK  9 active torsions:
REMARK  status: ('A' for Active; 'I' for Inactive)
REMARK    1  A    between atoms: C_1  and  C_2
REMARK    2  A    between atoms: C_2  and  O_3
REMARK    3  A    between atoms: O_3  and  C_4
REMARK    4  A    between atoms: C_4  and  C_6
REMARK    5  A    between atoms: C_9  and  N_10
REMARK    6  A    between atoms: C_11  and  C_13
REMARK    7  A    between atoms: C_16  and  C_17
REMARK    8  A    between atoms: C_18  and  S_19
REMARK    9  A    between atoms: S_19  and  N_22
REMARK                            x       y       z     vdW  Elec       q    Type
REMARK                         _______ _______ _______ _____ _____    ______ ____
ROOT
ATOM      1  C   UNL     1       2.179   6.379  20.118  0.00  0.00    +0.000 A 
ATOM      2  C   UNL     1       1.486   5.325  20.720  0.00  0.00    +0.000 A 
ATOM      3  C   UNL     1       1.972   4.011  20.647  0.00  0.00    +0.000 A 
ATOM      4  C   UNL     1       3.150   3.711  19.938  0.00  0.00    +0.000 A 
ATOM      5  C   UNL     1       3.537   2.265  19.786  0.00  0.00    +0.000 C 
ATOM      6  C   UNL     1       3.850   4.769  19.336  0.00  0.00    +0.000 A 
ATOM      7  C   UNL     1       3.388   6.103  19.463  0.00  0.00    +0.000 A 
ENDROOT
BRANCH   1   9
ATOM      8  N   UNL     1       0.759   8.034  21.280  0.00  0.00    +0.000 N 
ATOM      9  C   UNL     1       1.568   7.761  20.182  0.00  0.00    +0.000 C 
ATOM     10  O   UNL     1       1.866   8.537  19.289  0.00  0.00    +0.000 OA
ATOM     11  H   UNL     1       0.679   7.327  21.998  0.00  0.00    +0.000 HD
BRANCH   8  15
ATOM     12  C   UNL     1      -1.319  11.642  22.219  0.00  0.00    +0.000 A 
ATOM     13  C   UNL     1      -0.872  11.414  20.915  0.00  0.00    +0.000 A 
ATOM     14  C   UNL     1      -0.183  10.234  20.586  0.00  0.00    +0.000 A 
ATOM     15  C   UNL     1       0.077   9.256  21.551  0.00  0.00    +0.000 A 
ATOM     16  C   UNL     1      -0.369   9.493  22.860  0.00  0.00    +0.000 A 
ATOM     17  C   UNL     1      -1.057  10.671  23.194  0.00  0.00    +0.000 A 
BRANCH  12  18
ATOM     18  C   UNL     1      -2.051  12.914  22.500  0.00  0.00    +0.000 C 
ATOM     19  O   UNL     1      -1.972  13.527  23.543  0.00  0.00    +0.000 OA
BRANCH  18  20
ATOM     20  O   UNL     1      -2.815  13.266  21.424  0.00  0.00    +0.000 OA
BRANCH  20  22
ATOM     21  C   UNL     1      -4.752  12.548  20.145  0.00  0.00    +0.000 C 
ATOM     22  C   UNL     1      -4.211  12.929  21.510  0.00  0.00    +0.000 C 
ENDBRANCH  20  22
ENDBRANCH  18  20
ENDBRANCH  12  18
ENDBRANCH   8  15
ENDBRANCH   1   9
BRANCH   6  23
ATOM     23  S   UNL     1       5.162   4.482  18.144  0.00  0.00    +0.000 S 
ATOM     24  O   UNL     1       6.305   4.016  18.903  0.00  0.00    +0.000 OA
ATOM     25  O   UNL     1       4.599   3.637  17.112  0.00  0.00    +0.000 OA
BRANCH  23  26
ATOM     26  N   UNL     1       5.598   5.968  17.428  0.00  0.00    +0.000 NA
ATOM     27  C   UNL     1       4.908   6.397  16.176  0.00  0.00    +0.000 C 
ATOM     28  C   UNL     1       5.360   5.566  14.971  0.00  0.00    +0.000 C 
ATOM     29  O   UNL     1       6.786   5.578  14.797  0.00  0.00    +0.000 OA
ATOM     30  C   UNL     1       7.525   5.259  15.985  0.00  0.00    +0.000 C 
ATOM     31  C   UNL     1       7.082   6.106  17.187  0.00  0.00    +0.000 C 
ENDBRANCH  23  26
ENDBRANCH   6  23
TORSDOF 7
ENDMDL
MODEL 6
REMARK VINA RESULT:      -8.1      0.924      1.474
REMARK  Name = 
REMARK  9 active torsions:
REMARK  status: ('A' for Active; 'I' for Inactive)
REMARK    1  A    between atoms: C_1  and  C_2
REMARK    2  A    between atoms: C_2  and  O_3
REMARK    3  A    between atoms: O_3  and  C_4
REMARK    4  A    between atoms: C_4  and  C_6
REMARK    5  A    between atoms: C_9  and  N_10
REMARK    6  A    between atoms: C_11  and  C_13
REMARK    7  A    between atoms: C_16  and  C_17
REMARK    8  A    between atoms: C_18  and  S_19
REMARK    9  A    between atoms: S_19  and  N_22
REMARK                            x       y       z     vdW  Elec       q    Type
REMARK                         _______ _______ _______ _____ _____    ______ ____
ROOT
ATOM      1  C   UNL     1       2.206   6.411  20.110  0.00  0.00    +0.000 A 
ATOM      2  C   UNL     1       1.559   5.402  20.829  0.00  0.00    +0.000 A 
ATOM      3  C   UNL     1       2.004   4.074  20.763  0.00  0.00    +0.000 A 
ATOM      4  C   UNL     1       3.092   3.712  19.947  0.00  0.00    +0.000 A 
ATOM      5  C   UNL     1       3.428   2.252  19.820  0.00  0.00    +0.000 C 
ATOM      6  C   UNL     1       3.747   4.725  19.228  0.00  0.00    +0.000 A 
ATOM      7  C   UNL     1       3.331   6.075  19.344  0.00  0.00    +0.000 A 
ENDROOT
BRANCH   1   9
ATOM      8  N   UNL     1       1.032   8.180  21.374  0.00  0.00    +0.000 N 
ATOM      9  C   UNL     1       1.636   7.810  20.178  0.00  0.00    +0.000 C 
ATOM     10  O   UNL     1       1.788   8.514  19.193  0.00  0.00    +0.000 OA
ATOM     11  H   UNL     1       1.066   7.527  22.145  0.00  0.00    +0.000 HD
BRANCH   8  15
ATOM     12  C   UNL     1      -0.863  11.877  22.354  0.00  0.00    +0.000 A 
ATOM     13  C   UNL     1      -0.052  11.789  21.219  0.00  0.00    +0.000 A 
ATOM     14  C   UNL     1       0.584  10.581  20.881  0.00  0.00    +0.000 A 
ATOM     15  C   UNL     1       0.426   9.437  21.668  0.00  0.00    +0.000 A 
ATOM     16  C   UNL     1      -0.385   9.532  22.809  0.00  0.00    +0.000 A 
ATOM     17  C   UNL     1      -1.023  10.737  23.151  0.00  0.00    +0.000 A 
BRANCH  12  18
ATOM     18  C   UNL     1      -1.515  13.188  22.651  0.00  0.00    +0.000 C 
ATOM     19  O   UNL     1      -2.106  13.434  23.682  0.00  0.00    +0.000 OA
BRANCH  18  20
ATOM     20  O   UNL     1      -1.355  14.045  21.601  0.00  0.00    +0.000 OA
BRANCH  20  22
ATOM     21  C   UNL     1       0.597  15.340  22.248  0.00  0.00    +0.000 C 
ATOM     22  C   UNL     1      -0.887  15.364  21.934  0.00  0.00    +0.000 C 
ENDBRANCH  20  22
ENDBRANCH  18  20
ENDBRANCH  12  18
ENDBRANCH   8  15
ENDBRANCH   1   9
BRANCH   6  23
ATOM     23  S   UNL     1       4.917   4.353  17.918  0.00  0.00    +0.000 S 
ATOM     24  O   UNL     1       6.210   4.211  18.556  0.00  0.00    +0.000 OA
ATOM     25  O   UNL     1       4.361   3.239  17.178  0.00  0.00    +0.000 OA
BRANCH  23  26
ATOM     26  N   UNL     1       5.014   5.690  16.862  0.00  0.00    +0.000 NA
ATOM     27  C   UNL     1       5.282   5.449  15.413  0.00  0.00    +0.000 C 
ATOM     28  C   UNL     1       6.732   5.021  15.172  0.00  0.00    +0.000 C 
ATOM     29  O   UNL     1       7.679   5.954  15.717  0.00  0.00    +0.000 OA
ATOM     30  C   UNL     1       7.437   6.304  17.087  0.00  0.00    +0.000 C 
ATOM     31  C   UNL     1       5.986   6.749  17.323  0.00  0.00    +0.000 C 
ENDBRANCH  23  26
ENDBRANCH   6  23
TORSDOF 7
ENDMDL
MODEL 7
REMARK VINA RESULT:      -8.1      1.061      1.132
REMARK  Name = 
REMARK  9 active torsions:
REMARK  status: ('A' for Active; 'I' for Inactive)
REMARK    1  A    between atoms: C_1  and  C_2
REMARK    2  A    between atoms: C_2  and  O_3
REMARK    3  A    between atoms: O_3  and  C_4
REMARK    4  A    between atoms: C_4  and  C_6
REMARK    5  A    between atoms: C_9  and  N_10
REMARK    6  A    between atoms: C_11  and  C_13
REMARK    7  A    between atoms: C_16  and  C_17
REMARK    8  A    between atoms: C_18  and  S_19
REMARK    9  A    between atoms: S_19  and  N_22
REMARK                            x       y       z     vdW  Elec       q    Type
REMARK                         _______ _______ _______ _____ _____    ______ ____
ROOT
ATOM      1  C   UNL     1       1.863   6.191  20.148  0.00  0.00    +0.000 A 
ATOM      2  C   UNL     1       0.887   5.283  20.569  0.00  0.00    +0.000 A 
ATOM      3  C   UNL     1       1.084   3.901  20.433  0.00  0.00    +0.000 A 
ATOM      4  C   UNL     1       2.254   3.390  19.841  0.00  0.00    +0.000 A 
ATOM      5  C   UNL     1       2.339   1.907  19.604  0.00  0.00    +0.000 C 
ATOM      6  C   UNL     1       3.238   4.300  19.422  0.00  0.00    +0.000 A 
ATOM      7  C   UNL     1       3.060   5.693  19.616  0.00  0.00    +0.000 A 
ENDROOT
BRANCH   1   9
ATOM      8  N   UNL     1       0.654   8.041  21.254  0.00  0.00    +0.000 N 
ATOM      9  C   UNL     1       1.559   7.668  20.267  0.00  0.00    +0.000 C 
ATOM     10  O   UNL     1       2.163   8.415  19.516  0.00  0.00    +0.000 OA
ATOM     11  H   UNL     1       0.304   7.322  21.874  0.00  0.00    +0.000 HD
BRANCH   8  15
ATOM     12  C   UNL     1      -0.733  11.953  22.250  0.00  0.00    +0.000 A 
ATOM     13  C   UNL     1      -0.129  11.722  21.011  0.00  0.00    +0.000 A 
ATOM     14  C   UNL     1       0.338  10.441  20.666  0.00  0.00    +0.000 A 
ATOM     15  C   UNL     1       0.213   9.364  21.548  0.00  0.00    +0.000 A 
ATOM     16  C   UNL     1      -0.390   9.603  22.793  0.00  0.00    +0.000 A 
ATOM     17  C   UNL     1      -0.857  10.881  23.143  0.00  0.00    +0.000 A 
BRANCH  12  18
ATOM     18  C   UNL     1      -1.213  13.335  22.551  0.00  0.00    +0.000 C 
ATOM     19  O   UNL     1      -1.801  14.037  21.756  0.00  0.00    +0.000 OA
BRANCH  18  20
ATOM     20  O   UNL     1      -0.884  13.682  23.830  0.00  0.00    +0.000 OA
BRANCH  20  22
ATOM     21  C   UNL     1      -2.759  14.751  24.945  0.00  0.00    +0.000 C 
ATOM     22  C   UNL     1      -1.403  14.941  24.290  0.00  0.00    +0.000 C 
ENDBRANCH  20  22
ENDBRANCH  18  20
ENDBRANCH  12  18
ENDBRANCH   8  15
ENDBRANCH   1   9
BRANCH   6  23
ATOM     23  S   UNL     1       4.604   3.801  18.369  0.00  0.00    +0.000 S 
ATOM     24  O   UNL     1       5.601   3.219  19.244  0.00  0.00    +0.000 OA
ATOM     25  O   UNL     1       4.031   3.000  17.308  0.00  0.00    +0.000 OA
BRANCH  23  26
ATOM     26  N   UNL     1       5.298   5.191  17.662  0.00  0.00    +0.000 NA
ATOM     27  C   UNL     1       5.500   5.225  16.183  0.00  0.00    +0.000 C 
ATOM     28  C   UNL     1       6.646   4.307  15.750  0.00  0.00    +0.000 C 
ATOM     29  O   UNL     1       7.873   4.595  16.439  0.00  0.00    +0.000 OA
ATOM     30  C   UNL     1       7.743   4.666  17.867  0.00  0.00    +0.000 C 
ATOM     31  C   UNL     1       6.604   5.601  18.298  0.00  0.00    +0.000 C 
ENDBRANCH  23  26
ENDBRANCH   6  23
TORSDOF 7
ENDMDL
MODEL 8
REMARK VINA RESULT:      -8.0      3.182     10.274
REMARK  Name = 
REMARK  9 active torsions:
REMARK  status: ('A' for Active; 'I' for Inactive)
REMARK    1  A    between atoms: C_1  and  C_2
REMARK    2  A    between atoms: C_2  and  O_3
REMARK    3  A    between atoms: O_3  and  C_4
REMARK    4  A    between atoms: C_4  and  C_6
REMARK    5  A    between atoms: C_9  and  N_10
REMARK    6  A    between atoms: C_11  and  C_13
REMARK    7  A    between atoms: C_16  and  C_17
REMARK    8  A    between atoms: C_18  and  S_19
REMARK    9  A    between atoms: S_19  and  N_22
REMARK                            x       y       z     vdW  Elec       q    Type
REMARK                         _______ _______ _______ _____ _____    ______ ____
ROOT
ATOM      1  C   UNL     1       1.138   9.122  19.492  0.00  0.00    +0.000 A 
ATOM      2  C   UNL     1       1.229   8.631  20.798  0.00  0.00    +0.000 A 
ATOM      3  C   UNL     1       0.468   9.194  21.832  0.00  0.00    +0.000 A 
ATOM      4  C   UNL     1      -0.383  10.290  21.593  0.00  0.00    +0.000 A 
ATOM      5  C   UNL     1      -1.065  10.929  22.772  0.00  0.00    +0.000 C 
ATOM      6  C   UNL     1      -0.480  10.781  20.281  0.00  0.00    +0.000 A 
ATOM      7  C   UNL     1       0.246  10.170  19.228  0.00  0.00    +0.000 A 
ENDROOT
BRANCH   1   9
ATOM      8  N   UNL     1       2.665   7.317  18.773  0.00  0.00    +0.000 N 
ATOM      9  C   UNL     1       2.033   8.509  18.438  0.00  0.00    +0.000 C 
ATOM     10  O   UNL     1       2.095   9.087  17.366  0.00  0.00    +0.000 OA
ATOM     11  H   UNL     1       2.444   6.896  19.666  0.00  0.00    +0.000 HD
BRANCH   8  15
ATOM     12  C   UNL     1       5.366   5.182  16.250  0.00  0.00    +0.000 A 
ATOM     13  C   UNL     1       4.408   4.486  16.993  0.00  0.00    +0.000 A 
ATOM     14  C   UNL     1       3.511   5.171  17.832  0.00  0.00    +0.000 A 
ATOM     15  C   UNL     1       3.552   6.563  17.950  0.00  0.00    +0.000 A 
ATOM     16  C   UNL     1       4.521   7.256  17.207  0.00  0.00    +0.000 A 
ATOM     17  C   UNL     1       5.419   6.577  16.368  0.00  0.00    +0.000 A 
BRANCH  12  18
ATOM     18  C   UNL     1       6.283   4.394  15.373  0.00  0.00    +0.000 C 
ATOM     19  O   UNL     1       7.467   4.245  15.589  0.00  0.00    +0.000 OA
BRANCH  18  20
ATOM     20  O   UNL     1       5.597   3.887  14.306  0.00  0.00    +0.000 OA
BRANCH  20  22
ATOM     21  C   UNL     1       5.472   3.196  11.981  0.00  0.00    +0.000 C 
ATOM     22  C   UNL     1       6.322   3.830  13.066  0.00  0.00    +0.000 C 
ENDBRANCH  20  22
ENDBRANCH  18  20
ENDBRANCH  12  18
ENDBRANCH   8  15
ENDBRANCH   1   9
BRANCH   6  23
ATOM     23  S   UNL     1      -1.261  12.356  19.913  0.00  0.00    +0.000 S 
ATOM     24  O   UNL     1      -1.120  12.555  18.485  0.00  0.00    +0.000 OA
ATOM     25  O   UNL     1      -2.584  12.302  20.498  0.00  0.00    +0.000 OA
BRANCH  23  26
ATOM     26  N   UNL     1      -0.392  13.603  20.689  0.00  0.00    +0.000 NA
ATOM     27  C   UNL     1      -0.674  15.021  20.313  0.00  0.00    +0.000 C 
ATOM     28  C   UNL     1      -0.119  15.357  18.926  0.00  0.00    +0.000 C 
ATOM     29  O   UNL     1       1.283  15.066  18.808  0.00  0.00    +0.000 OA
ATOM     30  C   UNL     1       1.647  13.745  19.234  0.00  0.00    +0.000 C 
ATOM     31  C   UNL     1       1.105  13.418  20.632  0.00  0.00    +0.000 C 
ENDBRANCH  23  26
ENDBRANCH   6  23
TORSDOF 7
ENDMDL
MODEL 9
REMARK VINA RESULT:      -8.0      2.717      3.607
REMARK  Name = 
REMARK  9 active torsions:
REMARK  status: ('A' for Active; 'I' for Inactive)
REMARK    1  A    between atoms: C_1  and  C_2
REMARK    2  A    between atoms: C_2  and  O_3
REMARK    3  A    between atoms: O_3  and  C_4
REMARK    4  A    between atoms: C_4  and  C_6
REMARK    5  A    between atoms: C_9  and  N_10
REMARK    6  A    between atoms: C_11  and  C_13
REMARK    7  A    between atoms: C_16  and  C_17
REMARK    8  A    between atoms: C_18  and  S_19
REMARK    9  A    between atoms: S_19  and  N_22
REMARK                            x       y       z     vdW  Elec       q    Type
REMARK                         _______ _______ _______ _____ _____    ______ ____
ROOT
ATOM      1  C   UNL     1       1.922   6.410  20.178  0.00  0.00    +0.000 A 
ATOM      2  C   UNL     1       0.935   5.519  20.611  0.00  0.00    +0.000 A 
ATOM      3  C   UNL     1       1.079   4.138  20.418  0.00  0.00    +0.000 A 
ATOM      4  C   UNL     1       2.204   3.611  19.756  0.00  0.00    +0.000 A 
ATOM      5  C   UNL     1       2.229   2.136  19.464  0.00  0.00    +0.000 C 
ATOM      6  C   UNL     1       3.199   4.503  19.326  0.00  0.00    +0.000 A 
ATOM      7  C   UNL     1       3.077   5.894  19.576  0.00  0.00    +0.000 A 
ENDROOT
BRANCH   1   9
ATOM      8  N   UNL     1       1.559   8.652  19.205  0.00  0.00    +0.000 N 
ATOM      9  C   UNL     1       1.673   7.891  20.362  0.00  0.00    +0.000 C 
ATOM     10  O   UNL     1       1.551   8.289  21.509  0.00  0.00    +0.000 OA
ATOM     11  H   UNL     1       1.582   8.171  18.315  0.00  0.00    +0.000 HD
BRANCH   8  15
ATOM     12  C   UNL     1       0.999  12.874  18.912  0.00  0.00    +0.000 A 
ATOM     13  C   UNL     1       0.143  12.110  19.712  0.00  0.00    +0.000 A 
ATOM     14  C   UNL     1       0.309  10.718  19.818  0.00  0.00    +0.000 A 
ATOM     15  C   UNL     1       1.330  10.057  19.130  0.00  0.00    +0.000 A 
ATOM     16  C   UNL     1       2.183  10.828  18.324  0.00  0.00    +0.000 A 
ATOM     17  C   UNL     1       2.021  12.219  18.213  0.00  0.00    +0.000 A 
BRANCH  12  18
ATOM     18  C   UNL     1       0.772  14.348  18.849  0.00  0.00    +0.000 C 
ATOM     19  O   UNL     1      -0.305  14.861  18.624  0.00  0.00    +0.000 OA
BRANCH  18  20
ATOM     20  O   UNL     1       1.942  15.017  19.068  0.00  0.00    +0.000 OA
BRANCH  20  22
ATOM     21  C   UNL     1       3.353  16.108  17.418  0.00  0.00    +0.000 C 
ATOM     22  C   UNL     1       2.127  16.222  18.305  0.00  0.00    +0.000 C 
ENDBRANCH  20  22
ENDBRANCH  18  20
ENDBRANCH  12  18
ENDBRANCH   8  15
ENDBRANCH   1   9
BRANCH   6  23
ATOM     23  S   UNL     1       4.500   4.000  18.195  0.00  0.00    +0.000 S 
ATOM     24  O   UNL     1       5.437   3.219  18.977  0.00  0.00    +0.000 OA
ATOM     25  O   UNL     1       3.841   3.394  17.058  0.00  0.00    +0.000 OA
BRANCH  23  26
ATOM     26  N   UNL     1       5.328   5.388  17.646  0.00  0.00    +0.000 NA
ATOM     27  C   UNL     1       5.563   5.557  16.182  0.00  0.00    +0.000 C 
ATOM     28  C   UNL     1       6.632   4.589  15.667  0.00  0.00    +0.000 C 
ATOM     29  O   UNL     1       7.865   4.692  16.396  0.00  0.00    +0.000 OA
ATOM     30  C   UNL     1       7.712   4.626  17.822  0.00  0.00    +0.000 C 
ATOM     31  C   UNL     1       6.652   5.610  18.336  0.00  0.00    +0.000 C 
ENDBRANCH  23  26
ENDBRANCH   6  23
TORSDOF 7
ENDMDL
