MODEL 1
REMARK VINA RESULT:      -6.5      0.000      0.000
REMARK  Name = 
REMARK  6 active torsions:
REMARK  status: ('A' for Active; 'I' for Inactive)
REMARK    1  A    between atoms: C_1  and  C_2
REMARK    2  A    between atoms: C_2  and  C_3
REMARK    3  A    between atoms: C_2  and  C_13
REMARK    4  A    between atoms: C_3  and  O_5
REMARK    5  A    between atoms: O_5  and  C_6
REMARK    6  A    between atoms: N_9  and  C_10
REMARK                            x       y       z     vdW  Elec       q    Type
REMARK                         _______ _______ _______ _____ _____    ______ ____
ROOT
ATOM      1  C   UNL     1       6.472   5.751  19.023  0.00  0.00    +0.000 C 
ATOM      2  O   UNL     1       6.935   5.203  20.018  0.00  0.00    +0.000 OA
ENDROOT
BRANCH   1   4
ATOM      3  C   UNL     1       7.533   7.645  17.660  0.00  0.00    +0.000 C 
ATOM      4  C   UNL     1       7.321   6.138  17.814  0.00  0.00    +0.000 C 
BRANCH   4   5
ATOM      5  C   UNL     1       6.761   5.512  16.544  0.00  0.00    +0.000 A 
ATOM      6  C   UNL     1       5.837   6.218  15.758  0.00  0.00    +0.000 A 
ATOM      7  C   UNL     1       5.332   5.660  14.579  0.00  0.00    +0.000 A 
ATOM      8  C   UNL     1       5.755   4.396  14.175  0.00  0.00    +0.000 A 
ATOM      9 BR   UNL     1       5.076   3.640  12.581  0.00  0.00    +0.000 Br
ATOM     10  C   UNL     1       6.677   3.684  14.937  0.00  0.00    +0.000 A 
ATOM     11  C   UNL     1       7.177   4.240  16.117  0.00  0.00    +0.000 A 
ENDBRANCH   4   5
ENDBRANCH   1   4
BRANCH   1  12
ATOM     12  O   UNL     1       5.141   5.959  18.806  0.00  0.00    +0.000 OA
BRANCH  12  13
ATOM     13  C   UNL     1       4.277   4.880  19.219  0.00  0.00    +0.000 C 
ATOM     14  C   UNL     1       4.119   3.928  18.033  0.00  0.00    +0.000 C 
ATOM     15  C   UNL     1       3.092   2.845  18.326  0.00  0.00    +0.000 C 
ATOM     16  N   UNL     1       1.798   3.445  18.672  0.00  0.00    +0.000 NA
ATOM     17  C   UNL     1       0.800   2.395  18.880  0.00  0.00    +0.000 C 
ATOM     18  C   UNL     1       1.908   4.312  19.855  0.00  0.00    +0.000 C 
ATOM     19  C   UNL     1       2.916   5.440  19.622  0.00  0.00    +0.000 C 
ENDBRANCH  12  13
ENDBRANCH   1  12
TORSDOF 4
ENDMDL
MODEL 2
REMARK VINA RESULT:      -6.3      3.187      5.437
REMARK  Name = 
REMARK  6 active torsions:
REMARK  status: ('A' for Active; 'I' for Inactive)
REMARK    1  A    between atoms: C_1  and  C_2
REMARK    2  A    between atoms: C_2  and  C_3
REMARK    3  A    between atoms: C_2  and  C_13
REMARK    4  A    between atoms: C_3  and  O_5
REMARK    5  A    between atoms: O_5  and  C_6
REMARK    6  A    between atoms: N_9  and  C_10
REMARK                            x       y       z     vdW  Elec       q    Type
REMARK                         _______ _______ _______ _____ _____    ______ ____
ROOT
ATOM      1  C   UNL     1       7.506   5.340  16.561  0.00  0.00    +0.000 C 
ATOM      2  O   UNL     1       8.010   4.395  17.158  0.00  0.00    +0.000 OA
ENDROOT
BRANCH   1   4
ATOM      3  C   UNL     1       7.783   7.266  18.231  0.00  0.00    +0.000 C 
ATOM      4  C   UNL     1       6.850   6.521  17.274  0.00  0.00    +0.000 C 
BRANCH   4   5
ATOM      5  C   UNL     1       5.565   6.084  17.963  0.00  0.00    +0.000 A 
ATOM      6  C   UNL     1       5.608   5.146  19.006  0.00  0.00    +0.000 A 
ATOM      7  C   UNL     1       4.435   4.753  19.659  0.00  0.00    +0.000 A 
ATOM      8  C   UNL     1       3.213   5.301  19.277  0.00  0.00    +0.000 A 
ATOM      9 BR   UNL     1       1.626   4.773  20.158  0.00  0.00    +0.000 Br
ATOM     10  C   UNL     1       3.151   6.239  18.250  0.00  0.00    +0.000 A 
ATOM     11  C   UNL     1       4.322   6.626  17.595  0.00  0.00    +0.000 A 
ENDBRANCH   4   5
ENDBRANCH   1   4
BRANCH   1  12
ATOM     12  O   UNL     1       7.581   5.530  15.212  0.00  0.00    +0.000 OA
BRANCH  12  13
ATOM     13  C   UNL     1       7.045   4.455  14.412  0.00  0.00    +0.000 C 
ATOM     14  C   UNL     1       7.394   4.739  12.951  0.00  0.00    +0.000 C 
ATOM     15  C   UNL     1       6.726   3.741  12.019  0.00  0.00    +0.000 C 
ATOM     16  N   UNL     1       5.270   3.757  12.206  0.00  0.00    +0.000 NA
ATOM     17  C   UNL     1       4.634   2.846  11.254  0.00  0.00    +0.000 C 
ATOM     18  C   UNL     1       4.904   3.416  13.589  0.00  0.00    +0.000 C 
ATOM     19  C   UNL     1       5.529   4.396  14.584  0.00  0.00    +0.000 C 
ENDBRANCH  12  13
ENDBRANCH   1  12
TORSDOF 4
ENDMDL
MODEL 3
REMARK VINA RESULT:      -6.2      2.852      5.103
REMARK  Name = 
REMARK  6 active torsions:
REMARK  status: ('A' for Active; 'I' for Inactive)
REMARK    1  A    between atoms: C_1  and  C_2
REMARK    2  A    between atoms: C_2  and  C_3
REMARK    3  A    between atoms: C_2  and  C_13
REMARK    4  A    between atoms: C_3  and  O_5
REMARK    5  A    between atoms: O_5  and  C_6
REMARK    6  A    between atoms: N_9  and  C_10
REMARK                            x       y       z     vdW  Elec       q    Type
REMARK                         _______ _______ _______ _____ _____    ______ ____
ROOT
ATOM      1  C   UNL     1       7.167   6.427  17.210  0.00  0.00    +0.000 C 
ATOM      2  O   UNL     1       7.181   7.558  16.736  0.00  0.00    +0.000 OA
ENDROOT
BRANCH   1   4
ATOM      3  C   UNL     1       7.773   5.419  19.489  0.00  0.00    +0.000 C 
ATOM      4  C   UNL     1       6.717   6.128  18.638  0.00  0.00    +0.000 C 
BRANCH   4   5
ATOM      5  C   UNL     1       5.393   5.375  18.636  0.00  0.00    +0.000 A 
ATOM      6  C   UNL     1       4.237   5.982  18.120  0.00  0.00    +0.000 A 
ATOM      7  C   UNL     1       3.021   5.292  18.095  0.00  0.00    +0.000 A 
ATOM      8  C   UNL     1       2.956   3.987  18.578  0.00  0.00    +0.000 A 
ATOM      9 BR   UNL     1       1.314   3.051  18.542  0.00  0.00    +0.000 Br
ATOM     10  C   UNL     1       4.093   3.365  19.085  0.00  0.00    +0.000 A 
ATOM     11  C   UNL     1       5.306   4.057  19.115  0.00  0.00    +0.000 A 
ENDBRANCH   4   5
ENDBRANCH   1   4
BRANCH   1  12
ATOM     12  O   UNL     1       7.414   5.289  16.498  0.00  0.00    +0.000 OA
BRANCH  12  13
ATOM     13  C   UNL     1       6.716   5.191  15.240  0.00  0.00    +0.000 C 
ATOM     14  C   UNL     1       5.717   4.039  15.347  0.00  0.00    +0.000 C 
ATOM     15  C   UNL     1       5.051   3.757  14.009  0.00  0.00    +0.000 C 
ATOM     16  N   UNL     1       6.060   3.460  12.986  0.00  0.00    +0.000 NA
ATOM     17  C   UNL     1       5.405   3.121  11.722  0.00  0.00    +0.000 C 
ATOM     18  C   UNL     1       6.993   4.583  12.811  0.00  0.00    +0.000 C 
ATOM     19  C   UNL     1       7.716   4.911  14.121  0.00  0.00    +0.000 C 
ENDBRANCH  12  13
ENDBRANCH   1  12
TORSDOF 4
ENDMDL
MODEL 4
REMARK VINA RESULT:      -6.2      1.110      1.482
REMARK  Name = 
REMARK  6 active torsions:
REMARK  status: ('A' for Active; 'I' for Inactive)
REMARK    1  A    between atoms: C_1  and  C_2
REMARK    2  A    between atoms: C_2  and  C_3
REMARK    3  A    between atoms: C_2  and  C_13
REMARK    4  A    between atoms: C_3  and  O_5
REMARK    5  A    between atoms: O_5  and  C_6
REMARK    6  A    between atoms: N_9  and  C_10
REMARK                            x       y       z     vdW  Elec       q    Type
REMARK                         _______ _______ _______ _____ _____    ______ ____
ROOT
ATOM      1  C   UNL     1       7.059   5.260  18.574  0.00  0.00    +0.000 C 
ATOM      2  O   UNL     1       7.689   5.384  19.619  0.00  0.00    +0.000 OA
ENDROOT
BRANCH   1   4
ATOM      3  C   UNL     1       6.777   7.571  17.500  0.00  0.00    +0.000 C 
ATOM      4  C   UNL     1       7.296   6.140  17.349  0.00  0.00    +0.000 C 
BRANCH   4   5
ATOM      5  C   UNL     1       6.751   5.470  16.095  0.00  0.00    +0.000 A 
ATOM      6  C   UNL     1       7.630   4.915  15.152  0.00  0.00    +0.000 A 
ATOM      7  C   UNL     1       7.139   4.280  14.007  0.00  0.00    +0.000 A 
ATOM      8  C   UNL     1       5.764   4.189  13.802  0.00  0.00    +0.000 A 
ATOM      9 BR   UNL     1       5.097   3.329  12.257  0.00  0.00    +0.000 Br
ATOM     10  C   UNL     1       4.876   4.725  14.730  0.00  0.00    +0.000 A 
ATOM     11  C   UNL     1       5.368   5.365  15.870  0.00  0.00    +0.000 A 
ENDBRANCH   4   5
ENDBRANCH   1   4
BRANCH   1  12
ATOM     12  O   UNL     1       6.176   4.251  18.321  0.00  0.00    +0.000 OA
BRANCH  12  13
ATOM     13  C   UNL     1       5.092   4.135  19.266  0.00  0.00    +0.000 C 
ATOM     14  C   UNL     1       4.235   2.939  18.852  0.00  0.00    +0.000 C 
ATOM     15  C   UNL     1       2.975   2.841  19.698  0.00  0.00    +0.000 C 
ATOM     16  N   UNL     1       2.195   4.081  19.603  0.00  0.00    +0.000 NA
ATOM     17  C   UNL     1       0.952   3.949  20.362  0.00  0.00    +0.000 C 
ATOM     18  C   UNL     1       2.974   5.241  20.063  0.00  0.00    +0.000 C 
ATOM     19  C   UNL     1       4.253   5.411  19.239  0.00  0.00    +0.000 C 
ENDBRANCH  12  13
ENDBRANCH   1  12
TORSDOF 4
ENDMDL
MODEL 5
REMARK VINA RESULT:      -6.2      1.170      1.244
REMARK  Name = 
REMARK  6 active torsions:
REMARK  status: ('A' for Active; 'I' for Inactive)
REMARK    1  A    between atoms: C_1  and  C_2
REMARK    2  A    between atoms: C_2  and  C_3
REMARK    3  A    between atoms: C_2  and  C_13
REMARK    4  A    between atoms: C_3  and  O_5
REMARK    5  A    between atoms: O_5  and  C_6
REMARK    6  A    between atoms: N_9  and  C_10
REMARK                            x       y       z     vdW  Elec       q    Type
REMARK                         _______ _______ _______ _____ _____    ______ ____
ROOT
ATOM      1  C   UNL     1       7.083   5.252  18.528  0.00  0.00    +0.000 C 
ATOM      2  O   UNL     1       7.777   5.350  19.534  0.00  0.00    +0.000 OA
ENDROOT
BRANCH   1   4
ATOM      3  C   UNL     1       6.711   7.540  17.434  0.00  0.00    +0.000 C 
ATOM      4  C   UNL     1       7.278   6.127  17.292  0.00  0.00    +0.000 C 
BRANCH   4   5
ATOM      5  C   UNL     1       6.746   5.425  16.050  0.00  0.00    +0.000 A 
ATOM      6  C   UNL     1       5.363   5.346  15.823  0.00  0.00    +0.000 A 
ATOM      7  C   UNL     1       4.864   4.721  14.676  0.00  0.00    +0.000 A 
ATOM      8  C   UNL     1       5.746   4.179  13.744  0.00  0.00    +0.000 A 
ATOM      9 BR   UNL     1       5.075   3.336  12.191  0.00  0.00    +0.000 Br
ATOM     10  C   UNL     1       7.121   4.255  13.947  0.00  0.00    +0.000 A 
ATOM     11  C   UNL     1       7.618   4.874  15.097  0.00  0.00    +0.000 A 
ENDBRANCH   4   5
ENDBRANCH   1   4
BRANCH   1  12
ATOM     12  O   UNL     1       6.150   4.276  18.327  0.00  0.00    +0.000 OA
BRANCH  12  13
ATOM     13  C   UNL     1       5.099   4.221  19.314  0.00  0.00    +0.000 C 
ATOM     14  C   UNL     1       4.366   2.890  19.145  0.00  0.00    +0.000 C 
ATOM     15  C   UNL     1       3.137   2.818  20.037  0.00  0.00    +0.000 C 
ATOM     16  N   UNL     1       2.230   3.937  19.753  0.00  0.00    +0.000 NA
ATOM     17  C   UNL     1       1.019   3.817  20.565  0.00  0.00    +0.000 C 
ATOM     18  C   UNL     1       2.889   5.232  19.977  0.00  0.00    +0.000 C 
ATOM     19  C   UNL     1       4.130   5.381  19.093  0.00  0.00    +0.000 C 
ENDBRANCH  12  13
ENDBRANCH   1  12
TORSDOF 4
ENDMDL
MODEL 6
REMARK VINA RESULT:      -6.2      1.258      1.655
REMARK  Name = 
REMARK  6 active torsions:
REMARK  status: ('A' for Active; 'I' for Inactive)
REMARK    1  A    between atoms: C_1  and  C_2
REMARK    2  A    between atoms: C_2  and  C_3
REMARK    3  A    between atoms: C_2  and  C_13
REMARK    4  A    between atoms: C_3  and  O_5
REMARK    5  A    between atoms: O_5  and  C_6
REMARK    6  A    between atoms: N_9  and  C_10
REMARK                            x       y       z     vdW  Elec       q    Type
REMARK                         _______ _______ _______ _____ _____    ______ ____
ROOT
ATOM      1  C   UNL     1       6.932   5.159  18.191  0.00  0.00    +0.000 C 
ATOM      2  O   UNL     1       7.792   4.303  18.366  0.00  0.00    +0.000 OA
ENDROOT
BRANCH   1   4
ATOM      3  C   UNL     1       6.029   7.328  17.164  0.00  0.00    +0.000 C 
ATOM      4  C   UNL     1       6.926   6.101  16.989  0.00  0.00    +0.000 C 
BRANCH   4   5
ATOM      5  C   UNL     1       6.600   5.337  15.713  0.00  0.00    +0.000 A 
ATOM      6  C   UNL     1       7.553   5.237  14.688  0.00  0.00    +0.000 A 
ATOM      7  C   UNL     1       7.270   4.521  13.520  0.00  0.00    +0.000 A 
ATOM      8  C   UNL     1       6.035   3.894  13.374  0.00  0.00    +0.000 A 
ATOM      9 BR   UNL     1       5.650   2.925  11.798  0.00  0.00    +0.000 Br
ATOM     10  C   UNL     1       5.079   3.975  14.384  0.00  0.00    +0.000 A 
ATOM     11  C   UNL     1       5.361   4.695  15.547  0.00  0.00    +0.000 A 
ENDBRANCH   4   5
ENDBRANCH   1   4
BRANCH   1  12
ATOM     12  O   UNL     1       5.811   5.294  18.958  0.00  0.00    +0.000 OA
BRANCH  12  13
ATOM     13  C   UNL     1       4.702   4.455  18.571  0.00  0.00    +0.000 C 
ATOM     14  C   UNL     1       3.428   5.295  18.656  0.00  0.00    +0.000 C 
ATOM     15  C   UNL     1       2.188   4.446  18.425  0.00  0.00    +0.000 C 
ATOM     16  N   UNL     1       2.134   3.342  19.391  0.00  0.00    +0.000 NA
ATOM     17  C   UNL     1       0.902   2.575  19.204  0.00  0.00    +0.000 C 
ATOM     18  C   UNL     1       3.317   2.475  19.281  0.00  0.00    +0.000 C 
ATOM     19  C   UNL     1       4.605   3.265  19.523  0.00  0.00    +0.000 C 
ENDBRANCH  12  13
ENDBRANCH   1  12
TORSDOF 4
ENDMDL
MODEL 7
REMARK VINA RESULT:      -6.1      1.283      1.557
REMARK  Name = 
REMARK  6 active torsions:
REMARK  status: ('A' for Active; 'I' for Inactive)
REMARK    1  A    between atoms: C_1  and  C_2
REMARK    2  A    between atoms: C_2  and  C_3
REMARK    3  A    between atoms: C_2  and  C_13
REMARK    4  A    between atoms: C_3  and  O_5
REMARK    5  A    between atoms: O_5  and  C_6
REMARK    6  A    between atoms: N_9  and  C_10
REMARK                            x       y       z     vdW  Elec       q    Type
REMARK                         _______ _______ _______ _____ _____    ______ ____
ROOT
ATOM      1  C   UNL     1       6.790   5.144  18.192  0.00  0.00    +0.000 C 
ATOM      2  O   UNL     1       7.671   4.320  18.417  0.00  0.00    +0.000 OA
ENDROOT
BRANCH   1   4
ATOM      3  C   UNL     1       5.859   7.267  17.097  0.00  0.00    +0.000 C 
ATOM      4  C   UNL     1       6.807   6.072  16.980  0.00  0.00    +0.000 C 
BRANCH   4   5
ATOM      5  C   UNL     1       6.568   5.284  15.699  0.00  0.00    +0.000 A 
ATOM      6  C   UNL     1       5.360   4.595  15.509  0.00  0.00    +0.000 A 
ATOM      7  C   UNL     1       5.123   3.885  14.328  0.00  0.00    +0.000 A 
ATOM      8  C   UNL     1       6.090   3.865  13.326  0.00  0.00    +0.000 A 
ATOM      9 BR   UNL     1       5.772   2.908  11.728  0.00  0.00    +0.000 Br
ATOM     10  C   UNL     1       7.292   4.549  13.492  0.00  0.00    +0.000 A 
ATOM     11  C   UNL     1       7.529   5.253  14.675  0.00  0.00    +0.000 A 
ENDBRANCH   4   5
ENDBRANCH   1   4
BRANCH   1  12
ATOM     12  O   UNL     1       5.630   5.245  18.904  0.00  0.00    +0.000 OA
BRANCH  12  13
ATOM     13  C   UNL     1       4.589   4.327  18.512  0.00  0.00    +0.000 C 
ATOM     14  C   UNL     1       3.278   5.110  18.433  0.00  0.00    +0.000 C 
ATOM     15  C   UNL     1       2.096   4.187  18.187  0.00  0.00    +0.000 C 
ATOM     16  N   UNL     1       2.014   3.164  19.237  0.00  0.00    +0.000 NA
ATOM     17  C   UNL     1       0.832   2.327  19.028  0.00  0.00    +0.000 C 
ATOM     18  C   UNL     1       3.236   2.348  19.287  0.00  0.00    +0.000 C 
ATOM     19  C   UNL     1       4.470   3.215  19.552  0.00  0.00    +0.000 C 
ENDBRANCH  12  13
ENDBRANCH   1  12
TORSDOF 4
ENDMDL
MODEL 8
REMARK VINA RESULT:      -6.1      3.519      6.100
REMARK  Name = 
REMARK  6 active torsions:
REMARK  status: ('A' for Active; 'I' for Inactive)
REMARK    1  A    between atoms: C_1  and  C_2
REMARK    2  A    between atoms: C_2  and  C_3
REMARK    3  A    between atoms: C_2  and  C_13
REMARK    4  A    between atoms: C_3  and  O_5
REMARK    5  A    between atoms: O_5  and  C_6
REMARK    6  A    between atoms: N_9  and  C_10
REMARK                            x       y       z     vdW  Elec       q    Type
REMARK                         _______ _______ _______ _____ _____    ______ ____
ROOT
ATOM      1  C   UNL     1       4.481   3.265  18.864  0.00  0.00    +0.000 C 
ATOM      2  O   UNL     1       4.835   2.715  19.902  0.00  0.00    +0.000 OA
ENDROOT
BRANCH   1   4
ATOM      3  C   UNL     1       2.708   3.467  17.023  0.00  0.00    +0.000 C 
ATOM      4  C   UNL     1       3.018   3.532  18.520  0.00  0.00    +0.000 C 
BRANCH   4   5
ATOM      5  C   UNL     1       2.554   4.844  19.138  0.00  0.00    +0.000 A 
ATOM      6  C   UNL     1       2.560   6.023  18.377  0.00  0.00    +0.000 A 
ATOM      7  C   UNL     1       2.117   7.229  18.930  0.00  0.00    +0.000 A 
ATOM      8  C   UNL     1       1.657   7.261  20.244  0.00  0.00    +0.000 A 
ATOM      9 BR   UNL     1       1.055   8.889  20.992  0.00  0.00    +0.000 Br
ATOM     10  C   UNL     1       1.635   6.100  21.012  0.00  0.00    +0.000 A 
ATOM     11  C   UNL     1       2.083   4.898  20.461  0.00  0.00    +0.000 A 
ENDBRANCH   4   5
ENDBRANCH   1   4
BRANCH   1  12
ATOM     12  O   UNL     1       5.335   3.826  17.958  0.00  0.00    +0.000 OA
BRANCH  12  13
ATOM     13  C   UNL     1       5.809   5.145  18.300  0.00  0.00    +0.000 C 
ATOM     14  C   UNL     1       5.559   6.058  17.100  0.00  0.00    +0.000 C 
ATOM     15  C   UNL     1       6.179   7.430  17.309  0.00  0.00    +0.000 C 
ATOM     16  N   UNL     1       7.619   7.310  17.565  0.00  0.00    +0.000 NA
ATOM     17  C   UNL     1       8.216   8.640  17.694  0.00  0.00    +0.000 C 
ATOM     18  C   UNL     1       7.885   6.494  18.759  0.00  0.00    +0.000 C 
ATOM     19  C   UNL     1       7.303   5.087  18.608  0.00  0.00    +0.000 C 
ENDBRANCH  12  13
ENDBRANCH   1  12
TORSDOF 4
ENDMDL
MODEL 9
REMARK VINA RESULT:      -6.1      3.766      6.425
REMARK  Name = 
REMARK  6 active torsions:
REMARK  status: ('A' for Active; 'I' for Inactive)
REMARK    1  A    between atoms: C_1  and  C_2
REMARK    2  A    between atoms: C_2  and  C_3
REMARK    3  A    between atoms: C_2  and  C_13
REMARK    4  A    between atoms: C_3  and  O_5
REMARK    5  A    between atoms: O_5  and  C_6
REMARK    6  A    between atoms: N_9  and  C_10
REMARK                            x       y       z     vdW  Elec       q    Type
REMARK                         _______ _______ _______ _____ _____    ______ ____
ROOT
ATOM      1  C   UNL     1       3.181   5.214  18.736  0.00  0.00    +0.000 C 
ATOM      2  O   UNL     1       2.447   4.529  18.031  0.00  0.00    +0.000 OA
ENDROOT
BRANCH   1   4
ATOM      3  C   UNL     1       1.755   5.005  20.856  0.00  0.00    +0.000 C 
ATOM      4  C   UNL     1       2.715   5.867  20.034  0.00  0.00    +0.000 C 
BRANCH   4   5
ATOM      5  C   UNL     1       2.141   7.251  19.761  0.00  0.00    +0.000 A 
ATOM      6  C   UNL     1       2.293   7.841  18.497  0.00  0.00    +0.000 A 
ATOM      7  C   UNL     1       1.752   9.102  18.230  0.00  0.00    +0.000 A 
ATOM      8  C   UNL     1       1.048   9.779  19.223  0.00  0.00    +0.000 A 
ATOM      9 BR   UNL     1       0.314  11.483  18.864  0.00  0.00    +0.000 Br
ATOM     10  C   UNL     1       0.880   9.206  20.481  0.00  0.00    +0.000 A 
ATOM     11  C   UNL     1       1.425   7.949  20.748  0.00  0.00    +0.000 A 
ENDBRANCH   4   5
ENDBRANCH   1   4
BRANCH   1  12
ATOM     12  O   UNL     1       4.522   5.368  18.532  0.00  0.00    +0.000 OA
BRANCH  12  13
ATOM     13  C   UNL     1       4.994   4.956  17.232  0.00  0.00    +0.000 C 
ATOM     14  C   UNL     1       6.457   4.537  17.377  0.00  0.00    +0.000 C 
ATOM     15  C   UNL     1       7.086   4.244  16.024  0.00  0.00    +0.000 C 
ATOM     16  N   UNL     1       6.977   5.412  15.143  0.00  0.00    +0.000 NA
ATOM     17  C   UNL     1       7.648   5.143  13.871  0.00  0.00    +0.000 C 
ATOM     18  C   UNL     1       5.573   5.794  14.929  0.00  0.00    +0.000 C 
ATOM     19  C   UNL     1       4.881   6.123  16.254  0.00  0.00    +0.000 C 
ENDBRANCH  12  13
ENDBRANCH   1  12
TORSDOF 4
ENDMDL
