MODEL 1
REMARK VINA RESULT:      -6.8      0.000      0.000
REMARK  Name = 
REMARK  11 active torsions:
REMARK  status: ('A' for Active; 'I' for Inactive)
REMARK    1  A    between atoms: C_1  and  O_2
REMARK    2  A    between atoms: O_2  and  C_3
REMARK    3  A    between atoms: C_5  and  C_6
REMARK    4  A    between atoms: C_6  and  N_7
REMARK    5  A    between atoms: N_7  and  C_8
REMARK    6  A    between atoms: C_13  and  S_14
REMARK    7  A    between atoms: S_14  and  C_15
REMARK    8  A    between atoms: C_17  and  O_18
REMARK    9  A    between atoms: O_18  and  C_19
REMARK   10  A    between atoms: C_20  and  O_21
REMARK   11  A    between atoms: O_21  and  C_22
REMARK                            x       y       z     vdW  Elec       q    Type
REMARK                         _______ _______ _______ _____ _____    ______ ____
ROOT
ATOM      1  C   UNL     1       6.273   5.174  16.131  0.00  0.00    +0.000 A 
ATOM      2  C   UNL     1       5.261   4.201  16.210  0.00  0.00    +0.000 A 
ATOM      3  C   UNL     1       4.720   3.821  17.438  0.00  0.00    +0.000 A 
ATOM      4  C   UNL     1       5.336   4.270  18.605  0.00  0.00    +0.000 A 
ATOM      5  C   UNL     1       6.394   5.182  18.552  0.00  0.00    +0.000 A 
ATOM      6  C   UNL     1       6.869   5.669  17.309  0.00  0.00    +0.000 A 
ENDROOT
BRANCH   1   8
ATOM      7  C   UNL     1       6.823   4.634  13.888  0.00  0.00    +0.000 C 
ATOM      8  O   UNL     1       6.685   5.629  14.903  0.00  0.00    +0.000 OA
ENDBRANCH   1   8
BRANCH   5   9
ATOM      9  O   UNL     1       6.869   5.508  19.802  0.00  0.00    +0.000 OA
ATOM     10  C   UNL     1       8.252   5.288  20.053  0.00  0.00    +0.000 C 
ENDBRANCH   5   9
BRANCH   6  11
ATOM     11  O   UNL     1       7.888   6.580  17.384  0.00  0.00    +0.000 OA
ATOM     12  C   UNL     1       7.618   7.962  17.542  0.00  0.00    +0.000 C 
ENDBRANCH   6  11
BRANCH   3  13
ATOM     13  C   UNL     1       3.388   3.111  17.471  0.00  0.00    +0.000 C 
BRANCH  13  14
ATOM     14  N   UNL     1       2.265   4.011  17.555  0.00  0.00    +0.000 N 
ATOM     15  H   UNL     1       1.927   4.336  16.658  0.00  0.00    +0.000 HD
BRANCH  14  16
ATOM     16  C   UNL     1       2.155   4.991  18.563  0.00  0.00    +0.000 A 
ATOM     17  C   UNL     1       2.493   6.296  18.136  0.00  0.00    +0.000 A 
ATOM     18  C   UNL     1       2.385   7.413  18.968  0.00  0.00    +0.000 A 
ATOM     19  C   UNL     1       1.918   7.258  20.264  0.00  0.00    +0.000 A 
ATOM     20  C   UNL     1       1.562   5.990  20.718  0.00  0.00    +0.000 A 
ATOM     21  C   UNL     1       1.657   4.850  19.889  0.00  0.00    +0.000 A 
BRANCH  21  22
ATOM     22  S   UNL     1       1.313   3.280  20.720  0.00  0.00    +0.000 S 
ATOM     23  C   UNL     1       2.970   2.725  21.192  0.00  0.00    +0.000 C 
ENDBRANCH  21  22
ENDBRANCH  14  16
ENDBRANCH  13  14
ENDBRANCH   3  13
TORSDOF 7
ENDMDL
MODEL 2
REMARK VINA RESULT:      -6.6      1.340      3.277
REMARK  Name = 
REMARK  11 active torsions:
REMARK  status: ('A' for Active; 'I' for Inactive)
REMARK    1  A    between atoms: C_1  and  O_2
REMARK    2  A    between atoms: O_2  and  C_3
REMARK    3  A    between atoms: C_5  and  C_6
REMARK    4  A    between atoms: C_6  and  N_7
REMARK    5  A    between atoms: N_7  and  C_8
REMARK    6  A    between atoms: C_13  and  S_14
REMARK    7  A    between atoms: S_14  and  C_15
REMARK    8  A    between atoms: C_17  and  O_18
REMARK    9  A    between atoms: O_18  and  C_19
REMARK   10  A    between atoms: C_20  and  O_21
REMARK   11  A    between atoms: O_21  and  C_22
REMARK                            x       y       z     vdW  Elec       q    Type
REMARK                         _______ _______ _______ _____ _____    ______ ____
ROOT
ATOM      1  C   UNL     1       6.808   5.689  16.017  0.00  0.00    +0.000 A 
ATOM      2  C   UNL     1       5.638   5.296  16.688  0.00  0.00    +0.000 A 
ATOM      3  C   UNL     1       4.885   4.206  16.251  0.00  0.00    +0.000 A 
ATOM      4  C   UNL     1       5.197   3.633  15.018  0.00  0.00    +0.000 A 
ATOM      5  C   UNL     1       6.314   4.057  14.293  0.00  0.00    +0.000 A 
ATOM      6  C   UNL     1       7.156   5.081  14.792  0.00  0.00    +0.000 A 
ENDROOT
BRANCH   1   8
ATOM      7  C   UNL     1       7.642   6.731  17.977  0.00  0.00    +0.000 C 
ATOM      8  O   UNL     1       7.602   6.674  16.551  0.00  0.00    +0.000 OA
ENDBRANCH   1   8
BRANCH   5   9
ATOM      9  O   UNL     1       6.459   3.375  13.106  0.00  0.00    +0.000 OA
ATOM     10  C   UNL     1       5.331   3.323  12.241  0.00  0.00    +0.000 C 
ENDBRANCH   5   9
BRANCH   6  11
ATOM     11  O   UNL     1       8.236   5.390  14.010  0.00  0.00    +0.000 OA
ATOM     12  C   UNL     1       8.068   5.787  12.660  0.00  0.00    +0.000 C 
ENDBRANCH   6  11
BRANCH   3  13
ATOM     13  C   UNL     1       3.902   3.559  17.195  0.00  0.00    +0.000 C 
BRANCH  13  14
ATOM     14  N   UNL     1       2.673   4.300  17.334  0.00  0.00    +0.000 N 
ATOM     15  H   UNL     1       2.336   4.710  16.472  0.00  0.00    +0.000 HD
BRANCH  14  16
ATOM     16  C   UNL     1       2.399   5.105  18.459  0.00  0.00    +0.000 A 
ATOM     17  C   UNL     1       2.608   6.487  18.242  0.00  0.00    +0.000 A 
ATOM     18  C   UNL     1       2.329   7.452  19.213  0.00  0.00    +0.000 A 
ATOM     19  C   UNL     1       1.816   7.062  20.439  0.00  0.00    +0.000 A 
ATOM     20  C   UNL     1       1.584   5.710  20.687  0.00  0.00    +0.000 A 
ATOM     21  C   UNL     1       1.852   4.721  19.716  0.00  0.00    +0.000 A 
BRANCH  21  22
ATOM     22  S   UNL     1       1.646   3.019  20.294  0.00  0.00    +0.000 S 
ATOM     23  C   UNL     1       3.334   2.567  20.767  0.00  0.00    +0.000 C 
ENDBRANCH  21  22
ENDBRANCH  14  16
ENDBRANCH  13  14
ENDBRANCH   3  13
TORSDOF 7
ENDMDL
MODEL 3
REMARK VINA RESULT:      -6.5      3.219      5.017
REMARK  Name = 
REMARK  11 active torsions:
REMARK  status: ('A' for Active; 'I' for Inactive)
REMARK    1  A    between atoms: C_1  and  O_2
REMARK    2  A    between atoms: O_2  and  C_3
REMARK    3  A    between atoms: C_5  and  C_6
REMARK    4  A    between atoms: C_6  and  N_7
REMARK    5  A    between atoms: N_7  and  C_8
REMARK    6  A    between atoms: C_13  and  S_14
REMARK    7  A    between atoms: S_14  and  C_15
REMARK    8  A    between atoms: C_17  and  O_18
REMARK    9  A    between atoms: O_18  and  C_19
REMARK   10  A    between atoms: C_20  and  O_21
REMARK   11  A    between atoms: O_21  and  C_22
REMARK                            x       y       z     vdW  Elec       q    Type
REMARK                         _______ _______ _______ _____ _____    ______ ____
ROOT
ATOM      1  C   UNL     1       4.849   4.601  18.606  0.00  0.00    +0.000 A 
ATOM      2  C   UNL     1       4.472   5.866  18.124  0.00  0.00    +0.000 A 
ATOM      3  C   UNL     1       3.129   6.226  18.015  0.00  0.00    +0.000 A 
ATOM      4  C   UNL     1       2.158   5.243  18.200  0.00  0.00    +0.000 A 
ATOM      5  C   UNL     1       2.512   3.954  18.610  0.00  0.00    +0.000 A 
ATOM      6  C   UNL     1       3.868   3.615  18.842  0.00  0.00    +0.000 A 
ENDROOT
BRANCH   1   8
ATOM      7  C   UNL     1       7.071   4.681  17.782  0.00  0.00    +0.000 C 
ATOM      8  O   UNL     1       6.174   4.326  18.835  0.00  0.00    +0.000 OA
ENDBRANCH   1   8
BRANCH   5   9
ATOM      9  O   UNL     1       1.420   3.127  18.741  0.00  0.00    +0.000 OA
ATOM     10  C   UNL     1       0.762   3.109  20.002  0.00  0.00    +0.000 C 
ENDBRANCH   5   9
BRANCH   6  11
ATOM     11  O   UNL     1       4.090   2.333  19.269  0.00  0.00    +0.000 OA
ATOM     12  C   UNL     1       3.896   1.232  18.399  0.00  0.00    +0.000 C 
ENDBRANCH   6  11
BRANCH   3  13
ATOM     13  C   UNL     1       2.762   7.686  17.900  0.00  0.00    +0.000 C 
BRANCH  13  14
ATOM     14  N   UNL     1       2.379   8.278  19.157  0.00  0.00    +0.000 N 
ATOM     15  H   UNL     1       2.516   7.675  19.959  0.00  0.00    +0.000 HD
BRANCH  14  16
ATOM     16  C   UNL     1       1.243   9.102  19.289  0.00  0.00    +0.000 A 
ATOM     17  C   UNL     1       0.688   9.520  18.057  0.00  0.00    +0.000 A 
ATOM     18  C   UNL     1      -0.477  10.287  17.976  0.00  0.00    +0.000 A 
ATOM     19  C   UNL     1      -1.137  10.652  19.138  0.00  0.00    +0.000 A 
ATOM     20  C   UNL     1      -0.630  10.249  20.372  0.00  0.00    +0.000 A 
ATOM     21  C   UNL     1       0.542   9.468  20.473  0.00  0.00    +0.000 A 
BRANCH  21  22
ATOM     22  S   UNL     1       1.127   9.199  22.164  0.00  0.00    +0.000 S 
ATOM     23  C   UNL     1      -0.301   9.710  23.151  0.00  0.00    +0.000 C 
ENDBRANCH  21  22
ENDBRANCH  14  16
ENDBRANCH  13  14
ENDBRANCH   3  13
TORSDOF 7
ENDMDL
MODEL 4
REMARK VINA RESULT:      -6.4      3.095      6.213
REMARK  Name = 
REMARK  11 active torsions:
REMARK  status: ('A' for Active; 'I' for Inactive)
REMARK    1  A    between atoms: C_1  and  O_2
REMARK    2  A    between atoms: O_2  and  C_3
REMARK    3  A    between atoms: C_5  and  C_6
REMARK    4  A    between atoms: C_6  and  N_7
REMARK    5  A    between atoms: N_7  and  C_8
REMARK    6  A    between atoms: C_13  and  S_14
REMARK    7  A    between atoms: S_14  and  C_15
REMARK    8  A    between atoms: C_17  and  O_18
REMARK    9  A    between atoms: O_18  and  C_19
REMARK   10  A    between atoms: C_20  and  O_21
REMARK   11  A    between atoms: O_21  and  C_22
REMARK                            x       y       z     vdW  Elec       q    Type
REMARK                         _______ _______ _______ _____ _____    ______ ____
ROOT
ATOM      1  C   UNL     1       1.940   6.082  20.066  0.00  0.00    +0.000 A 
ATOM      2  C   UNL     1       2.797   6.842  19.251  0.00  0.00    +0.000 A 
ATOM      3  C   UNL     1       3.255   6.350  18.028  0.00  0.00    +0.000 A 
ATOM      4  C   UNL     1       3.015   5.012  17.717  0.00  0.00    +0.000 A 
ATOM      5  C   UNL     1       2.227   4.212  18.549  0.00  0.00    +0.000 A 
ATOM      6  C   UNL     1       1.654   4.742  19.732  0.00  0.00    +0.000 A 
ENDROOT
BRANCH   1   8
ATOM      7  C   UNL     1       1.277   8.070  21.177  0.00  0.00    +0.000 C 
ATOM      8  O   UNL     1       1.394   6.647  21.192  0.00  0.00    +0.000 OA
ENDBRANCH   1   8
BRANCH   5   9
ATOM      9  O   UNL     1       2.102   2.926  18.076  0.00  0.00    +0.000 OA
ATOM     10  C   UNL     1       3.292   2.153  17.965  0.00  0.00    +0.000 C 
ENDBRANCH   5   9
BRANCH   6  11
ATOM     11  O   UNL     1       0.876   3.874  20.450  0.00  0.00    +0.000 OA
ATOM     12  C   UNL     1       1.458   2.961  21.364  0.00  0.00    +0.000 C 
ENDBRANCH   6  11
BRANCH   3  13
ATOM     13  C   UNL     1       3.811   7.311  17.006  0.00  0.00    +0.000 C 
BRANCH  13  14
ATOM     14  N   UNL     1       4.924   6.772  16.265  0.00  0.00    +0.000 N 
ATOM     15  H   UNL     1       4.664   6.308  15.403  0.00  0.00    +0.000 HD
BRANCH  14  16
ATOM     16  C   UNL     1       6.028   6.162  16.895  0.00  0.00    +0.000 A 
ATOM     17  C   UNL     1       6.683   6.989  17.837  0.00  0.00    +0.000 A 
ATOM     18  C   UNL     1       7.756   6.544  18.613  0.00  0.00    +0.000 A 
ATOM     19  C   UNL     1       8.204   5.240  18.478  0.00  0.00    +0.000 A 
ATOM     20  C   UNL     1       7.577   4.389  17.569  0.00  0.00    +0.000 A 
ATOM     21  C   UNL     1       6.486   4.818  16.782  0.00  0.00    +0.000 A 
BRANCH  21  22
ATOM     22  S   UNL     1       5.928   3.621  15.546  0.00  0.00    +0.000 S 
ATOM     23  C   UNL     1       6.595   4.313  14.013  0.00  0.00    +0.000 C 
ENDBRANCH  21  22
ENDBRANCH  14  16
ENDBRANCH  13  14
ENDBRANCH   3  13
TORSDOF 7
ENDMDL
MODEL 5
REMARK VINA RESULT:      -6.4      3.501      5.560
REMARK  Name = 
REMARK  11 active torsions:
REMARK  status: ('A' for Active; 'I' for Inactive)
REMARK    1  A    between atoms: C_1  and  O_2
REMARK    2  A    between atoms: O_2  and  C_3
REMARK    3  A    between atoms: C_5  and  C_6
REMARK    4  A    between atoms: C_6  and  N_7
REMARK    5  A    between atoms: N_7  and  C_8
REMARK    6  A    between atoms: C_13  and  S_14
REMARK    7  A    between atoms: S_14  and  C_15
REMARK    8  A    between atoms: C_17  and  O_18
REMARK    9  A    between atoms: O_18  and  C_19
REMARK   10  A    between atoms: C_20  and  O_21
REMARK   11  A    between atoms: O_21  and  C_22
REMARK                            x       y       z     vdW  Elec       q    Type
REMARK                         _______ _______ _______ _____ _____    ______ ____
ROOT
ATOM      1  C   UNL     1       1.973   4.050  19.001  0.00  0.00    +0.000 A 
ATOM      2  C   UNL     1       2.057   5.434  19.236  0.00  0.00    +0.000 A 
ATOM      3  C   UNL     1       2.859   6.253  18.442  0.00  0.00    +0.000 A 
ATOM      4  C   UNL     1       3.735   5.654  17.538  0.00  0.00    +0.000 A 
ATOM      5  C   UNL     1       3.724   4.270  17.339  0.00  0.00    +0.000 A 
ATOM      6  C   UNL     1       2.823   3.443  18.054  0.00  0.00    +0.000 A 
ENDROOT
BRANCH   1   8
ATOM      7  C   UNL     1       1.407   3.036  21.069  0.00  0.00    +0.000 C 
ATOM      8  O   UNL     1       1.069   3.294  19.705  0.00  0.00    +0.000 OA
ENDBRANCH   1   8
BRANCH   5   9
ATOM      9  O   UNL     1       4.655   3.866  16.409  0.00  0.00    +0.000 OA
ATOM     10  C   UNL     1       5.986   4.342  16.569  0.00  0.00    +0.000 C 
ENDBRANCH   5   9
BRANCH   6  11
ATOM     11  O   UNL     1       2.882   2.109  17.752  0.00  0.00    +0.000 OA
ATOM     12  C   UNL     1       3.681   1.224  18.518  0.00  0.00    +0.000 C 
ENDBRANCH   6  11
BRANCH   3  13
ATOM     13  C   UNL     1       2.619   7.743  18.438  0.00  0.00    +0.000 C 
BRANCH  13  14
ATOM     14  N   UNL     1       1.970   8.219  19.634  0.00  0.00    +0.000 N 
ATOM     15  H   UNL     1       1.764   7.494  20.310  0.00  0.00    +0.000 HD
BRANCH  14  16
ATOM     16  C   UNL     1       0.989   9.232  19.610  0.00  0.00    +0.000 A 
ATOM     17  C   UNL     1       0.691   9.714  18.315  0.00  0.00    +0.000 A 
ATOM     18  C   UNL     1      -0.299  10.670  18.076  0.00  0.00    +0.000 A 
ATOM     19  C   UNL     1      -1.038  11.169  19.137  0.00  0.00    +0.000 A 
ATOM     20  C   UNL     1      -0.783  10.710  20.428  0.00  0.00    +0.000 A 
ATOM     21  C   UNL     1       0.208   9.738  20.687  0.00  0.00    +0.000 A 
BRANCH  21  22
ATOM     22  S   UNL     1       0.500   9.407  22.442  0.00  0.00    +0.000 S 
ATOM     23  C   UNL     1      -0.884  10.266  23.231  0.00  0.00    +0.000 C 
ENDBRANCH  21  22
ENDBRANCH  14  16
ENDBRANCH  13  14
ENDBRANCH   3  13
TORSDOF 7
ENDMDL
MODEL 6
REMARK VINA RESULT:      -6.4      2.839      5.968
REMARK  Name = 
REMARK  11 active torsions:
REMARK  status: ('A' for Active; 'I' for Inactive)
REMARK    1  A    between atoms: C_1  and  O_2
REMARK    2  A    between atoms: O_2  and  C_3
REMARK    3  A    between atoms: C_5  and  C_6
REMARK    4  A    between atoms: C_6  and  N_7
REMARK    5  A    between atoms: N_7  and  C_8
REMARK    6  A    between atoms: C_13  and  S_14
REMARK    7  A    between atoms: S_14  and  C_15
REMARK    8  A    between atoms: C_17  and  O_18
REMARK    9  A    between atoms: O_18  and  C_19
REMARK   10  A    between atoms: C_20  and  O_21
REMARK   11  A    between atoms: O_21  and  C_22
REMARK                            x       y       z     vdW  Elec       q    Type
REMARK                         _______ _______ _______ _____ _____    ______ ____
ROOT
ATOM      1  C   UNL     1       2.064   5.073  20.286  0.00  0.00    +0.000 A 
ATOM      2  C   UNL     1       2.344   4.196  19.223  0.00  0.00    +0.000 A 
ATOM      3  C   UNL     1       2.865   4.666  18.018  0.00  0.00    +0.000 A 
ATOM      4  C   UNL     1       2.915   6.043  17.805  0.00  0.00    +0.000 A 
ATOM      5  C   UNL     1       2.572   6.938  18.822  0.00  0.00    +0.000 A 
ATOM      6  C   UNL     1       2.160   6.467  20.093  0.00  0.00    +0.000 A 
ENDROOT
BRANCH   1   8
ATOM      7  C   UNL     1       1.670   3.142  21.606  0.00  0.00    +0.000 C 
ATOM      8  O   UNL     1       1.688   4.567  21.505  0.00  0.00    +0.000 OA
ENDBRANCH   1   8
BRANCH   5   9
ATOM      9  O   UNL     1       2.686   8.251  18.426  0.00  0.00    +0.000 OA
ATOM     10  C   UNL     1       1.608   8.805  17.682  0.00  0.00    +0.000 C 
ENDBRANCH   5   9
BRANCH   6  11
ATOM     11  O   UNL     1       1.878   7.436  21.019  0.00  0.00    +0.000 OA
ATOM     12  C   UNL     1       0.572   7.971  21.138  0.00  0.00    +0.000 C 
ENDBRANCH   6  11
BRANCH   3  13
ATOM     13  C   UNL     1       3.533   3.696  17.073  0.00  0.00    +0.000 C 
BRANCH  13  14
ATOM     14  N   UNL     1       4.931   3.493  17.360  0.00  0.00    +0.000 N 
ATOM     15  H   UNL     1       5.120   2.700  17.960  0.00  0.00    +0.000 HD
BRANCH  14  16
ATOM     16  C   UNL     1       5.820   4.564  17.583  0.00  0.00    +0.000 A 
ATOM     17  C   UNL     1       6.299   4.648  18.911  0.00  0.00    +0.000 A 
ATOM     18  C   UNL     1       7.238   5.600  19.315  0.00  0.00    +0.000 A 
ATOM     19  C   UNL     1       7.743   6.498  18.389  0.00  0.00    +0.000 A 
ATOM     20  C   UNL     1       7.307   6.440  17.067  0.00  0.00    +0.000 A 
ATOM     21  C   UNL     1       6.363   5.481  16.638  0.00  0.00    +0.000 A 
BRANCH  21  22
ATOM     22  S   UNL     1       5.801   5.684  14.931  0.00  0.00    +0.000 S 
ATOM     23  C   UNL     1       6.480   4.212  14.125  0.00  0.00    +0.000 C 
ENDBRANCH  21  22
ENDBRANCH  14  16
ENDBRANCH  13  14
ENDBRANCH   3  13
TORSDOF 7
ENDMDL
MODEL 7
REMARK VINA RESULT:      -6.4      3.285      4.878
REMARK  Name = 
REMARK  11 active torsions:
REMARK  status: ('A' for Active; 'I' for Inactive)
REMARK    1  A    between atoms: C_1  and  O_2
REMARK    2  A    between atoms: O_2  and  C_3
REMARK    3  A    between atoms: C_5  and  C_6
REMARK    4  A    between atoms: C_6  and  N_7
REMARK    5  A    between atoms: N_7  and  C_8
REMARK    6  A    between atoms: C_13  and  S_14
REMARK    7  A    between atoms: S_14  and  C_15
REMARK    8  A    between atoms: C_17  and  O_18
REMARK    9  A    between atoms: O_18  and  C_19
REMARK   10  A    between atoms: C_20  and  O_21
REMARK   11  A    between atoms: O_21  and  C_22
REMARK                            x       y       z     vdW  Elec       q    Type
REMARK                         _______ _______ _______ _____ _____    ______ ____
ROOT
ATOM      1  C   UNL     1       4.851   6.345  17.075  0.00  0.00    +0.000 A 
ATOM      2  C   UNL     1       3.940   7.035  17.892  0.00  0.00    +0.000 A 
ATOM      3  C   UNL     1       2.907   6.365  18.548  0.00  0.00    +0.000 A 
ATOM      4  C   UNL     1       2.665   5.031  18.222  0.00  0.00    +0.000 A 
ATOM      5  C   UNL     1       3.515   4.341  17.353  0.00  0.00    +0.000 A 
ATOM      6  C   UNL     1       4.640   4.982  16.779  0.00  0.00    +0.000 A 
ENDROOT
BRANCH   1   8
ATOM      7  C   UNL     1       7.098   7.034  17.389  0.00  0.00    +0.000 C 
ATOM      8  O   UNL     1       5.938   7.005  16.557  0.00  0.00    +0.000 OA
ENDBRANCH   1   8
BRANCH   5   9
ATOM      9  O   UNL     1       3.117   3.038  17.155  0.00  0.00    +0.000 OA
ATOM     10  C   UNL     1       3.107   2.179  18.290  0.00  0.00    +0.000 C 
ENDBRANCH   5   9
BRANCH   6  11
ATOM     11  O   UNL     1       5.416   4.197  15.968  0.00  0.00    +0.000 OA
ATOM     12  C   UNL     1       5.461   4.418  14.569  0.00  0.00    +0.000 C 
ENDBRANCH   6  11
BRANCH   3  13
ATOM     13  C   UNL     1       2.219   7.029  19.716  0.00  0.00    +0.000 C 
BRANCH  13  14
ATOM     14  N   UNL     1       1.749   8.359  19.420  0.00  0.00    +0.000 N 
ATOM     15  H   UNL     1       2.410   8.927  18.903  0.00  0.00    +0.000 HD
BRANCH  14  16
ATOM     16  C   UNL     1       0.989   9.114  20.337  0.00  0.00    +0.000 A 
ATOM     17  C   UNL     1       1.008   8.606  21.656  0.00  0.00    +0.000 A 
ATOM     18  C   UNL     1       0.371   9.248  22.721  0.00  0.00    +0.000 A 
ATOM     19  C   UNL     1      -0.302  10.438  22.497  0.00  0.00    +0.000 A 
ATOM     20  C   UNL     1      -0.333  10.979  21.213  0.00  0.00    +0.000 A 
ATOM     21  C   UNL     1       0.312  10.349  20.127  0.00  0.00    +0.000 A 
BRANCH  21  22
ATOM     22  S   UNL     1       0.007  11.117  18.517  0.00  0.00    +0.000 S 
ATOM     23  C   UNL     1      -1.426  10.192  17.915  0.00  0.00    +0.000 C 
ENDBRANCH  21  22
ENDBRANCH  14  16
ENDBRANCH  13  14
ENDBRANCH   3  13
TORSDOF 7
ENDMDL
MODEL 8
REMARK VINA RESULT:      -6.3      4.470      7.458
REMARK  Name = 
REMARK  11 active torsions:
REMARK  status: ('A' for Active; 'I' for Inactive)
REMARK    1  A    between atoms: C_1  and  O_2
REMARK    2  A    between atoms: O_2  and  C_3
REMARK    3  A    between atoms: C_5  and  C_6
REMARK    4  A    between atoms: C_6  and  N_7
REMARK    5  A    between atoms: N_7  and  C_8
REMARK    6  A    between atoms: C_13  and  S_14
REMARK    7  A    between atoms: S_14  and  C_15
REMARK    8  A    between atoms: C_17  and  O_18
REMARK    9  A    between atoms: O_18  and  C_19
REMARK   10  A    between atoms: C_20  and  O_21
REMARK   11  A    between atoms: O_21  and  C_22
REMARK                            x       y       z     vdW  Elec       q    Type
REMARK                         _______ _______ _______ _____ _____    ______ ____
ROOT
ATOM      1  C   UNL     1       0.671   9.854  21.147  0.00  0.00    +0.000 A 
ATOM      2  C   UNL     1       1.391   8.752  20.655  0.00  0.00    +0.000 A 
ATOM      3  C   UNL     1       1.486   8.504  19.286  0.00  0.00    +0.000 A 
ATOM      4  C   UNL     1       0.688   9.247  18.417  0.00  0.00    +0.000 A 
ATOM      5  C   UNL     1      -0.096  10.303  18.891  0.00  0.00    +0.000 A 
ATOM      6  C   UNL     1      -0.101  10.641  20.267  0.00  0.00    +0.000 A 
ENDROOT
BRANCH   1   8
ATOM      7  C   UNL     1      -0.296   9.539  23.289  0.00  0.00    +0.000 C 
ATOM      8  O   UNL     1       0.713  10.153  22.486  0.00  0.00    +0.000 OA
ENDBRANCH   1   8
BRANCH   5   9
ATOM      9  O   UNL     1      -0.810  10.918  17.888  0.00  0.00    +0.000 OA
ATOM     10  C   UNL     1      -1.848  10.167  17.270  0.00  0.00    +0.000 C 
ENDBRANCH   5   9
BRANCH   6  11
ATOM     11  O   UNL     1      -0.883  11.712  20.608  0.00  0.00    +0.000 OA
ATOM     12  C   UNL     1      -0.331  13.013  20.712  0.00  0.00    +0.000 C 
ENDBRANCH   6  11
BRANCH   3  13
ATOM     13  C   UNL     1       2.575   7.594  18.772  0.00  0.00    +0.000 C 
BRANCH  13  14
ATOM     14  N   UNL     1       2.896   6.521  19.680  0.00  0.00    +0.000 N 
ATOM     15  H   UNL     1       3.842   6.549  20.038  0.00  0.00    +0.000 HD
BRANCH  14  16
ATOM     16  C   UNL     1       2.429   5.204  19.488  0.00  0.00    +0.000 A 
ATOM     17  C   UNL     1       1.451   4.797  20.424  0.00  0.00    +0.000 A 
ATOM     18  C   UNL     1       0.819   3.553  20.362  0.00  0.00    +0.000 A 
ATOM     19  C   UNL     1       1.141   2.673  19.342  0.00  0.00    +0.000 A 
ATOM     20  C   UNL     1       2.091   3.041  18.391  0.00  0.00    +0.000 A 
ATOM     21  C   UNL     1       2.735   4.297  18.433  0.00  0.00    +0.000 A 
BRANCH  21  22
ATOM     22  S   UNL     1       4.055   4.511  17.216  0.00  0.00    +0.000 S 
ATOM     23  C   UNL     1       5.542   4.433  18.244  0.00  0.00    +0.000 C 
ENDBRANCH  21  22
ENDBRANCH  14  16
ENDBRANCH  13  14
ENDBRANCH   3  13
TORSDOF 7
ENDMDL
MODEL 9
REMARK VINA RESULT:      -6.3      4.075      6.139
REMARK  Name = 
REMARK  11 active torsions:
REMARK  status: ('A' for Active; 'I' for Inactive)
REMARK    1  A    between atoms: C_1  and  O_2
REMARK    2  A    between atoms: O_2  and  C_3
REMARK    3  A    between atoms: C_5  and  C_6
REMARK    4  A    between atoms: C_6  and  N_7
REMARK    5  A    between atoms: N_7  and  C_8
REMARK    6  A    between atoms: C_13  and  S_14
REMARK    7  A    between atoms: S_14  and  C_15
REMARK    8  A    between atoms: C_17  and  O_18
REMARK    9  A    between atoms: O_18  and  C_19
REMARK   10  A    between atoms: C_20  and  O_21
REMARK   11  A    between atoms: O_21  and  C_22
REMARK                            x       y       z     vdW  Elec       q    Type
REMARK                         _______ _______ _______ _____ _____    ______ ____
ROOT
ATOM      1  C   UNL     1       2.774   5.525  19.691  0.00  0.00    +0.000 A 
ATOM      2  C   UNL     1       2.456   6.870  19.434  0.00  0.00    +0.000 A 
ATOM      3  C   UNL     1       2.870   7.497  18.259  0.00  0.00    +0.000 A 
ATOM      4  C   UNL     1       3.775   6.834  17.432  0.00  0.00    +0.000 A 
ATOM      5  C   UNL     1       4.166   5.520  17.706  0.00  0.00    +0.000 A 
ATOM      6  C   UNL     1       3.653   4.832  18.833  0.00  0.00    +0.000 A 
ENDROOT
BRANCH   1   8
ATOM      7  C   UNL     1       1.021   4.181  20.554  0.00  0.00    +0.000 C 
ATOM      8  O   UNL     1       2.235   4.896  20.786  0.00  0.00    +0.000 OA
ENDBRANCH   1   8
BRANCH   5   9
ATOM      9  O   UNL     1       5.060   5.034  16.780  0.00  0.00    +0.000 OA
ATOM     10  C   UNL     1       5.955   5.967  16.184  0.00  0.00    +0.000 C 
ENDBRANCH   5   9
BRANCH   6  11
ATOM     11  O   UNL     1       4.083   3.540  18.982  0.00  0.00    +0.000 OA
ATOM     12  C   UNL     1       3.403   2.469  18.350  0.00  0.00    +0.000 C 
ENDBRANCH   6  11
BRANCH   3  13
ATOM     13  C   UNL     1       2.185   8.769  17.819  0.00  0.00    +0.000 C 
BRANCH  13  14
ATOM     14  N   UNL     1       1.288   9.306  18.811  0.00  0.00    +0.000 N 
ATOM     15  H   UNL     1       0.999   8.637  19.515  0.00  0.00    +0.000 HD
BRANCH  14  16
ATOM     16  C   UNL     1       0.271  10.228  18.491  0.00  0.00    +0.000 A 
ATOM     17  C   UNL     1      -0.820   9.661  17.791  0.00  0.00    +0.000 A 
ATOM     18  C   UNL     1      -1.955  10.397  17.443  0.00  0.00    +0.000 A 
ATOM     19  C   UNL     1      -2.041  11.733  17.798  0.00  0.00    +0.000 A 
ATOM     20  C   UNL     1      -0.992  12.325  18.499  0.00  0.00    +0.000 A 
ATOM     21  C   UNL     1       0.160  11.596  18.867  0.00  0.00    +0.000 A 
BRANCH  21  22
ATOM     22  S   UNL     1       1.474  12.588  19.617  0.00  0.00    +0.000 S 
ATOM     23  C   UNL     1       2.576  12.889  18.213  0.00  0.00    +0.000 C 
ENDBRANCH  21  22
ENDBRANCH  14  16
ENDBRANCH  13  14
ENDBRANCH   3  13
TORSDOF 7
ENDMDL
