MODEL 1
REMARK VINA RESULT:      -8.7      0.000      0.000
REMARK  Name = 
REMARK  4 active torsions:
REMARK  status: ('A' for Active; 'I' for Inactive)
REMARK    1  A    between atoms: C_1  and  C_2
REMARK    2  A    between atoms: C_7  and  C_8
REMARK    3  A    between atoms: C_8  and  N_9
REMARK    4  A    between atoms: C_17  and  C_18
REMARK                            x       y       z     vdW  Elec       q    Type
REMARK                         _______ _______ _______ _____ _____    ______ ____
ROOT
ATOM      1  N   UNL     1       3.575   6.277  18.406  0.00  0.00    +0.000 NA
ATOM      2  C   UNL     1       3.851   7.609  17.839  0.00  0.00    +0.000 C 
ATOM      3  C   UNL     1       2.626   8.521  17.774  0.00  0.00    +0.000 C 
ATOM      4  N   UNL     1       1.875   8.480  19.011  0.00  0.00    +0.000 N 
ATOM      5  C   UNL     1       0.976   9.416  19.439  0.00  0.00    +0.000 A 
ATOM      6  C   UNL     1       0.490   9.001  20.659  0.00  0.00    +0.000 A 
ATOM      7  C   UNL     1       1.129   7.777  20.973  0.00  0.00    +0.000 A 
ATOM      8  C   UNL     1       1.989   7.472  19.931  0.00  0.00    +0.000 A 
ATOM      9  C   UNL     1       2.973   6.333  19.768  0.00  0.00    +0.000 C 
ENDROOT
BRANCH   9  10
ATOM     10  C   UNL     1       2.342   4.991  20.187  0.00  0.00    +0.000 A 
ATOM     11  C   UNL     1       1.460   4.322  19.336  0.00  0.00    +0.000 A 
ATOM     12  C   UNL     1       0.862   3.139  19.771  0.00  0.00    +0.000 A 
ATOM     13  C   UNL     1       1.165   2.648  21.033  0.00  0.00    +0.000 A 
ATOM     14  C   UNL     1       2.064   3.356  21.811  0.00  0.00    +0.000 A 
ATOM     15  N   UNL     1       2.660   4.506  21.420  0.00  0.00    +0.000 NA
ENDBRANCH   9  10
BRANCH   1  16
ATOM     16  C   UNL     1       4.790   5.426  18.370  0.00  0.00    +0.000 C 
BRANCH  16  23
ATOM     17  C   UNL     1       7.567   4.031  10.939  0.00  0.00    +0.000 C 
ATOM     18  C   UNL     1       6.878   4.107  12.271  0.00  0.00    +0.000 A 
ATOM     19  C   UNL     1       5.630   3.503  12.473  0.00  0.00    +0.000 A 
ATOM     20  C   UNL     1       4.984   3.605  13.707  0.00  0.00    +0.000 A 
ATOM     21  C   UNL     1       5.572   4.327  14.747  0.00  0.00    +0.000 A 
ATOM     22  C   UNL     1       4.904   4.499  16.035  0.00  0.00    +0.000 A 
ATOM     23  C   UNL     1       5.465   5.210  17.031  0.00  0.00    +0.000 A 
ATOM     24  C   UNL     1       6.776   5.892  16.788  0.00  0.00    +0.000 A 
ATOM     25  O   UNL     1       7.299   6.618  17.632  0.00  0.00    +0.000 OA
ATOM     26  N   UNL     1       7.391   5.668  15.585  0.00  0.00    +0.000 N 
ATOM     27  C   UNL     1       6.823   4.918  14.551  0.00  0.00    +0.000 A 
ATOM     28  C   UNL     1       7.484   4.798  13.329  0.00  0.00    +0.000 A 
ATOM     29  H   UNL     1       8.280   6.129  15.450  0.00  0.00    +0.000 HD
ENDBRANCH  16  23
ENDBRANCH   1  16
TORSDOF 3
ENDMDL
MODEL 2
REMARK VINA RESULT:      -8.6      1.325      3.694
REMARK  Name = 
REMARK  4 active torsions:
REMARK  status: ('A' for Active; 'I' for Inactive)
REMARK    1  A    between atoms: C_1  and  C_2
REMARK    2  A    between atoms: C_7  and  C_8
REMARK    3  A    between atoms: C_8  and  N_9
REMARK    4  A    between atoms: C_17  and  C_18
REMARK                            x       y       z     vdW  Elec       q    Type
REMARK                         _______ _______ _______ _____ _____    ______ ____
ROOT
ATOM      1  N   UNL     1       4.496   4.730  19.638  0.00  0.00    +0.000 NA
ATOM      2  C   UNL     1       4.873   3.314  19.804  0.00  0.00    +0.000 C 
ATOM      3  C   UNL     1       3.739   2.428  20.319  0.00  0.00    +0.000 C 
ATOM      4  N   UNL     1       2.502   2.697  19.618  0.00  0.00    +0.000 N 
ATOM      5  C   UNL     1       1.419   1.866  19.546  0.00  0.00    +0.000 A 
ATOM      6  C   UNL     1       0.459   2.496  18.786  0.00  0.00    +0.000 A 
ATOM      7  C   UNL     1       0.992   3.744  18.383  0.00  0.00    +0.000 A 
ATOM      8  C   UNL     1       2.268   3.848  18.913  0.00  0.00    +0.000 A 
ATOM      9  C   UNL     1       3.321   4.922  18.742  0.00  0.00    +0.000 C 
ENDROOT
BRANCH   9  10
ATOM     10  C   UNL     1       2.704   6.328  18.878  0.00  0.00    +0.000 A 
ATOM     11  C   UNL     1       2.689   7.208  17.793  0.00  0.00    +0.000 A 
ATOM     12  C   UNL     1       2.176   8.493  17.968  0.00  0.00    +0.000 A 
ATOM     13  C   UNL     1       1.683   8.865  19.211  0.00  0.00    +0.000 A 
ATOM     14  C   UNL     1       1.713   7.932  20.232  0.00  0.00    +0.000 A 
ATOM     15  N   UNL     1       2.205   6.679  20.096  0.00  0.00    +0.000 NA
ENDBRANCH   9  10
BRANCH   1  16
ATOM     16  C   UNL     1       5.663   5.538  19.205  0.00  0.00    +0.000 C 
BRANCH  16  23
ATOM     17  C   UNL     1       7.357   4.390  11.415  0.00  0.00    +0.000 C 
ATOM     18  C   UNL     1       6.903   4.389  12.845  0.00  0.00    +0.000 A 
ATOM     19  C   UNL     1       5.850   3.565  13.267  0.00  0.00    +0.000 A 
ATOM     20  C   UNL     1       5.416   3.593  14.595  0.00  0.00    +0.000 A 
ATOM     21  C   UNL     1       6.019   4.458  15.510  0.00  0.00    +0.000 A 
ATOM     22  C   UNL     1       5.558   4.552  16.893  0.00  0.00    +0.000 A 
ATOM     23  C   UNL     1       6.129   5.399  17.770  0.00  0.00    +0.000 A 
ATOM     24  C   UNL     1       7.220   6.310  17.297  0.00  0.00    +0.000 A 
ATOM     25  O   UNL     1       7.726   7.157  18.030  0.00  0.00    +0.000 OA
ATOM     26  N   UNL     1       7.653   6.157  16.007  0.00  0.00    +0.000 N 
ATOM     27  C   UNL     1       7.077   5.269  15.093  0.00  0.00    +0.000 A 
ATOM     28  C   UNL     1       7.532   5.227  13.776  0.00  0.00    +0.000 A 
ATOM     29  H   UNL     1       8.399   6.775  15.715  0.00  0.00    +0.000 HD
ENDBRANCH  16  23
ENDBRANCH   1  16
TORSDOF 3
ENDMDL
MODEL 3
REMARK VINA RESULT:      -8.4      1.130      3.494
REMARK  Name = 
REMARK  4 active torsions:
REMARK  status: ('A' for Active; 'I' for Inactive)
REMARK    1  A    between atoms: C_1  and  C_2
REMARK    2  A    between atoms: C_7  and  C_8
REMARK    3  A    between atoms: C_8  and  N_9
REMARK    4  A    between atoms: C_17  and  C_18
REMARK                            x       y       z     vdW  Elec       q    Type
REMARK                         _______ _______ _______ _____ _____    ______ ____
ROOT
ATOM      1  N   UNL     1       4.473   5.723  18.571  0.00  0.00    +0.000 NA
ATOM      2  C   UNL     1       5.123   4.401  18.615  0.00  0.00    +0.000 C 
ATOM      3  C   UNL     1       4.650   3.516  19.768  0.00  0.00    +0.000 C 
ATOM      4  N   UNL     1       3.208   3.541  19.892  0.00  0.00    +0.000 N 
ATOM      5  C   UNL     1       2.438   2.613  20.535  0.00  0.00    +0.000 A 
ATOM      6  C   UNL     1       1.124   3.006  20.416  0.00  0.00    +0.000 A 
ATOM      7  C   UNL     1       1.109   4.208  19.669  0.00  0.00    +0.000 A 
ATOM      8  C   UNL     1       2.420   4.523  19.351  0.00  0.00    +0.000 A 
ATOM      9  C   UNL     1       2.987   5.644  18.507  0.00  0.00    +0.000 C 
ENDROOT
BRANCH   9  10
ATOM     10  C   UNL     1       2.313   6.988  18.847  0.00  0.00    +0.000 A 
ATOM     11  C   UNL     1       2.017   7.911  17.842  0.00  0.00    +0.000 A 
ATOM     12  C   UNL     1       1.461   9.142  18.193  0.00  0.00    +0.000 A 
ATOM     13  C   UNL     1       1.204   9.416  19.528  0.00  0.00    +0.000 A 
ATOM     14  C   UNL     1       1.505   8.444  20.465  0.00  0.00    +0.000 A 
ATOM     15  N   UNL     1       2.047   7.241  20.159  0.00  0.00    +0.000 NA
ENDBRANCH   9  10
BRANCH   1  16
ATOM     16  C   UNL     1       5.034   6.549  17.472  0.00  0.00    +0.000 C 
BRANCH  16  23
ATOM     17  C   UNL     1       7.429   2.668  10.834  0.00  0.00    +0.000 C 
ATOM     18  C   UNL     1       6.765   3.258  12.044  0.00  0.00    +0.000 A 
ATOM     19  C   UNL     1       5.388   3.109  12.255  0.00  0.00    +0.000 A 
ATOM     20  C   UNL     1       4.774   3.687  13.369  0.00  0.00    +0.000 A 
ATOM     21  C   UNL     1       5.530   4.435  14.274  0.00  0.00    +0.000 A 
ATOM     22  C   UNL     1       4.915   5.097  15.422  0.00  0.00    +0.000 A 
ATOM     23  C   UNL     1       5.642   5.831  16.285  0.00  0.00    +0.000 A 
ATOM     24  C   UNL     1       7.104   6.025  16.023  0.00  0.00    +0.000 A 
ATOM     25  O   UNL     1       7.803   6.747  16.731  0.00  0.00    +0.000 OA
ATOM     26  N   UNL     1       7.649   5.349  14.964  0.00  0.00    +0.000 N 
ATOM     27  C   UNL     1       6.905   4.572  14.071  0.00  0.00    +0.000 A 
ATOM     28  C   UNL     1       7.527   3.975  12.976  0.00  0.00    +0.000 A 
ATOM     29  H   UNL     1       8.640   5.486  14.815  0.00  0.00    +0.000 HD
ENDBRANCH  16  23
ENDBRANCH   1  16
TORSDOF 3
ENDMDL
MODEL 4
REMARK VINA RESULT:      -8.0      2.892      8.486
REMARK  Name = 
REMARK  4 active torsions:
REMARK  status: ('A' for Active; 'I' for Inactive)
REMARK    1  A    between atoms: C_1  and  C_2
REMARK    2  A    between atoms: C_7  and  C_8
REMARK    3  A    between atoms: C_8  and  N_9
REMARK    4  A    between atoms: C_17  and  C_18
REMARK                            x       y       z     vdW  Elec       q    Type
REMARK                         _______ _______ _______ _____ _____    ______ ____
ROOT
ATOM      1  N   UNL     1       2.349   5.847  19.801  0.00  0.00    +0.000 NA
ATOM      2  C   UNL     1       1.243   5.128  20.458  0.00  0.00    +0.000 C 
ATOM      3  C   UNL     1       0.784   3.878  19.707  0.00  0.00    +0.000 C 
ATOM      4  N   UNL     1       1.912   3.084  19.271  0.00  0.00    +0.000 N 
ATOM      5  C   UNL     1       1.881   1.762  18.922  0.00  0.00    +0.000 A 
ATOM      6  C   UNL     1       3.160   1.393  18.573  0.00  0.00    +0.000 A 
ATOM      7  C   UNL     1       3.985   2.532  18.726  0.00  0.00    +0.000 A 
ATOM      8  C   UNL     1       3.186   3.576  19.163  0.00  0.00    +0.000 A 
ATOM      9  C   UNL     1       3.545   4.991  19.563  0.00  0.00    +0.000 C 
ENDROOT
BRANCH   9  10
ATOM     10  C   UNL     1       4.525   5.620  18.553  0.00  0.00    +0.000 A 
ATOM     11  C   UNL     1       4.070   6.105  17.325  0.00  0.00    +0.000 A 
ATOM     12  C   UNL     1       4.993   6.614  16.411  0.00  0.00    +0.000 A 
ATOM     13  C   UNL     1       6.339   6.637  16.747  0.00  0.00    +0.000 A 
ATOM     14  C   UNL     1       6.712   6.158  17.990  0.00  0.00    +0.000 A 
ATOM     15  N   UNL     1       5.843   5.656  18.898  0.00  0.00    +0.000 NA
ENDBRANCH   9  10
BRANCH   1  16
ATOM     16  C   UNL     1       2.691   7.084  20.547  0.00  0.00    +0.000 C 
BRANCH  16  23
ATOM     17  C   UNL     1      -2.641  13.015  21.676  0.00  0.00    +0.000 C 
ATOM     18  C   UNL     1      -1.709  11.839  21.704  0.00  0.00    +0.000 A 
ATOM     19  C   UNL     1      -1.392  11.199  22.910  0.00  0.00    +0.000 A 
ATOM     20  C   UNL     1      -0.500  10.123  22.930  0.00  0.00    +0.000 A 
ATOM     21  C   UNL     1       0.097   9.688  21.745  0.00  0.00    +0.000 A 
ATOM     22  C   UNL     1       1.072   8.601  21.733  0.00  0.00    +0.000 A 
ATOM     23  C   UNL     1       1.659   8.193  20.592  0.00  0.00    +0.000 A 
ATOM     24  C   UNL     1       1.350   8.915  19.317  0.00  0.00    +0.000 A 
ATOM     25  O   UNL     1       1.913   8.639  18.259  0.00  0.00    +0.000 OA
ATOM     26  N   UNL     1       0.396   9.896  19.363  0.00  0.00    +0.000 N 
ATOM     27  C   UNL     1      -0.230  10.316  20.541  0.00  0.00    +0.000 A 
ATOM     28  C   UNL     1      -1.139  11.373  20.511  0.00  0.00    +0.000 A 
ATOM     29  H   UNL     1       0.197  10.361  18.487  0.00  0.00    +0.000 HD
ENDBRANCH  16  23
ENDBRANCH   1  16
TORSDOF 3
ENDMDL
MODEL 5
REMARK VINA RESULT:      -8.0      2.917      7.936
REMARK  Name = 
REMARK  4 active torsions:
REMARK  status: ('A' for Active; 'I' for Inactive)
REMARK    1  A    between atoms: C_1  and  C_2
REMARK    2  A    between atoms: C_7  and  C_8
REMARK    3  A    between atoms: C_8  and  N_9
REMARK    4  A    between atoms: C_17  and  C_18
REMARK                            x       y       z     vdW  Elec       q    Type
REMARK                         _______ _______ _______ _____ _____    ______ ____
ROOT
ATOM      1  N   UNL     1       3.013   5.952  17.951  0.00  0.00    +0.000 NA
ATOM      2  C   UNL     1       1.562   5.696  17.992  0.00  0.00    +0.000 C 
ATOM      3  C   UNL     1       1.183   4.237  17.736  0.00  0.00    +0.000 C 
ATOM      4  N   UNL     1       2.028   3.335  18.489  0.00  0.00    +0.000 N 
ATOM      5  C   UNL     1       1.746   2.033  18.796  0.00  0.00    +0.000 A 
ATOM      6  C   UNL     1       2.805   1.537  19.523  0.00  0.00    +0.000 A 
ATOM      7  C   UNL     1       3.748   2.583  19.661  0.00  0.00    +0.000 A 
ATOM      8  C   UNL     1       3.243   3.696  19.010  0.00  0.00    +0.000 A 
ATOM      9  C   UNL     1       3.784   5.105  18.903  0.00  0.00    +0.000 C 
ENDROOT
BRANCH   9  10
ATOM     10  C   UNL     1       5.294   5.096  18.589  0.00  0.00    +0.000 A 
ATOM     11  C   UNL     1       5.763   4.632  17.358  0.00  0.00    +0.000 A 
ATOM     12  C   UNL     1       7.139   4.583  17.131  0.00  0.00    +0.000 A 
ATOM     13  C   UNL     1       8.008   5.007  18.126  0.00  0.00    +0.000 A 
ATOM     14  C   UNL     1       7.467   5.474  19.311  0.00  0.00    +0.000 A 
ATOM     15  N   UNL     1       6.139   5.532  19.565  0.00  0.00    +0.000 NA
ENDBRANCH   9  10
BRANCH   1  16
ATOM     16  C   UNL     1       3.298   7.397  18.135  0.00  0.00    +0.000 C 
BRANCH  16  23
ATOM     17  C   UNL     1      -1.669  11.423  23.034  0.00  0.00    +0.000 C 
ATOM     18  C   UNL     1      -0.747  10.492  22.302  0.00  0.00    +0.000 A 
ATOM     19  C   UNL     1      -0.152   9.406  22.958  0.00  0.00    +0.000 A 
ATOM     20  C   UNL     1       0.728   8.561  22.275  0.00  0.00    +0.000 A 
ATOM     21  C   UNL     1       1.035   8.806  20.935  0.00  0.00    +0.000 A 
ATOM     22  C   UNL     1       1.989   7.976  20.204  0.00  0.00    +0.000 A 
ATOM     23  C   UNL     1       2.297   8.223  18.917  0.00  0.00    +0.000 A 
ATOM     24  C   UNL     1       1.692   9.416  18.241  0.00  0.00    +0.000 A 
ATOM     25  O   UNL     1       1.994   9.736  17.093  0.00  0.00    +0.000 OA
ATOM     26  N   UNL     1       0.768  10.139  18.946  0.00  0.00    +0.000 N 
ATOM     27  C   UNL     1       0.431   9.880  20.279  0.00  0.00    +0.000 A 
ATOM     28  C   UNL     1      -0.468  10.711  20.946  0.00  0.00    +0.000 A 
ATOM     29  H   UNL     1       0.366  10.932  18.464  0.00  0.00    +0.000 HD
ENDBRANCH  16  23
ENDBRANCH   1  16
TORSDOF 3
ENDMDL
MODEL 6
REMARK VINA RESULT:      -7.7      2.223      8.146
REMARK  Name = 
REMARK  4 active torsions:
REMARK  status: ('A' for Active; 'I' for Inactive)
REMARK    1  A    between atoms: C_1  and  C_2
REMARK    2  A    between atoms: C_7  and  C_8
REMARK    3  A    between atoms: C_8  and  N_9
REMARK    4  A    between atoms: C_17  and  C_18
REMARK                            x       y       z     vdW  Elec       q    Type
REMARK                         _______ _______ _______ _____ _____    ______ ____
ROOT
ATOM      1  N   UNL     1       2.813   5.736  18.176  0.00  0.00    +0.000 NA
ATOM      2  C   UNL     1       1.600   5.406  18.946  0.00  0.00    +0.000 C 
ATOM      3  C   UNL     1       1.089   3.984  18.718  0.00  0.00    +0.000 C 
ATOM      4  N   UNL     1       2.172   3.024  18.760  0.00  0.00    +0.000 N 
ATOM      5  C   UNL     1       2.049   1.679  18.972  0.00  0.00    +0.000 A 
ATOM      6  C   UNL     1       3.313   1.134  18.939  0.00  0.00    +0.000 A 
ATOM      7  C   UNL     1       4.222   2.193  18.707  0.00  0.00    +0.000 A 
ATOM      8  C   UNL     1       3.489   3.363  18.600  0.00  0.00    +0.000 A 
ATOM      9  C   UNL     1       3.942   4.798  18.431  0.00  0.00    +0.000 C 
ENDROOT
BRANCH   9  10
ATOM     10  C   UNL     1       5.048   4.908  17.364  0.00  0.00    +0.000 A 
ATOM     11  C   UNL     1       4.758   4.707  16.013  0.00  0.00    +0.000 A 
ATOM     12  C   UNL     1       5.795   4.757  15.081  0.00  0.00    +0.000 A 
ATOM     13  C   UNL     1       7.088   5.014  15.515  0.00  0.00    +0.000 A 
ATOM     14  C   UNL     1       7.294   5.223  16.867  0.00  0.00    +0.000 A 
ATOM     15  N   UNL     1       6.311   5.180  17.797  0.00  0.00    +0.000 NA
ENDBRANCH   9  10
BRANCH   1  16
ATOM     16  C   UNL     1       3.206   7.151  18.393  0.00  0.00    +0.000 C 
BRANCH  16  23
ATOM     17  C   UNL     1      -1.741  11.755  22.776  0.00  0.00    +0.000 C 
ATOM     18  C   UNL     1      -0.822  10.739  22.161  0.00  0.00    +0.000 A 
ATOM     19  C   UNL     1      -0.228   9.739  22.942  0.00  0.00    +0.000 A 
ATOM     20  C   UNL     1       0.649   8.816  22.366  0.00  0.00    +0.000 A 
ATOM     21  C   UNL     1       0.953   8.895  21.006  0.00  0.00    +0.000 A 
ATOM     22  C   UNL     1       1.904   7.980  20.379  0.00  0.00    +0.000 A 
ATOM     23  C   UNL     1       2.208   8.068  19.071  0.00  0.00    +0.000 A 
ATOM     24  C   UNL     1       1.605   9.171  18.256  0.00  0.00    +0.000 A 
ATOM     25  O   UNL     1       1.905   9.349  17.077  0.00  0.00    +0.000 OA
ATOM     26  N   UNL     1       0.684   9.977  18.870  0.00  0.00    +0.000 N 
ATOM     27  C   UNL     1       0.350   9.883  20.224  0.00  0.00    +0.000 A 
ATOM     28  C   UNL     1      -0.546  10.791  20.788  0.00  0.00    +0.000 A 
ATOM     29  H   UNL     1       0.283  10.706  18.296  0.00  0.00    +0.000 HD
ENDBRANCH  16  23
ENDBRANCH   1  16
TORSDOF 3
ENDMDL
MODEL 7
REMARK VINA RESULT:      -7.7      4.100      7.501
REMARK  Name = 
REMARK  4 active torsions:
REMARK  status: ('A' for Active; 'I' for Inactive)
REMARK    1  A    between atoms: C_1  and  C_2
REMARK    2  A    between atoms: C_7  and  C_8
REMARK    3  A    between atoms: C_8  and  N_9
REMARK    4  A    between atoms: C_17  and  C_18
REMARK                            x       y       z     vdW  Elec       q    Type
REMARK                         _______ _______ _______ _____ _____    ______ ____
ROOT
ATOM      1  N   UNL     1      -1.120  10.545  18.888  0.00  0.00    +0.000 NA
ATOM      2  C   UNL     1      -1.636   9.906  17.664  0.00  0.00    +0.000 C 
ATOM      3  C   UNL     1      -3.148   9.681  17.673  0.00  0.00    +0.000 C 
ATOM      4  N   UNL     1      -3.851  10.855  18.145  0.00  0.00    +0.000 N 
ATOM      5  C   UNL     1      -5.170  11.143  17.933  0.00  0.00    +0.000 A 
ATOM      6  C   UNL     1      -5.437  12.349  18.543  0.00  0.00    +0.000 A 
ATOM      7  C   UNL     1      -4.231  12.798  19.133  0.00  0.00    +0.000 A 
ATOM      8  C   UNL     1      -3.255  11.851  18.871  0.00  0.00    +0.000 A 
ATOM      9  C   UNL     1      -1.775  11.849  19.189  0.00  0.00    +0.000 C 
ENDROOT
BRANCH   9  10
ATOM     10  C   UNL     1      -1.519  12.313  20.637  0.00  0.00    +0.000 A 
ATOM     11  C   UNL     1      -1.866  11.500  21.718  0.00  0.00    +0.000 A 
ATOM     12  C   UNL     1      -1.673  11.977  23.015  0.00  0.00    +0.000 A 
ATOM     13  C   UNL     1      -1.133  13.241  23.202  0.00  0.00    +0.000 A 
ATOM     14  C   UNL     1      -0.796  13.980  22.082  0.00  0.00    +0.000 A 
ATOM     15  N   UNL     1      -0.970  13.548  20.811  0.00  0.00    +0.000 NA
ENDBRANCH   9  10
BRANCH   1  16
ATOM     16  C   UNL     1       0.359  10.665  18.836  0.00  0.00    +0.000 C 
BRANCH  16  23
ATOM     17  C   UNL     1       5.182   4.215  18.879  0.00  0.00    +0.000 C 
ATOM     18  C   UNL     1       4.321   5.416  18.618  0.00  0.00    +0.000 A 
ATOM     19  C   UNL     1       4.368   6.082  17.385  0.00  0.00    +0.000 A 
ATOM     20  C   UNL     1       3.583   7.216  17.162  0.00  0.00    +0.000 A 
ATOM     21  C   UNL     1       2.757   7.706  18.175  0.00  0.00    +0.000 A 
ATOM     22  C   UNL     1       1.962   8.919  17.996  0.00  0.00    +0.000 A 
ATOM     23  C   UNL     1       1.179   9.399  18.980  0.00  0.00    +0.000 A 
ATOM     24  C   UNL     1       1.173   8.708  20.309  0.00  0.00    +0.000 A 
ATOM     25  O   UNL     1       0.539   9.144  21.267  0.00  0.00    +0.000 OA
ATOM     26  N   UNL     1       1.895   7.550  20.420  0.00  0.00    +0.000 N 
ATOM     27  C   UNL     1       2.700   7.034  19.398  0.00  0.00    +0.000 A 
ATOM     28  C   UNL     1       3.460   5.886  19.618  0.00  0.00    +0.000 A 
ATOM     29  H   UNL     1       1.866   7.095  21.322  0.00  0.00    +0.000 HD
ENDBRANCH  16  23
ENDBRANCH   1  16
TORSDOF 3
ENDMDL
MODEL 8
REMARK VINA RESULT:      -7.5      2.219      8.251
REMARK  Name = 
REMARK  4 active torsions:
REMARK  status: ('A' for Active; 'I' for Inactive)
REMARK    1  A    between atoms: C_1  and  C_2
REMARK    2  A    between atoms: C_7  and  C_8
REMARK    3  A    between atoms: C_8  and  N_9
REMARK    4  A    between atoms: C_17  and  C_18
REMARK                            x       y       z     vdW  Elec       q    Type
REMARK                         _______ _______ _______ _____ _____    ______ ____
ROOT
ATOM      1  N   UNL     1       2.757   5.982  18.615  0.00  0.00    +0.000 NA
ATOM      2  C   UNL     1       1.698   5.717  19.605  0.00  0.00    +0.000 C 
ATOM      3  C   UNL     1       1.425   4.232  19.839  0.00  0.00    +0.000 C 
ATOM      4  N   UNL     1       2.658   3.488  19.985  0.00  0.00    +0.000 N 
ATOM      5  C   UNL     1       2.794   2.257  20.564  0.00  0.00    +0.000 A 
ATOM      6  C   UNL     1       4.125   1.911  20.502  0.00  0.00    +0.000 A 
ATOM      7  C   UNL     1       4.809   2.977  19.871  0.00  0.00    +0.000 A 
ATOM      8  C   UNL     1       3.875   3.951  19.559  0.00  0.00    +0.000 A 
ATOM      9  C   UNL     1       4.051   5.326  18.952  0.00  0.00    +0.000 C 
ENDROOT
BRANCH   9  10
ATOM     10  C   UNL     1       5.016   5.282  17.751  0.00  0.00    +0.000 A 
ATOM     11  C   UNL     1       6.252   5.931  17.805  0.00  0.00    +0.000 A 
ATOM     12  C   UNL     1       7.075   5.919  16.678  0.00  0.00    +0.000 A 
ATOM     13  C   UNL     1       6.653   5.256  15.535  0.00  0.00    +0.000 A 
ATOM     14  C   UNL     1       5.425   4.619  15.564  0.00  0.00    +0.000 A 
ATOM     15  N   UNL     1       4.603   4.612  16.639  0.00  0.00    +0.000 NA
ENDBRANCH   9  10
BRANCH   1  16
ATOM     16  C   UNL     1       2.914   7.440  18.389  0.00  0.00    +0.000 C 
BRANCH  16  23
ATOM     17  C   UNL     1      -1.749  12.040  23.076  0.00  0.00    +0.000 C 
ATOM     18  C   UNL     1      -0.906  11.007  22.388  0.00  0.00    +0.000 A 
ATOM     19  C   UNL     1      -0.437   9.882  23.079  0.00  0.00    +0.000 A 
ATOM     20  C   UNL     1       0.372   8.941  22.437  0.00  0.00    +0.000 A 
ATOM     21  C   UNL     1       0.734   9.125  21.101  0.00  0.00    +0.000 A 
ATOM     22  C   UNL     1       1.620   8.190  20.411  0.00  0.00    +0.000 A 
ATOM     23  C   UNL     1       1.981   8.378  19.128  0.00  0.00    +0.000 A 
ATOM     24  C   UNL     1       1.514   9.608  18.413  0.00  0.00    +0.000 A 
ATOM     25  O   UNL     1       1.874   9.873  17.268  0.00  0.00    +0.000 OA
ATOM     26  N   UNL     1       0.648  10.434  19.080  0.00  0.00    +0.000 N 
ATOM     27  C   UNL     1       0.255  10.239  20.408  0.00  0.00    +0.000 A 
ATOM     28  C   UNL     1      -0.574  11.168  21.035  0.00  0.00    +0.000 A 
ATOM     29  H   UNL     1       0.338  11.252  18.572  0.00  0.00    +0.000 HD
ENDBRANCH  16  23
ENDBRANCH   1  16
TORSDOF 3
ENDMDL
MODEL 9
REMARK VINA RESULT:      -7.5      4.505      8.163
REMARK  Name = 
REMARK  4 active torsions:
REMARK  status: ('A' for Active; 'I' for Inactive)
REMARK    1  A    between atoms: C_1  and  C_2
REMARK    2  A    between atoms: C_7  and  C_8
REMARK    3  A    between atoms: C_8  and  N_9
REMARK    4  A    between atoms: C_17  and  C_18
REMARK                            x       y       z     vdW  Elec       q    Type
REMARK                         _______ _______ _______ _____ _____    ______ ____
ROOT
ATOM      1  N   UNL     1       0.853  12.614  20.205  0.00  0.00    +0.000 NA
ATOM      2  C   UNL     1       2.083  13.361  20.524  0.00  0.00    +0.000 C 
ATOM      3  C   UNL     1       2.432  14.445  19.505  0.00  0.00    +0.000 C 
ATOM      4  N   UNL     1       1.267  15.227  19.150  0.00  0.00    +0.000 N 
ATOM      5  C   UNL     1       1.272  16.471  18.585  0.00  0.00    +0.000 A 
ATOM      6  C   UNL     1      -0.038  16.857  18.412  0.00  0.00    +0.000 A 
ATOM      7  C   UNL     1      -0.854  15.808  18.899  0.00  0.00    +0.000 A 
ATOM      8  C   UNL     1      -0.019  14.801  19.355  0.00  0.00    +0.000 A 
ATOM      9  C   UNL     1      -0.340  13.492  20.044  0.00  0.00    +0.000 C 
ENDROOT
BRANCH   9  10
ATOM     10  C   UNL     1      -1.509  12.771  19.345  0.00  0.00    +0.000 A 
ATOM     11  C   UNL     1      -1.325  12.146  18.109  0.00  0.00    +0.000 A 
ATOM     12  C   UNL     1      -2.419  11.553  17.478  0.00  0.00    +0.000 A 
ATOM     13  C   UNL     1      -3.661  11.588  18.096  0.00  0.00    +0.000 A 
ATOM     14  C   UNL     1      -3.761  12.207  19.329  0.00  0.00    +0.000 A 
ATOM     15  N   UNL     1      -2.721  12.793  19.967  0.00  0.00    +0.000 NA
ENDBRANCH   9  10
BRANCH   1  16
ATOM     16  C   UNL     1       0.619  11.535  21.196  0.00  0.00    +0.000 C 
BRANCH  16  23
ATOM     17  C   UNL     1       3.168   4.404  18.454  0.00  0.00    +0.000 C 
ATOM     18  C   UNL     1       2.655   5.789  18.718  0.00  0.00    +0.000 A 
ATOM     19  C   UNL     1       2.540   6.725  17.681  0.00  0.00    +0.000 A 
ATOM     20  C   UNL     1       2.088   8.021  17.942  0.00  0.00    +0.000 A 
ATOM     21  C   UNL     1       1.764   8.400  19.246  0.00  0.00    +0.000 A 
ATOM     22  C   UNL     1       1.338   9.760  19.566  0.00  0.00    +0.000 A 
ATOM     23  C   UNL     1       1.042  10.128  20.826  0.00  0.00    +0.000 A 
ATOM     24  C   UNL     1       1.216   9.135  21.934  0.00  0.00    +0.000 A 
ATOM     25  O   UNL     1       1.036   9.435  23.113  0.00  0.00    +0.000 OA
ATOM     26  N   UNL     1       1.571   7.859  21.586  0.00  0.00    +0.000 N 
ATOM     27  C   UNL     1       1.866   7.463  20.278  0.00  0.00    +0.000 A 
ATOM     28  C   UNL     1       2.290   6.161  20.019  0.00  0.00    +0.000 A 
ATOM     29  H   UNL     1       1.670   7.204  22.350  0.00  0.00    +0.000 HD
ENDBRANCH  16  23
ENDBRANCH   1  16
TORSDOF 3
ENDMDL
