MODEL 1
REMARK VINA RESULT:      -7.6      0.000      0.000
REMARK  Name = 
REMARK  7 active torsions:
REMARK  status: ('A' for Active; 'I' for Inactive)
REMARK    1  A    between atoms: C_1  and  O_2
REMARK    2  A    between atoms: O_2  and  C_3
REMARK    3  A    between atoms: C_3  and  C_5
REMARK    4  A    between atoms: C_5  and  C_6
REMARK    5  A    between atoms: C_5  and  N_7
REMARK    6  A    between atoms: C_14  and  C_15
REMARK    7  A    between atoms: C_16  and  C_17
REMARK                            x       y       z     vdW  Elec       q    Type
REMARK                         _______ _______ _______ _____ _____    ______ ____
ROOT
ATOM      1  N   UNL     1       4.878   5.065  16.397  0.00  0.00    +0.000 N 
ATOM      2  N   UNL     1       4.278   3.875  16.638  0.00  0.00    +0.000 NA
ATOM      3  C   UNL     1       3.437   4.199  17.634  0.00  0.00    +0.000 A 
ATOM      4  C   UNL     1       3.483   5.582  17.861  0.00  0.00    +0.000 A 
ATOM      5  N   UNL     1       4.371   6.148  17.028  0.00  0.00    +0.000 NA
ATOM      6  C   UNL     1       2.686   6.261  18.860  0.00  0.00    +0.000 C 
ATOM      7  O   UNL     1       2.615   7.476  18.991  0.00  0.00    +0.000 OA
ATOM      8  C   UNL     1       1.936   5.305  19.761  0.00  0.00    +0.000 C 
ATOM      9  C   UNL     1       1.244   5.959  20.930  0.00  0.00    +0.000 C 
ATOM     10  C   UNL     1       1.899   3.965  19.545  0.00  0.00    +0.000 C 
ATOM     11  C   UNL     1       1.177   2.984  20.432  0.00  0.00    +0.000 C 
ATOM     12  C   UNL     1       2.598   3.291  18.386  0.00  0.00    +0.000 C 
ATOM     13  O   UNL     1       2.460   2.096  18.152  0.00  0.00    +0.000 OA
ENDROOT
BRANCH   1  14
ATOM     14  C   UNL     1       5.963   5.199  15.436  0.00  0.00    +0.000 C 
ATOM     15  C   UNL     1       5.937   4.064  14.416  0.00  0.00    +0.000 C 
BRANCH  14  16
ATOM     16  C   UNL     1       7.280   5.343  16.175  0.00  0.00    +0.000 C 
ATOM     17  O   UNL     1       7.909   4.424  16.687  0.00  0.00    +0.000 OA
BRANCH  16  19
ATOM     18  C   UNL     1       7.637   7.137  17.652  0.00  0.00    +0.000 C 
ATOM     19  O   UNL     1       7.630   6.658  16.304  0.00  0.00    +0.000 OA
ENDBRANCH  16  19
ENDBRANCH  14  16
ENDBRANCH   1  14
TORSDOF 3
ENDMDL
MODEL 2
REMARK VINA RESULT:      -7.2      1.691      1.941
REMARK  Name = 
REMARK  7 active torsions:
REMARK  status: ('A' for Active; 'I' for Inactive)
REMARK    1  A    between atoms: C_1  and  O_2
REMARK    2  A    between atoms: O_2  and  C_3
REMARK    3  A    between atoms: C_3  and  C_5
REMARK    4  A    between atoms: C_5  and  C_6
REMARK    5  A    between atoms: C_5  and  N_7
REMARK    6  A    between atoms: C_14  and  C_15
REMARK    7  A    between atoms: C_16  and  C_17
REMARK                            x       y       z     vdW  Elec       q    Type
REMARK                         _______ _______ _______ _____ _____    ______ ____
ROOT
ATOM      1  N   UNL     1       5.099   4.320  16.653  0.00  0.00    +0.000 N 
ATOM      2  N   UNL     1       5.520   3.633  17.741  0.00  0.00    +0.000 NA
ATOM      3  C   UNL     1       4.362   3.430  18.391  0.00  0.00    +0.000 A 
ATOM      4  C   UNL     1       3.293   3.896  17.611  0.00  0.00    +0.000 A 
ATOM      5  N   UNL     1       3.763   4.420  16.467  0.00  0.00    +0.000 NA
ATOM      6  C   UNL     1       1.907   3.816  18.015  0.00  0.00    +0.000 C 
ATOM      7  O   UNL     1       0.952   4.099  17.302  0.00  0.00    +0.000 OA
ATOM      8  C   UNL     1       1.738   3.351  19.444  0.00  0.00    +0.000 C 
ATOM      9  C   UNL     1       0.327   3.431  19.967  0.00  0.00    +0.000 C 
ATOM     10  C   UNL     1       2.775   2.908  20.201  0.00  0.00    +0.000 C 
ATOM     11  C   UNL     1       2.644   2.454  21.633  0.00  0.00    +0.000 C 
ATOM     12  C   UNL     1       4.199   2.832  19.698  0.00  0.00    +0.000 C 
ATOM     13  O   UNL     1       5.095   2.328  20.364  0.00  0.00    +0.000 OA
ENDROOT
BRANCH   1  14
ATOM     14  C   UNL     1       6.032   4.855  15.672  0.00  0.00    +0.000 C 
ATOM     15  C   UNL     1       6.167   3.919  14.474  0.00  0.00    +0.000 C 
BRANCH  14  16
ATOM     16  C   UNL     1       7.346   5.190  16.353  0.00  0.00    +0.000 C 
ATOM     17  O   UNL     1       8.094   4.379  16.887  0.00  0.00    +0.000 OA
BRANCH  16  19
ATOM     18  C   UNL     1       7.472   7.102  17.715  0.00  0.00    +0.000 C 
ATOM     19  O   UNL     1       7.544   6.542  16.402  0.00  0.00    +0.000 OA
ENDBRANCH  16  19
ENDBRANCH  14  16
ENDBRANCH   1  14
TORSDOF 3
ENDMDL
MODEL 3
REMARK VINA RESULT:      -7.2      1.722      2.436
REMARK  Name = 
REMARK  7 active torsions:
REMARK  status: ('A' for Active; 'I' for Inactive)
REMARK    1  A    between atoms: C_1  and  O_2
REMARK    2  A    between atoms: O_2  and  C_3
REMARK    3  A    between atoms: C_3  and  C_5
REMARK    4  A    between atoms: C_5  and  C_6
REMARK    5  A    between atoms: C_5  and  N_7
REMARK    6  A    between atoms: C_14  and  C_15
REMARK    7  A    between atoms: C_16  and  C_17
REMARK                            x       y       z     vdW  Elec       q    Type
REMARK                         _______ _______ _______ _____ _____    ______ ____
ROOT
ATOM      1  N   UNL     1       6.080   5.023  17.734  0.00  0.00    +0.000 N 
ATOM      2  N   UNL     1       6.126   3.906  18.498  0.00  0.00    +0.000 NA
ATOM      3  C   UNL     1       4.878   3.871  18.993  0.00  0.00    +0.000 A 
ATOM      4  C   UNL     1       4.111   4.893  18.414  0.00  0.00    +0.000 A 
ATOM      5  N   UNL     1       4.870   5.602  17.563  0.00  0.00    +0.000 NA
ATOM      6  C   UNL     1       2.716   5.124  18.721  0.00  0.00    +0.000 C 
ATOM      7  O   UNL     1       1.995   5.924  18.139  0.00  0.00    +0.000 OA
ATOM      8  C   UNL     1       2.219   4.273  19.868  0.00  0.00    +0.000 C 
ATOM      9  C   UNL     1       0.829   4.612  20.344  0.00  0.00    +0.000 C 
ATOM     10  C   UNL     1       2.965   3.289  20.433  0.00  0.00    +0.000 C 
ATOM     11  C   UNL     1       2.507   2.435  21.587  0.00  0.00    +0.000 C 
ATOM     12  C   UNL     1       4.366   2.943  19.977  0.00  0.00    +0.000 C 
ATOM     13  O   UNL     1       4.975   1.983  20.431  0.00  0.00    +0.000 OA
ENDROOT
BRANCH   1  14
ATOM     14  C   UNL     1       7.258   5.538  17.051  0.00  0.00    +0.000 C 
ATOM     15  C   UNL     1       7.422   7.036  17.292  0.00  0.00    +0.000 C 
BRANCH  14  16
ATOM     16  C   UNL     1       7.208   5.144  15.587  0.00  0.00    +0.000 C 
ATOM     17  O   UNL     1       7.875   5.655  14.693  0.00  0.00    +0.000 OA
BRANCH  16  19
ATOM     18  C   UNL     1       6.094   3.825  13.991  0.00  0.00    +0.000 C 
ATOM     19  O   UNL     1       6.232   4.216  15.360  0.00  0.00    +0.000 OA
ENDBRANCH  16  19
ENDBRANCH  14  16
ENDBRANCH   1  14
TORSDOF 3
ENDMDL
MODEL 4
REMARK VINA RESULT:      -7.0      0.843      1.111
REMARK  Name = 
REMARK  7 active torsions:
REMARK  status: ('A' for Active; 'I' for Inactive)
REMARK    1  A    between atoms: C_1  and  O_2
REMARK    2  A    between atoms: O_2  and  C_3
REMARK    3  A    between atoms: C_3  and  C_5
REMARK    4  A    between atoms: C_5  and  C_6
REMARK    5  A    between atoms: C_5  and  N_7
REMARK    6  A    between atoms: C_14  and  C_15
REMARK    7  A    between atoms: C_16  and  C_17
REMARK                            x       y       z     vdW  Elec       q    Type
REMARK                         _______ _______ _______ _____ _____    ______ ____
ROOT
ATOM      1  N   UNL     1       5.078   5.248  16.548  0.00  0.00    +0.000 N 
ATOM      2  N   UNL     1       4.488   4.034  16.444  0.00  0.00    +0.000 NA
ATOM      3  C   UNL     1       3.534   4.120  17.385  0.00  0.00    +0.000 A 
ATOM      4  C   UNL     1       3.518   5.415  17.924  0.00  0.00    +0.000 A 
ATOM      5  N   UNL     1       4.477   6.157  17.347  0.00  0.00    +0.000 NA
ATOM      6  C   UNL     1       2.598   5.847  18.954  0.00  0.00    +0.000 C 
ATOM      7  O   UNL     1       2.480   6.999  19.349  0.00  0.00    +0.000 OA
ATOM      8  C   UNL     1       1.780   4.709  19.524  0.00  0.00    +0.000 C 
ATOM      9  C   UNL     1       0.946   5.077  20.725  0.00  0.00    +0.000 C 
ATOM     10  C   UNL     1       1.803   3.454  19.006  0.00  0.00    +0.000 C 
ATOM     11  C   UNL     1       1.015   2.295  19.561  0.00  0.00    +0.000 C 
ATOM     12  C   UNL     1       2.643   3.063  17.811  0.00  0.00    +0.000 C 
ATOM     13  O   UNL     1       2.564   1.953  17.298  0.00  0.00    +0.000 OA
ENDROOT
BRANCH   1  14
ATOM     14  C   UNL     1       6.259   5.599  15.772  0.00  0.00    +0.000 C 
ATOM     15  C   UNL     1       6.716   4.428  14.907  0.00  0.00    +0.000 C 
BRANCH  14  16
ATOM     16  C   UNL     1       7.330   6.147  16.696  0.00  0.00    +0.000 C 
ATOM     17  O   UNL     1       7.828   7.265  16.618  0.00  0.00    +0.000 OA
BRANCH  16  19
ATOM     18  C   UNL     1       7.766   5.596  18.939  0.00  0.00    +0.000 C 
ATOM     19  O   UNL     1       7.763   5.189  17.569  0.00  0.00    +0.000 OA
ENDBRANCH  16  19
ENDBRANCH  14  16
ENDBRANCH   1  14
TORSDOF 3
ENDMDL
MODEL 5
REMARK VINA RESULT:      -7.0      1.694      3.295
REMARK  Name = 
REMARK  7 active torsions:
REMARK  status: ('A' for Active; 'I' for Inactive)
REMARK    1  A    between atoms: C_1  and  O_2
REMARK    2  A    between atoms: O_2  and  C_3
REMARK    3  A    between atoms: C_3  and  C_5
REMARK    4  A    between atoms: C_5  and  C_6
REMARK    5  A    between atoms: C_5  and  N_7
REMARK    6  A    between atoms: C_14  and  C_15
REMARK    7  A    between atoms: C_16  and  C_17
REMARK                            x       y       z     vdW  Elec       q    Type
REMARK                         _______ _______ _______ _____ _____    ______ ____
ROOT
ATOM      1  N   UNL     1       6.035   5.425  18.031  0.00  0.00    +0.000 N 
ATOM      2  N   UNL     1       4.998   6.242  18.332  0.00  0.00    +0.000 NA
ATOM      3  C   UNL     1       4.216   5.423  19.055  0.00  0.00    +0.000 A 
ATOM      4  C   UNL     1       4.869   4.198  19.253  0.00  0.00    +0.000 A 
ATOM      5  N   UNL     1       6.064   4.218  18.640  0.00  0.00    +0.000 NA
ATOM      6  C   UNL     1       4.306   3.097  20.004  0.00  0.00    +0.000 C 
ATOM      7  O   UNL     1       4.905   2.070  20.296  0.00  0.00    +0.000 OA
ATOM      8  C   UNL     1       2.863   3.331  20.393  0.00  0.00    +0.000 C 
ATOM      9  C   UNL     1       2.180   2.138  21.011  0.00  0.00    +0.000 C 
ATOM     10  C   UNL     1       2.229   4.515  20.194  0.00  0.00    +0.000 C 
ATOM     11  C   UNL     1       0.789   4.775  20.554  0.00  0.00    +0.000 C 
ATOM     12  C   UNL     1       2.894   5.718  19.564  0.00  0.00    +0.000 C 
ATOM     13  O   UNL     1       2.334   6.805  19.493  0.00  0.00    +0.000 OA
ENDROOT
BRANCH   1  14
ATOM     14  C   UNL     1       7.121   5.849  17.160  0.00  0.00    +0.000 C 
ATOM     15  C   UNL     1       7.636   7.230  17.558  0.00  0.00    +0.000 C 
BRANCH  14  16
ATOM     16  C   UNL     1       6.683   5.741  15.712  0.00  0.00    +0.000 C 
ATOM     17  O   UNL     1       5.800   6.411  15.187  0.00  0.00    +0.000 OA
BRANCH  16  19
ATOM     18  C   UNL     1       6.491   3.963  14.185  0.00  0.00    +0.000 C 
ATOM     19  O   UNL     1       7.319   4.709  15.081  0.00  0.00    +0.000 OA
ENDBRANCH  16  19
ENDBRANCH  14  16
ENDBRANCH   1  14
TORSDOF 3
ENDMDL
MODEL 6
REMARK VINA RESULT:      -6.9      1.845      2.805
REMARK  Name = 
REMARK  7 active torsions:
REMARK  status: ('A' for Active; 'I' for Inactive)
REMARK    1  A    between atoms: C_1  and  O_2
REMARK    2  A    between atoms: O_2  and  C_3
REMARK    3  A    between atoms: C_3  and  C_5
REMARK    4  A    between atoms: C_5  and  C_6
REMARK    5  A    between atoms: C_5  and  N_7
REMARK    6  A    between atoms: C_14  and  C_15
REMARK    7  A    between atoms: C_16  and  C_17
REMARK                            x       y       z     vdW  Elec       q    Type
REMARK                         _______ _______ _______ _____ _____    ______ ____
ROOT
ATOM      1  N   UNL     1       5.676   4.582  17.635  0.00  0.00    +0.000 N 
ATOM      2  N   UNL     1       5.860   3.793  18.720  0.00  0.00    +0.000 NA
ATOM      3  C   UNL     1       4.593   3.485  19.042  0.00  0.00    +0.000 A 
ATOM      4  C   UNL     1       3.720   4.000  18.073  0.00  0.00    +0.000 A 
ATOM      5  N   UNL     1       4.421   4.662  17.138  0.00  0.00    +0.000 NA
ATOM      6  C   UNL     1       2.283   3.834  18.113  0.00  0.00    +0.000 C 
ATOM      7  O   UNL     1       1.515   4.165  17.220  0.00  0.00    +0.000 OA
ATOM      8  C   UNL     1       1.802   3.210  19.404  0.00  0.00    +0.000 C 
ATOM      9  C   UNL     1       0.303   3.189  19.570  0.00  0.00    +0.000 C 
ATOM     10  C   UNL     1       2.648   2.718  20.345  0.00  0.00    +0.000 C 
ATOM     11  C   UNL     1       2.202   2.106  21.648  0.00  0.00    +0.000 C 
ATOM     12  C   UNL     1       4.154   2.742  20.203  0.00  0.00    +0.000 C 
ATOM     13  O   UNL     1       4.890   2.195  21.015  0.00  0.00    +0.000 OA
ENDROOT
BRANCH   1  14
ATOM     14  C   UNL     1       6.787   5.251  16.973  0.00  0.00    +0.000 C 
ATOM     15  C   UNL     1       7.250   6.467  17.770  0.00  0.00    +0.000 C 
BRANCH  14  16
ATOM     16  C   UNL     1       6.412   5.554  15.534  0.00  0.00    +0.000 C 
ATOM     17  O   UNL     1       5.614   6.414  15.177  0.00  0.00    +0.000 OA
BRANCH  16  19
ATOM     18  C   UNL     1       6.060   3.870  13.932  0.00  0.00    +0.000 C 
ATOM     19  O   UNL     1       6.990   4.661  14.676  0.00  0.00    +0.000 OA
ENDBRANCH  16  19
ENDBRANCH  14  16
ENDBRANCH   1  14
TORSDOF 3
ENDMDL
MODEL 7
REMARK VINA RESULT:      -6.9      1.806      2.150
REMARK  Name = 
REMARK  7 active torsions:
REMARK  status: ('A' for Active; 'I' for Inactive)
REMARK    1  A    between atoms: C_1  and  O_2
REMARK    2  A    between atoms: O_2  and  C_3
REMARK    3  A    between atoms: C_3  and  C_5
REMARK    4  A    between atoms: C_5  and  C_6
REMARK    5  A    between atoms: C_5  and  N_7
REMARK    6  A    between atoms: C_14  and  C_15
REMARK    7  A    between atoms: C_16  and  C_17
REMARK                            x       y       z     vdW  Elec       q    Type
REMARK                         _______ _______ _______ _____ _____    ______ ____
ROOT
ATOM      1  N   UNL     1       5.446   4.891  17.270  0.00  0.00    +0.000 N 
ATOM      2  N   UNL     1       5.779   4.040  18.269  0.00  0.00    +0.000 NA
ATOM      3  C   UNL     1       4.570   3.698  18.742  0.00  0.00    +0.000 A 
ATOM      4  C   UNL     1       3.570   4.261  17.936  0.00  0.00    +0.000 A 
ATOM      5  N   UNL     1       4.134   4.986  16.956  0.00  0.00    +0.000 NA
ATOM      6  C   UNL     1       2.153   4.076  18.162  0.00  0.00    +0.000 C 
ATOM      7  O   UNL     1       1.268   4.451  17.404  0.00  0.00    +0.000 OA
ATOM      8  C   UNL     1       1.855   3.369  19.466  0.00  0.00    +0.000 C 
ATOM      9  C   UNL     1       0.394   3.322  19.833  0.00  0.00    +0.000 C 
ATOM     10  C   UNL     1       2.825   2.831  20.250  0.00  0.00    +0.000 C 
ATOM     11  C   UNL     1       2.564   2.137  21.562  0.00  0.00    +0.000 C 
ATOM     12  C   UNL     1       4.296   2.881  19.904  0.00  0.00    +0.000 C 
ATOM     13  O   UNL     1       5.139   2.295  20.573  0.00  0.00    +0.000 OA
ENDROOT
BRANCH   1  14
ATOM     14  C   UNL     1       6.453   5.611  16.504  0.00  0.00    +0.000 C 
ATOM     15  C   UNL     1       7.302   4.652  15.675  0.00  0.00    +0.000 C 
BRANCH  14  16
ATOM     16  C   UNL     1       7.251   6.508  17.432  0.00  0.00    +0.000 C 
ATOM     17  O   UNL     1       7.876   6.130  18.417  0.00  0.00    +0.000 OA
BRANCH  16  19
ATOM     18  C   UNL     1       7.989   8.714  17.771  0.00  0.00    +0.000 C 
ATOM     19  O   UNL     1       7.092   7.824  17.101  0.00  0.00    +0.000 OA
ENDBRANCH  16  19
ENDBRANCH  14  16
ENDBRANCH   1  14
TORSDOF 3
ENDMDL
MODEL 8
REMARK VINA RESULT:      -6.9      0.648      2.519
REMARK  Name = 
REMARK  7 active torsions:
REMARK  status: ('A' for Active; 'I' for Inactive)
REMARK    1  A    between atoms: C_1  and  O_2
REMARK    2  A    between atoms: O_2  and  C_3
REMARK    3  A    between atoms: C_3  and  C_5
REMARK    4  A    between atoms: C_5  and  C_6
REMARK    5  A    between atoms: C_5  and  N_7
REMARK    6  A    between atoms: C_14  and  C_15
REMARK    7  A    between atoms: C_16  and  C_17
REMARK                            x       y       z     vdW  Elec       q    Type
REMARK                         _______ _______ _______ _____ _____    ______ ____
ROOT
ATOM      1  N   UNL     1       4.956   4.961  16.614  0.00  0.00    +0.000 N 
ATOM      2  N   UNL     1       4.411   5.882  17.443  0.00  0.00    +0.000 NA
ATOM      3  C   UNL     1       3.570   5.123  18.165  0.00  0.00    +0.000 A 
ATOM      4  C   UNL     1       3.735   3.774  17.820  0.00  0.00    +0.000 A 
ATOM      5  N   UNL     1       4.666   3.664  16.859  0.00  0.00    +0.000 NA
ATOM      6  C   UNL     1       2.988   2.691  18.423  0.00  0.00    +0.000 C 
ATOM      7  O   UNL     1       3.201   1.502  18.230  0.00  0.00    +0.000 OA
ATOM      8  C   UNL     1       1.878   3.178  19.329  0.00  0.00    +0.000 C 
ATOM      9  C   UNL     1       0.958   2.094  19.830  0.00  0.00    +0.000 C 
ATOM     10  C   UNL     1       1.715   4.486  19.656  0.00  0.00    +0.000 C 
ATOM     11  C   UNL     1       0.611   5.005  20.541  0.00  0.00    +0.000 C 
ATOM     12  C   UNL     1       2.620   5.588  19.153  0.00  0.00    +0.000 C 
ATOM     13  O   UNL     1       2.516   6.743  19.548  0.00  0.00    +0.000 OA
ENDROOT
BRANCH   1  14
ATOM     14  C   UNL     1       5.885   5.333  15.556  0.00  0.00    +0.000 C 
ATOM     15  C   UNL     1       5.751   4.399  14.355  0.00  0.00    +0.000 C 
BRANCH  14  16
ATOM     16  C   UNL     1       7.289   5.424  16.121  0.00  0.00    +0.000 C 
ATOM     17  O   UNL     1       7.985   4.468  16.447  0.00  0.00    +0.000 OA
BRANCH  16  19
ATOM     18  C   UNL     1       7.682   7.106  17.716  0.00  0.00    +0.000 C 
ATOM     19  O   UNL     1       7.649   6.724  16.338  0.00  0.00    +0.000 OA
ENDBRANCH  16  19
ENDBRANCH  14  16
ENDBRANCH   1  14
TORSDOF 3
ENDMDL
MODEL 9
REMARK VINA RESULT:      -6.9      1.052      1.104
REMARK  Name = 
REMARK  7 active torsions:
REMARK  status: ('A' for Active; 'I' for Inactive)
REMARK    1  A    between atoms: C_1  and  O_2
REMARK    2  A    between atoms: O_2  and  C_3
REMARK    3  A    between atoms: C_3  and  C_5
REMARK    4  A    between atoms: C_5  and  C_6
REMARK    5  A    between atoms: C_5  and  N_7
REMARK    6  A    between atoms: C_14  and  C_15
REMARK    7  A    between atoms: C_16  and  C_17
REMARK                            x       y       z     vdW  Elec       q    Type
REMARK                         _______ _______ _______ _____ _____    ______ ____
ROOT
ATOM      1  N   UNL     1       5.190   5.392  16.743  0.00  0.00    +0.000 N 
ATOM      2  N   UNL     1       4.547   4.246  16.417  0.00  0.00    +0.000 NA
ATOM      3  C   UNL     1       3.555   4.232  17.322  0.00  0.00    +0.000 A 
ATOM      4  C   UNL     1       3.576   5.421  18.067  0.00  0.00    +0.000 A 
ATOM      5  N   UNL     1       4.597   6.192  17.657  0.00  0.00    +0.000 NA
ATOM      6  C   UNL     1       2.631   5.731  19.117  0.00  0.00    +0.000 C 
ATOM      7  O   UNL     1       2.552   6.808  19.692  0.00  0.00    +0.000 OA
ATOM      8  C   UNL     1       1.733   4.563  19.460  0.00  0.00    +0.000 C 
ATOM      9  C   UNL     1       0.862   4.777  20.672  0.00  0.00    +0.000 C 
ATOM     10  C   UNL     1       1.718   3.409  18.744  0.00  0.00    +0.000 C 
ATOM     11  C   UNL     1       0.849   2.222  19.069  0.00  0.00    +0.000 C 
ATOM     12  C   UNL     1       2.594   3.171  17.534  0.00  0.00    +0.000 C 
ATOM     13  O   UNL     1       2.484   2.166  16.843  0.00  0.00    +0.000 OA
ENDROOT
BRANCH   1  14
ATOM     14  C   UNL     1       6.422   5.798  16.081  0.00  0.00    +0.000 C 
ATOM     15  C   UNL     1       6.998   4.658  15.245  0.00  0.00    +0.000 C 
BRANCH  14  16
ATOM     16  C   UNL     1       7.385   6.368  17.106  0.00  0.00    +0.000 C 
ATOM     17  O   UNL     1       7.738   5.804  18.136  0.00  0.00    +0.000 OA
BRANCH  16  19
ATOM     18  C   UNL     1       8.041   8.469  17.930  0.00  0.00    +0.000 C 
ATOM     19  O   UNL     1       7.727   7.654  16.798  0.00  0.00    +0.000 OA
ENDBRANCH  16  19
ENDBRANCH  14  16
ENDBRANCH   1  14
TORSDOF 3
ENDMDL
