MODEL 1
REMARK VINA RESULT:      -7.9      0.000      0.000
REMARK  Name = 
REMARK  7 active torsions:
REMARK  status: ('A' for Active; 'I' for Inactive)
REMARK    1  A    between atoms: C_2  and  C_3
REMARK    2  A    between atoms: C_3  and  C_4
REMARK    3  A    between atoms: C_4  and  S_5
REMARK    4  A    between atoms: N_6  and  C_7
REMARK    5  A    between atoms: C_11  and  N_12
REMARK    6  A    between atoms: C_17  and  N_18
REMARK    7  A    between atoms: C_21  and  C_22
REMARK                            x       y       z     vdW  Elec       q    Type
REMARK                         _______ _______ _______ _____ _____    ______ ____
ROOT
ATOM      1  N   UNL     1       1.897   5.953  20.340  0.00  0.00    +0.000 N 
ATOM      2  C   UNL     1       2.881   4.968  20.201  0.00  0.00    +0.000 A 
ATOM      3  N   UNL     1       2.513   3.696  20.389  0.00  0.00    +0.000 NA
ATOM      4  C   UNL     1       3.427   2.757  20.067  0.00  0.00    +0.000 A 
ATOM      5  C   UNL     1       4.669   3.040  19.548  0.00  0.00    +0.000 A 
ATOM      6  C   UNL     1       4.987   4.371  19.447  0.00  0.00    +0.000 A 
ATOM      7  N   UNL     1       4.105   5.312  19.799  0.00  0.00    +0.000 NA
ATOM      8  H   UNL     1       1.007   5.479  20.435  0.00  0.00    +0.000 HD
ENDROOT
BRANCH   6   9
ATOM      9  N   UNL     1       6.244   4.775  18.951  0.00  0.00    +0.000 N 
ATOM     10  C   UNL     1       6.613   4.716  17.648  0.00  0.00    +0.000 A 
ATOM     11  C   UNL     1       5.746   4.991  16.560  0.00  0.00    +0.000 A 
ATOM     12  C   UNL     1       6.504   4.785  15.435  0.00  0.00    +0.000 A 
ATOM     13  N   UNL     1       7.755   4.489  15.884  0.00  0.00    +0.000 N 
ATOM     14  N   UNL     1       7.846   4.423  17.226  0.00  0.00    +0.000 NA
ATOM     15  H   UNL     1       6.975   4.498  19.596  0.00  0.00    +0.000 HD
ATOM     16  H   UNL     1       8.587   4.313  15.332  0.00  0.00    +0.000 HD
BRANCH  12  17
ATOM     17  C   UNL     1       6.007   4.878  14.011  0.00  0.00    +0.000 C 
ATOM     18  C   UNL     1       6.923   4.456  12.883  0.00  0.00    +0.000 C 
ATOM     19  C   UNL     1       5.771   3.588  13.254  0.00  0.00    +0.000 C 
ENDBRANCH  12  17
ENDBRANCH   6   9
BRANCH   1  24
ATOM     20  C   UNL     1       1.356   9.627  19.711  0.00  0.00    +0.000 A 
ATOM     21  C   UNL     1       1.870   9.714  18.422  0.00  0.00    +0.000 A 
ATOM     22  C   UNL     1       2.345   8.578  17.766  0.00  0.00    +0.000 A 
ATOM     23  C   UNL     1       2.335   7.338  18.405  0.00  0.00    +0.000 A 
ATOM     24  C   UNL     1       1.848   7.214  19.709  0.00  0.00    +0.000 A 
ATOM     25  C   UNL     1       1.311   8.366  20.318  0.00  0.00    +0.000 A 
BRANCH  20  28
ATOM     26  O   UNL     1      -1.225  11.039  19.619  0.00  0.00    +0.000 OA
ATOM     27  C   UNL     1      -0.303  11.382  20.354  0.00  0.00    +0.000 C 
ATOM     28  N   UNL     1       0.915  10.746  20.469  0.00  0.00    +0.000 N 
ATOM     29  H   UNL     1       1.596  11.120  21.125  0.00  0.00    +0.000 HD
BRANCH  27  30
ATOM     30  C   UNL     1      -0.434  12.627  21.210  0.00  0.00    +0.000 C 
BRANCH  30  31
ATOM     31  C   UNL     1      -0.839  13.809  20.331  0.00  0.00    +0.000 C 
BRANCH  31  32
ATOM     32  S   UNL     1       0.470  14.209  19.135  0.00  0.00    +0.000 S 
ATOM     33  H   UNL     1      -0.294  14.911  18.289  0.00  0.00    +0.000 HD
ENDBRANCH  31  32
ENDBRANCH  30  31
ENDBRANCH  27  30
ENDBRANCH  20  28
ENDBRANCH   1  24
TORSDOF 7
ENDMDL
MODEL 2
REMARK VINA RESULT:      -7.8      1.780      1.951
REMARK  Name = 
REMARK  7 active torsions:
REMARK  status: ('A' for Active; 'I' for Inactive)
REMARK    1  A    between atoms: C_2  and  C_3
REMARK    2  A    between atoms: C_3  and  C_4
REMARK    3  A    between atoms: C_4  and  S_5
REMARK    4  A    between atoms: N_6  and  C_7
REMARK    5  A    between atoms: C_11  and  N_12
REMARK    6  A    between atoms: C_17  and  N_18
REMARK    7  A    between atoms: C_21  and  C_22
REMARK                            x       y       z     vdW  Elec       q    Type
REMARK                         _______ _______ _______ _____ _____    ______ ____
ROOT
ATOM      1  N   UNL     1       2.352   6.530  20.299  0.00  0.00    +0.000 N 
ATOM      2  C   UNL     1       3.366   5.762  19.717  0.00  0.00    +0.000 A 
ATOM      3  N   UNL     1       3.377   4.450  19.979  0.00  0.00    +0.000 NA
ATOM      4  C   UNL     1       4.244   3.706  19.263  0.00  0.00    +0.000 A 
ATOM      5  C   UNL     1       5.072   4.215  18.289  0.00  0.00    +0.000 A 
ATOM      6  C   UNL     1       5.041   5.577  18.129  0.00  0.00    +0.000 A 
ATOM      7  N   UNL     1       4.214   6.332  18.861  0.00  0.00    +0.000 NA
ATOM      8  H   UNL     1       1.699   5.888  20.733  0.00  0.00    +0.000 HD
ENDROOT
BRANCH   6   9
ATOM      9  N   UNL     1       5.866   6.209  17.175  0.00  0.00    +0.000 N 
ATOM     10  C   UNL     1       6.337   5.617  16.051  0.00  0.00    +0.000 A 
ATOM     11  C   UNL     1       5.596   4.699  15.263  0.00  0.00    +0.000 A 
ATOM     12  C   UNL     1       6.446   4.325  14.253  0.00  0.00    +0.000 A 
ATOM     13  N   UNL     1       7.576   5.064  14.430  0.00  0.00    +0.000 N 
ATOM     14  N   UNL     1       7.544   5.846  15.526  0.00  0.00    +0.000 NA
ATOM     15  H   UNL     1       6.547   6.797  17.644  0.00  0.00    +0.000 HD
ATOM     16  H   UNL     1       8.407   5.078  13.849  0.00  0.00    +0.000 HD
BRANCH  12  17
ATOM     17  C   UNL     1       6.145   3.297  13.186  0.00  0.00    +0.000 C 
ATOM     18  C   UNL     1       5.156   3.639  12.094  0.00  0.00    +0.000 C 
ATOM     19  C   UNL     1       6.609   3.581  11.773  0.00  0.00    +0.000 C 
ENDBRANCH  12  17
ENDBRANCH   6   9
BRANCH   1  24
ATOM     20  C   UNL     1       0.464   9.783  20.091  0.00  0.00    +0.000 A 
ATOM     21  C   UNL     1       0.783  10.146  18.787  0.00  0.00    +0.000 A 
ATOM     22  C   UNL     1       1.567   9.315  17.988  0.00  0.00    +0.000 A 
ATOM     23  C   UNL     1       2.068   8.116  18.494  0.00  0.00    +0.000 A 
ATOM     24  C   UNL     1       1.789   7.726  19.807  0.00  0.00    +0.000 A 
ATOM     25  C   UNL     1       0.937   8.553  20.566  0.00  0.00    +0.000 A 
BRANCH  20  28
ATOM     26  O   UNL     1       1.199  12.375  21.278  0.00  0.00    +0.000 OA
ATOM     27  C   UNL     1       0.145  11.799  21.533  0.00  0.00    +0.000 C 
ATOM     28  N   UNL     1      -0.273  10.603  20.988  0.00  0.00    +0.000 N 
ATOM     29  H   UNL     1      -1.177  10.231  21.270  0.00  0.00    +0.000 HD
BRANCH  27  30
ATOM     30  C   UNL     1      -0.812  12.379  22.557  0.00  0.00    +0.000 C 
BRANCH  30  31
ATOM     31  C   UNL     1      -2.227  12.391  21.982  0.00  0.00    +0.000 C 
BRANCH  31  32
ATOM     32  S   UNL     1      -3.462  12.604  23.299  0.00  0.00    +0.000 S 
ATOM     33  H   UNL     1      -3.688  13.908  23.097  0.00  0.00    +0.000 HD
ENDBRANCH  31  32
ENDBRANCH  30  31
ENDBRANCH  27  30
ENDBRANCH  20  28
ENDBRANCH   1  24
TORSDOF 7
ENDMDL
MODEL 3
REMARK VINA RESULT:      -7.8      1.004      1.036
REMARK  Name = 
REMARK  7 active torsions:
REMARK  status: ('A' for Active; 'I' for Inactive)
REMARK    1  A    between atoms: C_2  and  C_3
REMARK    2  A    between atoms: C_3  and  C_4
REMARK    3  A    between atoms: C_4  and  S_5
REMARK    4  A    between atoms: N_6  and  C_7
REMARK    5  A    between atoms: C_11  and  N_12
REMARK    6  A    between atoms: C_17  and  N_18
REMARK    7  A    between atoms: C_21  and  C_22
REMARK                            x       y       z     vdW  Elec       q    Type
REMARK                         _______ _______ _______ _____ _____    ______ ____
ROOT
ATOM      1  N   UNL     1       1.909   5.886  20.403  0.00  0.00    +0.000 N 
ATOM      2  C   UNL     1       2.906   4.922  20.228  0.00  0.00    +0.000 A 
ATOM      3  N   UNL     1       2.565   3.640  20.399  0.00  0.00    +0.000 NA
ATOM      4  C   UNL     1       3.488   2.724  20.043  0.00  0.00    +0.000 A 
ATOM      5  C   UNL     1       4.716   3.039  19.505  0.00  0.00    +0.000 A 
ATOM      6  C   UNL     1       5.008   4.377  19.423  0.00  0.00    +0.000 A 
ATOM      7  N   UNL     1       4.116   5.296  19.809  0.00  0.00    +0.000 NA
ATOM      8  H   UNL     1       1.028   5.395  20.506  0.00  0.00    +0.000 HD
ENDROOT
BRANCH   6   9
ATOM      9  N   UNL     1       6.248   4.813  18.911  0.00  0.00    +0.000 N 
ATOM     10  C   UNL     1       6.610   4.742  17.607  0.00  0.00    +0.000 A 
ATOM     11  C   UNL     1       5.727   4.969  16.520  0.00  0.00    +0.000 A 
ATOM     12  C   UNL     1       6.484   4.768  15.394  0.00  0.00    +0.000 A 
ATOM     13  N   UNL     1       7.747   4.520  15.839  0.00  0.00    +0.000 N 
ATOM     14  N   UNL     1       7.850   4.482  17.181  0.00  0.00    +0.000 NA
ATOM     15  H   UNL     1       6.992   4.570  19.556  0.00  0.00    +0.000 HD
ATOM     16  H   UNL     1       8.581   4.361  15.284  0.00  0.00    +0.000 HD
BRANCH  12  17
ATOM     17  C   UNL     1       5.975   4.819  13.972  0.00  0.00    +0.000 C 
ATOM     18  C   UNL     1       6.688   4.016  12.906  0.00  0.00    +0.000 C 
ATOM     19  C   UNL     1       5.354   3.566  13.393  0.00  0.00    +0.000 C 
ENDBRANCH  12  17
ENDBRANCH   6   9
BRANCH   1  24
ATOM     20  C   UNL     1       1.364   9.576  19.873  0.00  0.00    +0.000 A 
ATOM     21  C   UNL     1       1.776   9.678  18.549  0.00  0.00    +0.000 A 
ATOM     22  C   UNL     1       2.184   8.547  17.841  0.00  0.00    +0.000 A 
ATOM     23  C   UNL     1       2.209   7.298  18.460  0.00  0.00    +0.000 A 
ATOM     24  C   UNL     1       1.825   7.158  19.797  0.00  0.00    +0.000 A 
ATOM     25  C   UNL     1       1.352   8.306  20.463  0.00  0.00    +0.000 A 
BRANCH  20  28
ATOM     26  O   UNL     1      -1.197  11.023  19.998  0.00  0.00    +0.000 OA
ATOM     27  C   UNL     1      -0.217  11.341  20.667  0.00  0.00    +0.000 C 
ATOM     28  N   UNL     1       0.997  10.687  20.680  0.00  0.00    +0.000 N 
ATOM     29  H   UNL     1       1.731  11.041  21.289  0.00  0.00    +0.000 HD
BRANCH  27  30
ATOM     30  C   UNL     1      -0.265  12.573  21.550  0.00  0.00    +0.000 C 
BRANCH  30  31
ATOM     31  C   UNL     1      -1.665  12.719  22.145  0.00  0.00    +0.000 C 
BRANCH  31  32
ATOM     32  S   UNL     1      -1.671  13.922  23.508  0.00  0.00    +0.000 S 
ATOM     33  H   UNL     1      -1.892  13.045  24.495  0.00  0.00    +0.000 HD
ENDBRANCH  31  32
ENDBRANCH  30  31
ENDBRANCH  27  30
ENDBRANCH  20  28
ENDBRANCH   1  24
TORSDOF 7
ENDMDL
MODEL 4
REMARK VINA RESULT:      -7.8      4.098      9.249
REMARK  Name = 
REMARK  7 active torsions:
REMARK  status: ('A' for Active; 'I' for Inactive)
REMARK    1  A    between atoms: C_2  and  C_3
REMARK    2  A    between atoms: C_3  and  C_4
REMARK    3  A    between atoms: C_4  and  S_5
REMARK    4  A    between atoms: N_6  and  C_7
REMARK    5  A    between atoms: C_11  and  N_12
REMARK    6  A    between atoms: C_17  and  N_18
REMARK    7  A    between atoms: C_21  and  C_22
REMARK                            x       y       z     vdW  Elec       q    Type
REMARK                         _______ _______ _______ _____ _____    ______ ____
ROOT
ATOM      1  N   UNL     1       1.502   7.559  21.313  0.00  0.00    +0.000 N 
ATOM      2  C   UNL     1       1.038   8.815  20.910  0.00  0.00    +0.000 A 
ATOM      3  N   UNL     1       1.235   9.844  21.741  0.00  0.00    +0.000 NA
ATOM      4  C   UNL     1       0.950  11.069  21.254  0.00  0.00    +0.000 A 
ATOM      5  C   UNL     1       0.504  11.301  19.973  0.00  0.00    +0.000 A 
ATOM      6  C   UNL     1       0.269  10.186  19.209  0.00  0.00    +0.000 A 
ATOM      7  N   UNL     1       0.510   8.963  19.694  0.00  0.00    +0.000 NA
ATOM      8  H   UNL     1       2.051   7.696  22.153  0.00  0.00    +0.000 HD
ENDROOT
BRANCH   6   9
ATOM      9  N   UNL     1      -0.213  10.306  17.889  0.00  0.00    +0.000 N 
ATOM     10  C   UNL     1      -1.523  10.298  17.543  0.00  0.00    +0.000 A 
ATOM     11  C   UNL     1      -2.554  10.903  18.307  0.00  0.00    +0.000 A 
ATOM     12  C   UNL     1      -3.712  10.636  17.624  0.00  0.00    +0.000 A 
ATOM     13  N   UNL     1      -3.329   9.981  16.492  0.00  0.00    +0.000 N 
ATOM     14  N   UNL     1      -2.005   9.747  16.425  0.00  0.00    +0.000 NA
ATOM     15  H   UNL     1       0.381   9.781  17.256  0.00  0.00    +0.000 HD
ATOM     16  H   UNL     1      -3.917   9.659  15.732  0.00  0.00    +0.000 HD
BRANCH  12  17
ATOM     17  C   UNL     1      -5.106  11.009  18.075  0.00  0.00    +0.000 C 
ATOM     18  C   UNL     1      -5.302  12.268  18.890  0.00  0.00    +0.000 C 
ATOM     19  C   UNL     1      -5.744  12.240  17.468  0.00  0.00    +0.000 C 
ENDBRANCH  12  17
ENDBRANCH   6   9
BRANCH   1  24
ATOM     20  C   UNL     1       3.452   5.461  18.866  0.00  0.00    +0.000 A 
ATOM     21  C   UNL     1       2.723   4.279  18.950  0.00  0.00    +0.000 A 
ATOM     22  C   UNL     1       1.594   4.196  19.765  0.00  0.00    +0.000 A 
ATOM     23  C   UNL     1       1.192   5.290  20.529  0.00  0.00    +0.000 A 
ATOM     24  C   UNL     1       1.911   6.488  20.490  0.00  0.00    +0.000 A 
ATOM     25  C   UNL     1       3.005   6.564  19.605  0.00  0.00    +0.000 A 
BRANCH  20  28
ATOM     26  O   UNL     1       6.246   5.097  19.715  0.00  0.00    +0.000 OA
ATOM     27  C   UNL     1       5.934   5.449  18.581  0.00  0.00    +0.000 C 
ATOM     28  N   UNL     1       4.647   5.606  18.111  0.00  0.00    +0.000 N 
ATOM     29  H   UNL     1       4.517   5.892  17.144  0.00  0.00    +0.000 HD
BRANCH  27  30
ATOM     30  C   UNL     1       7.009   5.795  17.568  0.00  0.00    +0.000 C 
BRANCH  30  31
ATOM     31  C   UNL     1       7.354   4.553  16.748  0.00  0.00    +0.000 C 
BRANCH  31  32
ATOM     32  S   UNL     1       6.868   4.767  15.009  0.00  0.00    +0.000 S 
ATOM     33  H   UNL     1       7.056   3.496  14.633  0.00  0.00    +0.000 HD
ENDBRANCH  31  32
ENDBRANCH  30  31
ENDBRANCH  27  30
ENDBRANCH  20  28
ENDBRANCH   1  24
TORSDOF 7
ENDMDL
MODEL 5
REMARK VINA RESULT:      -7.6      2.088      2.582
REMARK  Name = 
REMARK  7 active torsions:
REMARK  status: ('A' for Active; 'I' for Inactive)
REMARK    1  A    between atoms: C_2  and  C_3
REMARK    2  A    between atoms: C_3  and  C_4
REMARK    3  A    between atoms: C_4  and  S_5
REMARK    4  A    between atoms: N_6  and  C_7
REMARK    5  A    between atoms: C_11  and  N_12
REMARK    6  A    between atoms: C_17  and  N_18
REMARK    7  A    between atoms: C_21  and  C_22
REMARK                            x       y       z     vdW  Elec       q    Type
REMARK                         _______ _______ _______ _____ _____    ______ ____
ROOT
ATOM      1  N   UNL     1       2.055   6.470  20.856  0.00  0.00    +0.000 N 
ATOM      2  C   UNL     1       2.343   5.130  20.580  0.00  0.00    +0.000 A 
ATOM      3  N   UNL     1       1.912   4.211  21.452  0.00  0.00    +0.000 NA
ATOM      4  C   UNL     1       2.037   2.923  21.073  0.00  0.00    +0.000 A 
ATOM      5  C   UNL     1       2.548   2.526  19.859  0.00  0.00    +0.000 A 
ATOM      6  C   UNL     1       3.025   3.529  19.053  0.00  0.00    +0.000 A 
ATOM      7  N   UNL     1       2.943   4.808  19.433  0.00  0.00    +0.000 NA
ATOM      8  H   UNL     1       1.420   6.485  21.646  0.00  0.00    +0.000 HD
ENDROOT
BRANCH   6   9
ATOM      9  N   UNL     1       3.593   3.233  17.796  0.00  0.00    +0.000 N 
ATOM     10  C   UNL     1       4.581   3.951  17.208  0.00  0.00    +0.000 A 
ATOM     11  C   UNL     1       5.666   4.537  17.910  0.00  0.00    +0.000 A 
ATOM     12  C   UNL     1       6.402   5.188  16.953  0.00  0.00    +0.000 A 
ATOM     13  N   UNL     1       5.796   4.906  15.767  0.00  0.00    +0.000 N 
ATOM     14  N   UNL     1       4.676   4.170  15.894  0.00  0.00    +0.000 NA
ATOM     15  H   UNL     1       2.869   2.931  17.153  0.00  0.00    +0.000 HD
ATOM     16  H   UNL     1       6.086   5.190  14.838  0.00  0.00    +0.000 HD
BRANCH  12  17
ATOM     17  C   UNL     1       7.628   6.035  17.212  0.00  0.00    +0.000 C 
ATOM     18  C   UNL     1       7.456   7.513  17.483  0.00  0.00    +0.000 C 
ATOM     19  C   UNL     1       7.820   6.601  18.603  0.00  0.00    +0.000 C 
ENDBRANCH  12  17
ENDBRANCH   6   9
BRANCH   1  24
ATOM     20  C   UNL     1       0.992   9.717  19.270  0.00  0.00    +0.000 A 
ATOM     21  C   UNL     1       1.704   9.631  18.078  0.00  0.00    +0.000 A 
ATOM     22  C   UNL     1       2.481   8.508  17.793  0.00  0.00    +0.000 A 
ATOM     23  C   UNL     1       2.578   7.464  18.713  0.00  0.00    +0.000 A 
ATOM     24  C   UNL     1       1.895   7.524  19.931  0.00  0.00    +0.000 A 
ATOM     25  C   UNL     1       1.064   8.638  20.159  0.00  0.00    +0.000 A 
BRANCH  20  28
ATOM     26  O   UNL     1       1.709  11.892  21.119  0.00  0.00    +0.000 OA
ATOM     27  C   UNL     1       0.618  11.824  20.561  0.00  0.00    +0.000 C 
ATOM     28  N   UNL     1       0.232  10.852  19.661  0.00  0.00    +0.000 N 
ATOM     29  H   UNL     1      -0.699  10.912  19.255  0.00  0.00    +0.000 HD
BRANCH  27  30
ATOM     30  C   UNL     1      -0.461  12.843  20.871  0.00  0.00    +0.000 C 
BRANCH  30  31
ATOM     31  C   UNL     1      -0.678  12.911  22.382  0.00  0.00    +0.000 C 
BRANCH  31  32
ATOM     32  S   UNL     1      -1.459  11.390  22.997  0.00  0.00    +0.000 S 
ATOM     33  H   UNL     1      -2.321  11.231  21.985  0.00  0.00    +0.000 HD
ENDBRANCH  31  32
ENDBRANCH  30  31
ENDBRANCH  27  30
ENDBRANCH  20  28
ENDBRANCH   1  24
TORSDOF 7
ENDMDL
MODEL 6
REMARK VINA RESULT:      -7.5      3.991      8.815
REMARK  Name = 
REMARK  7 active torsions:
REMARK  status: ('A' for Active; 'I' for Inactive)
REMARK    1  A    between atoms: C_2  and  C_3
REMARK    2  A    between atoms: C_3  and  C_4
REMARK    3  A    between atoms: C_4  and  S_5
REMARK    4  A    between atoms: N_6  and  C_7
REMARK    5  A    between atoms: C_11  and  N_12
REMARK    6  A    between atoms: C_17  and  N_18
REMARK    7  A    between atoms: C_21  and  C_22
REMARK                            x       y       z     vdW  Elec       q    Type
REMARK                         _______ _______ _______ _____ _____    ______ ____
ROOT
ATOM      1  N   UNL     1       0.862   7.973  21.125  0.00  0.00    +0.000 N 
ATOM      2  C   UNL     1       0.125   9.062  21.601  0.00  0.00    +0.000 A 
ATOM      3  N   UNL     1      -0.047   9.162  22.923  0.00  0.00    +0.000 NA
ATOM      4  C   UNL     1      -0.595  10.310  23.369  0.00  0.00    +0.000 A 
ATOM      5  C   UNL     1      -0.950  11.360  22.552  0.00  0.00    +0.000 A 
ATOM      6  C   UNL     1      -0.797  11.148  21.205  0.00  0.00    +0.000 A 
ATOM      7  N   UNL     1      -0.291   9.998  20.748  0.00  0.00    +0.000 NA
ATOM      8  H   UNL     1       1.263   7.505  21.929  0.00  0.00    +0.000 HD
ENDROOT
BRANCH   6   9
ATOM      9  N   UNL     1      -1.152  12.148  20.275  0.00  0.00    +0.000 N 
ATOM     10  C   UNL     1      -1.475  11.916  18.980  0.00  0.00    +0.000 A 
ATOM     11  C   UNL     1      -2.220  10.796  18.532  0.00  0.00    +0.000 A 
ATOM     12  C   UNL     1      -2.289  10.931  17.168  0.00  0.00    +0.000 A 
ATOM     13  N   UNL     1      -1.678  12.116  16.885  0.00  0.00    +0.000 N 
ATOM     14  N   UNL     1      -1.158  12.727  17.966  0.00  0.00    +0.000 NA
ATOM     15  H   UNL     1      -0.571  12.968  20.412  0.00  0.00    +0.000 HD
ATOM     16  H   UNL     1      -1.573  12.559  15.980  0.00  0.00    +0.000 HD
BRANCH  12  17
ATOM     17  C   UNL     1      -2.922   9.942  16.217  0.00  0.00    +0.000 C 
ATOM     18  C   UNL     1      -4.079  10.391  15.352  0.00  0.00    +0.000 C 
ATOM     19  C   UNL     1      -2.743  10.170  14.731  0.00  0.00    +0.000 C 
ENDBRANCH  12  17
ENDBRANCH   6   9
BRANCH   1  24
ATOM     20  C   UNL     1       3.065   6.692  18.350  0.00  0.00    +0.000 A 
ATOM     21  C   UNL     1       3.048   7.804  17.516  0.00  0.00    +0.000 A 
ATOM     22  C   UNL     1       2.359   8.960  17.884  0.00  0.00    +0.000 A 
ATOM     23  C   UNL     1       1.653   9.009  19.085  0.00  0.00    +0.000 A 
ATOM     24  C   UNL     1       1.626   7.903  19.940  0.00  0.00    +0.000 A 
ATOM     25  C   UNL     1       2.388   6.776  19.574  0.00  0.00    +0.000 A 
BRANCH  20  28
ATOM     26  O   UNL     1       1.838   4.162  17.477  0.00  0.00    +0.000 OA
ATOM     27  C   UNL     1       3.047   4.295  17.643  0.00  0.00    +0.000 C 
ATOM     28  N   UNL     1       3.687   5.458  18.018  0.00  0.00    +0.000 N 
ATOM     29  H   UNL     1       4.700   5.445  18.110  0.00  0.00    +0.000 HD
BRANCH  27  30
ATOM     30  C   UNL     1       3.974   3.106  17.475  0.00  0.00    +0.000 C 
BRANCH  30  31
ATOM     31  C   UNL     1       3.544   1.988  18.423  0.00  0.00    +0.000 C 
BRANCH  31  32
ATOM     32  S   UNL     1       4.208   2.258  20.093  0.00  0.00    +0.000 S 
ATOM     33  H   UNL     1       5.409   2.715  19.716  0.00  0.00    +0.000 HD
ENDBRANCH  31  32
ENDBRANCH  30  31
ENDBRANCH  27  30
ENDBRANCH  20  28
ENDBRANCH   1  24
TORSDOF 7
ENDMDL
MODEL 7
REMARK VINA RESULT:      -7.5      1.833      2.353
REMARK  Name = 
REMARK  7 active torsions:
REMARK  status: ('A' for Active; 'I' for Inactive)
REMARK    1  A    between atoms: C_2  and  C_3
REMARK    2  A    between atoms: C_3  and  C_4
REMARK    3  A    between atoms: C_4  and  S_5
REMARK    4  A    between atoms: N_6  and  C_7
REMARK    5  A    between atoms: C_11  and  N_12
REMARK    6  A    between atoms: C_17  and  N_18
REMARK    7  A    between atoms: C_21  and  C_22
REMARK                            x       y       z     vdW  Elec       q    Type
REMARK                         _______ _______ _______ _____ _____    ______ ____
ROOT
ATOM      1  N   UNL     1       2.056   6.377  20.874  0.00  0.00    +0.000 N 
ATOM      2  C   UNL     1       2.359   5.045  20.575  0.00  0.00    +0.000 A 
ATOM      3  N   UNL     1       1.945   4.108  21.435  0.00  0.00    +0.000 NA
ATOM      4  C   UNL     1       2.082   2.828  21.035  0.00  0.00    +0.000 A 
ATOM      5  C   UNL     1       2.591   2.456  19.811  0.00  0.00    +0.000 A 
ATOM      6  C   UNL     1       3.049   3.477  19.018  0.00  0.00    +0.000 A 
ATOM      7  N   UNL     1       2.955   4.749  19.419  0.00  0.00    +0.000 NA
ATOM      8  H   UNL     1       1.427   6.373  21.668  0.00  0.00    +0.000 HD
ENDROOT
BRANCH   6   9
ATOM      9  N   UNL     1       3.613   3.208  17.753  0.00  0.00    +0.000 N 
ATOM     10  C   UNL     1       4.597   3.939  17.176  0.00  0.00    +0.000 A 
ATOM     11  C   UNL     1       5.683   4.514  17.884  0.00  0.00    +0.000 A 
ATOM     12  C   UNL     1       6.415   5.185  16.938  0.00  0.00    +0.000 A 
ATOM     13  N   UNL     1       5.803   4.926  15.748  0.00  0.00    +0.000 N 
ATOM     14  N   UNL     1       4.685   4.185  15.866  0.00  0.00    +0.000 NA
ATOM     15  H   UNL     1       2.886   2.917  17.107  0.00  0.00    +0.000 HD
ATOM     16  H   UNL     1       6.089   5.230  14.824  0.00  0.00    +0.000 HD
BRANCH  12  17
ATOM     17  C   UNL     1       7.639   6.029  17.209  0.00  0.00    +0.000 C 
ATOM     18  C   UNL     1       7.465   7.500  17.517  0.00  0.00    +0.000 C 
ATOM     19  C   UNL     1       7.840   6.562  18.611  0.00  0.00    +0.000 C 
ENDBRANCH  12  17
ENDBRANCH   6   9
BRANCH   1  24
ATOM     20  C   UNL     1       0.936   9.632  19.343  0.00  0.00    +0.000 A 
ATOM     21  C   UNL     1       1.649   9.577  18.149  0.00  0.00    +0.000 A 
ATOM     22  C   UNL     1       2.445   8.473  17.845  0.00  0.00    +0.000 A 
ATOM     23  C   UNL     1       2.560   7.415  18.747  0.00  0.00    +0.000 A 
ATOM     24  C   UNL     1       1.878   7.443  19.967  0.00  0.00    +0.000 A 
ATOM     25  C   UNL     1       1.028   8.539  20.214  0.00  0.00    +0.000 A 
BRANCH  20  28
ATOM     26  O   UNL     1       1.565  11.713  21.327  0.00  0.00    +0.000 OA
ATOM     27  C   UNL     1       0.500  11.673  20.716  0.00  0.00    +0.000 C 
ATOM     28  N   UNL     1       0.158  10.747  19.753  0.00  0.00    +0.000 N 
ATOM     29  H   UNL     1      -0.753  10.827  19.308  0.00  0.00    +0.000 HD
BRANCH  27  30
ATOM     30  C   UNL     1      -0.593  12.677  21.025  0.00  0.00    +0.000 C 
BRANCH  30  31
ATOM     31  C   UNL     1      -1.197  13.191  19.719  0.00  0.00    +0.000 C 
BRANCH  31  32
ATOM     32  S   UNL     1      -0.136  14.461  18.968  0.00  0.00    +0.000 S 
ATOM     33  H   UNL     1       0.961  14.202  19.690  0.00  0.00    +0.000 HD
ENDBRANCH  31  32
ENDBRANCH  30  31
ENDBRANCH  27  30
ENDBRANCH  20  28
ENDBRANCH   1  24
TORSDOF 7
ENDMDL
MODEL 8
REMARK VINA RESULT:      -7.5      4.107      9.345
REMARK  Name = 
REMARK  7 active torsions:
REMARK  status: ('A' for Active; 'I' for Inactive)
REMARK    1  A    between atoms: C_2  and  C_3
REMARK    2  A    between atoms: C_3  and  C_4
REMARK    3  A    between atoms: C_4  and  S_5
REMARK    4  A    between atoms: N_6  and  C_7
REMARK    5  A    between atoms: C_11  and  N_12
REMARK    6  A    between atoms: C_17  and  N_18
REMARK    7  A    between atoms: C_21  and  C_22
REMARK                            x       y       z     vdW  Elec       q    Type
REMARK                         _______ _______ _______ _____ _____    ______ ____
ROOT
ATOM      1  N   UNL     1       1.459   7.853  21.235  0.00  0.00    +0.000 N 
ATOM      2  C   UNL     1       0.998   9.108  20.824  0.00  0.00    +0.000 A 
ATOM      3  N   UNL     1       1.246  10.151  21.624  0.00  0.00    +0.000 NA
ATOM      4  C   UNL     1       0.960  11.369  21.123  0.00  0.00    +0.000 A 
ATOM      5  C   UNL     1       0.464  11.582  19.857  0.00  0.00    +0.000 A 
ATOM      6  C   UNL     1       0.180  10.455  19.128  0.00  0.00    +0.000 A 
ATOM      7  N   UNL     1       0.423   9.239  19.628  0.00  0.00    +0.000 NA
ATOM      8  H   UNL     1       2.045   7.998  22.049  0.00  0.00    +0.000 HD
ENDROOT
BRANCH   6   9
ATOM      9  N   UNL     1      -0.354  10.555  17.826  0.00  0.00    +0.000 N 
ATOM     10  C   UNL     1      -1.674  10.492  17.528  0.00  0.00    +0.000 A 
ATOM     11  C   UNL     1      -2.701  11.053  18.330  0.00  0.00    +0.000 A 
ATOM     12  C   UNL     1      -3.872  10.736  17.689  0.00  0.00    +0.000 A 
ATOM     13  N   UNL     1      -3.503  10.099  16.543  0.00  0.00    +0.000 N 
ATOM     14  N   UNL     1      -2.173   9.921  16.428  0.00  0.00    +0.000 NA
ATOM     15  H   UNL     1       0.238  10.056  17.171  0.00  0.00    +0.000 HD
ATOM     16  H   UNL     1      -4.104   9.752  15.804  0.00  0.00    +0.000 HD
BRANCH  12  17
ATOM     17  C   UNL     1      -5.262  11.050  18.192  0.00  0.00    +0.000 C 
ATOM     18  C   UNL     1      -5.501  12.348  18.932  0.00  0.00    +0.000 C 
ATOM     19  C   UNL     1      -6.013  12.193  17.542  0.00  0.00    +0.000 C 
ENDBRANCH  12  17
ENDBRANCH   6   9
BRANCH   1  24
ATOM     20  C   UNL     1       3.062   5.763  18.542  0.00  0.00    +0.000 A 
ATOM     21  C   UNL     1       2.562   4.514  18.897  0.00  0.00    +0.000 A 
ATOM     22  C   UNL     1       1.686   4.378  19.974  0.00  0.00    +0.000 A 
ATOM     23  C   UNL     1       1.317   5.490  20.729  0.00  0.00    +0.000 A 
ATOM     24  C   UNL     1       1.817   6.759  20.419  0.00  0.00    +0.000 A 
ATOM     25  C   UNL     1       2.644   6.874  19.284  0.00  0.00    +0.000 A 
BRANCH  20  28
ATOM     26  O   UNL     1       4.293   3.808  16.717  0.00  0.00    +0.000 OA
ATOM     27  C   UNL     1       4.570   5.004  16.699  0.00  0.00    +0.000 C 
ATOM     28  N   UNL     1       4.007   5.974  17.502  0.00  0.00    +0.000 N 
ATOM     29  H   UNL     1       4.312   6.937  17.384  0.00  0.00    +0.000 HD
BRANCH  27  30
ATOM     30  C   UNL     1       5.644   5.524  15.763  0.00  0.00    +0.000 C 
BRANCH  30  31
ATOM     31  C   UNL     1       6.910   4.685  15.926  0.00  0.00    +0.000 C 
BRANCH  31  32
ATOM     32  S   UNL     1       7.509   4.735  17.641  0.00  0.00    +0.000 S 
ATOM     33  H   UNL     1       7.620   3.412  17.811  0.00  0.00    +0.000 HD
ENDBRANCH  31  32
ENDBRANCH  30  31
ENDBRANCH  27  30
ENDBRANCH  20  28
ENDBRANCH   1  24
TORSDOF 7
ENDMDL
MODEL 9
REMARK VINA RESULT:      -7.4      4.326     10.015
REMARK  Name = 
REMARK  7 active torsions:
REMARK  status: ('A' for Active; 'I' for Inactive)
REMARK    1  A    between atoms: C_2  and  C_3
REMARK    2  A    between atoms: C_3  and  C_4
REMARK    3  A    between atoms: C_4  and  S_5
REMARK    4  A    between atoms: N_6  and  C_7
REMARK    5  A    between atoms: C_11  and  N_12
REMARK    6  A    between atoms: C_17  and  N_18
REMARK    7  A    between atoms: C_21  and  C_22
REMARK                            x       y       z     vdW  Elec       q    Type
REMARK                         _______ _______ _______ _____ _____    ______ ____
ROOT
ATOM      1  N   UNL     1       0.817   9.620  21.070  0.00  0.00    +0.000 N 
ATOM      2  C   UNL     1       0.063  10.753  20.748  0.00  0.00    +0.000 A 
ATOM      3  N   UNL     1       0.051  11.759  21.630  0.00  0.00    +0.000 NA
ATOM      4  C   UNL     1      -0.524  12.907  21.218  0.00  0.00    +0.000 A 
ATOM      5  C   UNL     1      -1.059  13.092  19.964  0.00  0.00    +0.000 A 
ATOM      6  C   UNL     1      -1.061  11.990  19.146  0.00  0.00    +0.000 A 
ATOM      7  N   UNL     1      -0.529  10.834  19.556  0.00  0.00    +0.000 NA
ATOM      8  H   UNL     1       1.351   9.839  21.903  0.00  0.00    +0.000 HD
ENDROOT
BRANCH   6   9
ATOM      9  N   UNL     1      -1.606  12.059  17.847  0.00  0.00    +0.000 N 
ATOM     10  C   UNL     1      -2.852  11.646  17.511  0.00  0.00    +0.000 A 
ATOM     11  C   UNL     1      -3.995  11.803  18.336  0.00  0.00    +0.000 A 
ATOM     12  C   UNL     1      -5.025  11.226  17.639  0.00  0.00    +0.000 A 
ATOM     13  N   UNL     1      -4.491  10.839  16.447  0.00  0.00    +0.000 N 
ATOM     14  N   UNL     1      -3.167  11.067  16.349  0.00  0.00    +0.000 NA
ATOM     15  H   UNL     1      -0.897  11.821  17.162  0.00  0.00    +0.000 HD
ATOM     16  H   UNL     1      -4.968  10.408  15.663  0.00  0.00    +0.000 HD
BRANCH  12  17
ATOM     17  C   UNL     1      -6.445  11.072  18.134  0.00  0.00    +0.000 C 
ATOM     18  C   UNL     1      -6.843  11.726  19.438  0.00  0.00    +0.000 C 
ATOM     19  C   UNL     1      -7.329  12.301  18.153  0.00  0.00    +0.000 C 
ENDBRANCH  12  17
ENDBRANCH   6   9
BRANCH   1  24
ATOM     20  C   UNL     1       2.448   6.533  19.655  0.00  0.00    +0.000 A 
ATOM     21  C   UNL     1       2.553   6.922  18.324  0.00  0.00    +0.000 A 
ATOM     22  C   UNL     1       2.132   8.188  17.917  0.00  0.00    +0.000 A 
ATOM     23  C   UNL     1       1.574   9.076  18.836  0.00  0.00    +0.000 A 
ATOM     24  C   UNL     1       1.430   8.713  20.179  0.00  0.00    +0.000 A 
ATOM     25  C   UNL     1       1.928   7.456  20.572  0.00  0.00    +0.000 A 
BRANCH  20  28
ATOM     26  O   UNL     1       0.696   4.259  20.309  0.00  0.00    +0.000 OA
ATOM     27  C   UNL     1       1.915   4.225  20.452  0.00  0.00    +0.000 C 
ATOM     28  N   UNL     1       2.793   5.241  20.136  0.00  0.00    +0.000 N 
ATOM     29  H   UNL     1       3.786   5.087  20.289  0.00  0.00    +0.000 HD
BRANCH  27  30
ATOM     30  C   UNL     1       2.576   3.004  21.062  0.00  0.00    +0.000 C 
BRANCH  30  31
ATOM     31  C   UNL     1       3.784   2.604  20.217  0.00  0.00    +0.000 C 
BRANCH  31  32
ATOM     32  S   UNL     1       3.260   1.844  18.651  0.00  0.00    +0.000 S 
ATOM     33  H   UNL     1       2.059   1.425  19.070  0.00  0.00    +0.000 HD
ENDBRANCH  31  32
ENDBRANCH  30  31
ENDBRANCH  27  30
ENDBRANCH  20  28
ENDBRANCH   1  24
TORSDOF 7
ENDMDL
