MODEL 1
REMARK VINA RESULT:      -6.6      0.000      0.000
REMARK  Name = 
REMARK  12 active torsions:
REMARK  status: ('A' for Active; 'I' for Inactive)
REMARK    1  A    between atoms: C_1  and  O_2
REMARK    2  A    between atoms: O_2  and  C_3
REMARK    3  A    between atoms: C_3  and  C_5
REMARK    4  A    between atoms: C_10  and  O_12
REMARK    5  A    between atoms: O_12  and  C_13
REMARK    6  A    between atoms: C_13  and  C_14
REMARK    7  A    between atoms: C_13  and  C_15
REMARK    8  A    between atoms: C_13  and  C_16
REMARK    9  A    between atoms: C_20  and  O_21
REMARK   10  A    between atoms: O_21  and  C_22
REMARK   11  A    between atoms: C_23  and  C_24
REMARK   12  A    between atoms: N_33  and  C_34
REMARK                            x       y       z     vdW  Elec       q    Type
REMARK                         _______ _______ _______ _____ _____    ______ ____
ROOT
ATOM      1  C   UNL     1      -1.949  12.700  19.630  0.00  0.00    +0.000 C 
ATOM      2  C   UNL     1      -0.501  12.590  20.157  0.00  0.00    +0.000 C 
ATOM      3  C   UNL     1       0.146  11.364  19.436  0.00  0.00    +0.000 C 
ATOM      4  C   UNL     1      -1.006  10.849  18.527  0.00  0.00    +0.000 C 
ATOM      5  N   UNL     1      -2.216  11.362  19.129  0.00  0.00    +0.000 N 
ATOM      6  C   UNL     1      -3.418  10.825  18.763  0.00  0.00    +0.000 C 
ATOM      7  O   UNL     1      -3.492   9.734  18.207  0.00  0.00    +0.000 OA
ATOM      8  N   UNL     1       0.460  10.339  20.445  0.00  0.00    +0.000 N 
ATOM      9  C   UNL     1       1.094   9.192  19.919  0.00  0.00    +0.000 A 
ATOM     10  C   UNL     1       1.054   7.985  20.620  0.00  0.00    +0.000 A 
ATOM     11  C   UNL     1       1.767   6.850  20.182  0.00  0.00    +0.000 A 
ATOM     12  C   UNL     1       2.585   6.934  19.033  0.00  0.00    +0.000 A 
ATOM     13  C   UNL     1       2.613   8.151  18.331  0.00  0.00    +0.000 A 
ATOM     14  C   UNL     1       1.895   9.260  18.780  0.00  0.00    +0.000 A 
ATOM     15  C   UNL     1       2.088  10.574  18.137  0.00  0.00    +0.000 C 
ATOM     16  O   UNL     1       2.901  10.704  17.228  0.00  0.00    +0.000 OA
ATOM     17  N   UNL     1       1.380  11.626  18.700  0.00  0.00    +0.000 N 
ATOM     18  C   UNL     1       1.953  12.952  18.598  0.00  0.00    +0.000 C 
ATOM     19  H   UNL     1      -0.361  10.085  20.994  0.00  0.00    +0.000 HD
ENDROOT
BRANCH  12  20
ATOM     20  C   UNL     1       3.442   5.847  18.560  0.00  0.00    +0.000 A 
ATOM     21  C   UNL     1       3.445   4.927  17.531  0.00  0.00    +0.000 A 
ATOM     22  N   UNL     1       4.529   4.089  17.634  0.00  0.00    +0.000 NA
ATOM     23  C   UNL     1       5.142   4.509  18.716  0.00  0.00    +0.000 A 
ATOM     24  O   UNL     1       4.558   5.570  19.325  0.00  0.00    +0.000 OA
ENDBRANCH  12  20
BRANCH   1  25
ATOM     25  C   UNL     1      -2.848  13.209  20.753  0.00  0.00    +0.000 C 
ATOM     26  O   UNL     1      -3.544  14.215  20.706  0.00  0.00    +0.000 OA
BRANCH  25  28
ATOM     27  C   UNL     1      -3.267  12.866  23.052  0.00  0.00    +0.000 C 
ATOM     28  O   UNL     1      -2.766  12.353  21.818  0.00  0.00    +0.000 OA
ENDBRANCH  25  28
ENDBRANCH   1  25
BRANCH  11  29
ATOM     29  O   UNL     1       1.743   5.662  20.875  0.00  0.00    +0.000 OA
ATOM     30  C   UNL     1       0.923   4.626  20.336  0.00  0.00    +0.000 C 
ENDBRANCH  11  29
BRANCH   6  31
ATOM     31  O   UNL     1      -4.492  11.586  19.104  0.00  0.00    +0.000 OA
BRANCH  31  32
ATOM     32  C   UNL     1      -5.533  11.828  18.115  0.00  0.00    +0.000 C 
ATOM     33  C   UNL     1      -6.684  10.823  18.271  0.00  0.00    +0.000 C 
ATOM     34  C   UNL     1      -6.083  13.235  18.404  0.00  0.00    +0.000 C 
ATOM     35  C   UNL     1      -4.971  11.835  16.684  0.00  0.00    +0.000 C 
ENDBRANCH  31  32
ENDBRANCH   6  31
TORSDOF 6
ENDMDL
MODEL 2
REMARK VINA RESULT:      -6.2      3.779      6.528
REMARK  Name = 
REMARK  12 active torsions:
REMARK  status: ('A' for Active; 'I' for Inactive)
REMARK    1  A    between atoms: C_1  and  O_2
REMARK    2  A    between atoms: O_2  and  C_3
REMARK    3  A    between atoms: C_3  and  C_5
REMARK    4  A    between atoms: C_10  and  O_12
REMARK    5  A    between atoms: O_12  and  C_13
REMARK    6  A    between atoms: C_13  and  C_14
REMARK    7  A    between atoms: C_13  and  C_15
REMARK    8  A    between atoms: C_13  and  C_16
REMARK    9  A    between atoms: C_20  and  O_21
REMARK   10  A    between atoms: O_21  and  C_22
REMARK   11  A    between atoms: C_23  and  C_24
REMARK   12  A    between atoms: N_33  and  C_34
REMARK                            x       y       z     vdW  Elec       q    Type
REMARK                         _______ _______ _______ _____ _____    ______ ____
ROOT
ATOM      1  C   UNL     1      -3.953  11.784  19.846  0.00  0.00    +0.000 C 
ATOM      2  C   UNL     1      -3.143  11.841  18.531  0.00  0.00    +0.000 C 
ATOM      3  C   UNL     1      -1.657  12.107  18.932  0.00  0.00    +0.000 C 
ATOM      4  C   UNL     1      -1.725  12.185  20.483  0.00  0.00    +0.000 C 
ATOM      5  N   UNL     1      -3.103  12.501  20.782  0.00  0.00    +0.000 N 
ATOM      6  C   UNL     1      -3.424  12.956  22.031  0.00  0.00    +0.000 C 
ATOM      7  O   UNL     1      -2.572  13.410  22.788  0.00  0.00    +0.000 OA
ATOM      8  N   UNL     1      -1.256  13.420  18.399  0.00  0.00    +0.000 N 
ATOM      9  C   UNL     1       0.091  13.757  18.660  0.00  0.00    +0.000 A 
ATOM     10  C   UNL     1       0.498  15.092  18.630  0.00  0.00    +0.000 A 
ATOM     11  C   UNL     1       1.852  15.458  18.775  0.00  0.00    +0.000 A 
ATOM     12  C   UNL     1       2.840  14.456  18.907  0.00  0.00    +0.000 A 
ATOM     13  C   UNL     1       2.420  13.115  18.942  0.00  0.00    +0.000 A 
ATOM     14  C   UNL     1       1.073  12.778  18.802  0.00  0.00    +0.000 A 
ATOM     15  C   UNL     1       0.678  11.363  18.653  0.00  0.00    +0.000 C 
ATOM     16  O   UNL     1       1.532  10.483  18.620  0.00  0.00    +0.000 OA
ATOM     17  N   UNL     1      -0.675  11.137  18.452  0.00  0.00    +0.000 N 
ATOM     18  C   UNL     1      -1.055   9.967  17.688  0.00  0.00    +0.000 C 
ATOM     19  H   UNL     1      -1.885  14.160  18.707  0.00  0.00    +0.000 HD
ENDROOT
BRANCH  12  20
ATOM     20  C   UNL     1       4.277  14.727  18.957  0.00  0.00    +0.000 A 
ATOM     21  C   UNL     1       5.194  15.186  19.881  0.00  0.00    +0.000 A 
ATOM     22  N   UNL     1       6.442  15.288  19.314  0.00  0.00    +0.000 NA
ATOM     23  C   UNL     1       6.249  14.905  18.074  0.00  0.00    +0.000 A 
ATOM     24  O   UNL     1       4.977  14.541  17.782  0.00  0.00    +0.000 OA
ENDBRANCH  12  20
BRANCH   1  25
ATOM     25  C   UNL     1      -5.344  12.360  19.596  0.00  0.00    +0.000 C 
ATOM     26  O   UNL     1      -5.585  13.508  19.248  0.00  0.00    +0.000 OA
BRANCH  25  28
ATOM     27  C   UNL     1      -6.734  10.710  18.637  0.00  0.00    +0.000 C 
ATOM     28  O   UNL     1      -6.280  11.385  19.809  0.00  0.00    +0.000 OA
ENDBRANCH  25  28
ENDBRANCH   1  25
BRANCH  11  29
ATOM     29  O   UNL     1       2.261  16.770  18.733  0.00  0.00    +0.000 OA
ATOM     30  C   UNL     1       1.984  17.562  19.887  0.00  0.00    +0.000 C 
ENDBRANCH  11  29
BRANCH   6  31
ATOM     31  O   UNL     1      -4.751  12.890  22.321  0.00  0.00    +0.000 OA
BRANCH  31  32
ATOM     32  C   UNL     1      -5.204  13.251  23.657  0.00  0.00    +0.000 C 
ATOM     33  C   UNL     1      -5.051  14.760  23.899  0.00  0.00    +0.000 C 
ATOM     34  C   UNL     1      -6.702  12.907  23.711  0.00  0.00    +0.000 C 
ATOM     35  C   UNL     1      -4.499  12.424  24.742  0.00  0.00    +0.000 C 
ENDBRANCH  31  32
ENDBRANCH   6  31
TORSDOF 6
ENDMDL
MODEL 3
REMARK VINA RESULT:      -6.1      4.323      7.574
REMARK  Name = 
REMARK  12 active torsions:
REMARK  status: ('A' for Active; 'I' for Inactive)
REMARK    1  A    between atoms: C_1  and  O_2
REMARK    2  A    between atoms: O_2  and  C_3
REMARK    3  A    between atoms: C_3  and  C_5
REMARK    4  A    between atoms: C_10  and  O_12
REMARK    5  A    between atoms: O_12  and  C_13
REMARK    6  A    between atoms: C_13  and  C_14
REMARK    7  A    between atoms: C_13  and  C_15
REMARK    8  A    between atoms: C_13  and  C_16
REMARK    9  A    between atoms: C_20  and  O_21
REMARK   10  A    between atoms: O_21  and  C_22
REMARK   11  A    between atoms: C_23  and  C_24
REMARK   12  A    between atoms: N_33  and  C_34
REMARK                            x       y       z     vdW  Elec       q    Type
REMARK                         _______ _______ _______ _____ _____    ______ ____
ROOT
ATOM      1  C   UNL     1      -3.886  12.687  20.577  0.00  0.00    +0.000 C 
ATOM      2  C   UNL     1      -2.745  12.306  19.607  0.00  0.00    +0.000 C 
ATOM      3  C   UNL     1      -1.491  13.126  20.048  0.00  0.00    +0.000 C 
ATOM      4  C   UNL     1      -2.016  13.937  21.265  0.00  0.00    +0.000 C 
ATOM      5  N   UNL     1      -3.452  13.971  21.101  0.00  0.00    +0.000 N 
ATOM      6  C   UNL     1      -4.181  14.876  21.821  0.00  0.00    +0.000 C 
ATOM      7  O   UNL     1      -3.657  15.855  22.342  0.00  0.00    +0.000 OA
ATOM      8  N   UNL     1      -1.136  14.058  18.964  0.00  0.00    +0.000 N 
ATOM      9  C   UNL     1       0.018  14.830  19.227  0.00  0.00    +0.000 A 
ATOM     10  C   UNL     1       0.228  16.029  18.544  0.00  0.00    +0.000 A 
ATOM     11  C   UNL     1       1.419  16.770  18.697  0.00  0.00    +0.000 A 
ATOM     12  C   UNL     1       2.453  16.274  19.523  0.00  0.00    +0.000 A 
ATOM     13  C   UNL     1       2.229  15.070  20.211  0.00  0.00    +0.000 A 
ATOM     14  C   UNL     1       1.040  14.356  20.047  0.00  0.00    +0.000 A 
ATOM     15  C   UNL     1       0.904  13.006  20.628  0.00  0.00    +0.000 C 
ATOM     16  O   UNL     1       1.842  12.494  21.229  0.00  0.00    +0.000 OA
ATOM     17  N   UNL     1      -0.289  12.354  20.352  0.00  0.00    +0.000 N 
ATOM     18  C   UNL     1      -0.266  10.906  20.299  0.00  0.00    +0.000 C 
ATOM     19  H   UNL     1      -1.923  14.651  18.704  0.00  0.00    +0.000 HD
ENDROOT
BRANCH  12  20
ATOM     20  C   UNL     1       3.762  16.913  19.665  0.00  0.00    +0.000 A 
ATOM     21  C   UNL     1       4.326  17.920  20.421  0.00  0.00    +0.000 A 
ATOM     22  N   UNL     1       5.638  18.118  20.061  0.00  0.00    +0.000 NA
ATOM     23  C   UNL     1       5.829  17.247  19.099  0.00  0.00    +0.000 A 
ATOM     24  O   UNL     1       4.753  16.475  18.809  0.00  0.00    +0.000 OA
ENDBRANCH  12  20
BRANCH   1  25
ATOM     25  C   UNL     1      -5.210  12.663  19.818  0.00  0.00    +0.000 C 
ATOM     26  O   UNL     1      -5.480  13.348  18.840  0.00  0.00    +0.000 OA
BRANCH  25  28
ATOM     27  C   UNL     1      -7.289  11.547  19.727  0.00  0.00    +0.000 C 
ATOM     28  O   UNL     1      -6.043  11.744  20.394  0.00  0.00    +0.000 OA
ENDBRANCH  25  28
ENDBRANCH   1  25
BRANCH  11  29
ATOM     29  O   UNL     1       1.638  17.945  18.018  0.00  0.00    +0.000 OA
ATOM     30  C   UNL     1       0.816  18.186  16.877  0.00  0.00    +0.000 C 
ENDBRANCH  11  29
BRANCH   6  31
ATOM     31  O   UNL     1      -5.512  14.605  21.866  0.00  0.00    +0.000 OA
BRANCH  31  32
ATOM     32  C   UNL     1      -6.136  14.321  23.151  0.00  0.00    +0.000 C 
ATOM     33  C   UNL     1      -6.333  15.610  23.962  0.00  0.00    +0.000 C 
ATOM     34  C   UNL     1      -7.523  13.736  22.837  0.00  0.00    +0.000 C 
ATOM     35  C   UNL     1      -5.355  13.262  23.943  0.00  0.00    +0.000 C 
ENDBRANCH  31  32
ENDBRANCH   6  31
TORSDOF 6
ENDMDL
MODEL 4
REMARK VINA RESULT:      -6.1      3.186      5.581
REMARK  Name = 
REMARK  12 active torsions:
REMARK  status: ('A' for Active; 'I' for Inactive)
REMARK    1  A    between atoms: C_1  and  O_2
REMARK    2  A    between atoms: O_2  and  C_3
REMARK    3  A    between atoms: C_3  and  C_5
REMARK    4  A    between atoms: C_10  and  O_12
REMARK    5  A    between atoms: O_12  and  C_13
REMARK    6  A    between atoms: C_13  and  C_14
REMARK    7  A    between atoms: C_13  and  C_15
REMARK    8  A    between atoms: C_13  and  C_16
REMARK    9  A    between atoms: C_20  and  O_21
REMARK   10  A    between atoms: O_21  and  C_22
REMARK   11  A    between atoms: C_23  and  C_24
REMARK   12  A    between atoms: N_33  and  C_34
REMARK                            x       y       z     vdW  Elec       q    Type
REMARK                         _______ _______ _______ _____ _____    ______ ____
ROOT
ATOM      1  C   UNL     1       0.096  14.648  20.551  0.00  0.00    +0.000 C 
ATOM      2  C   UNL     1      -0.870  13.447  20.439  0.00  0.00    +0.000 C 
ATOM      3  C   UNL     1      -0.030  12.167  20.750  0.00  0.00    +0.000 C 
ATOM      4  C   UNL     1       1.388  12.740  21.024  0.00  0.00    +0.000 C 
ATOM      5  N   UNL     1       1.401  14.033  20.377  0.00  0.00    +0.000 N 
ATOM      6  C   UNL     1       2.600  14.651  20.153  0.00  0.00    +0.000 C 
ATOM      7  O   UNL     1       3.658  14.032  20.179  0.00  0.00    +0.000 OA
ATOM      8  N   UNL     1       0.013  11.329  19.540  0.00  0.00    +0.000 N 
ATOM      9  C   UNL     1       0.711  10.113  19.709  0.00  0.00    +0.000 A 
ATOM     10  C   UNL     1       1.220   9.437  18.598  0.00  0.00    +0.000 A 
ATOM     11  C   UNL     1       1.825   8.168  18.716  0.00  0.00    +0.000 A 
ATOM     12  C   UNL     1       1.881   7.531  19.977  0.00  0.00    +0.000 A 
ATOM     13  C   UNL     1       1.372   8.223  21.089  0.00  0.00    +0.000 A 
ATOM     14  C   UNL     1       0.782   9.480  20.949  0.00  0.00    +0.000 A 
ATOM     15  C   UNL     1       0.089  10.101  22.094  0.00  0.00    +0.000 C 
ATOM     16  O   UNL     1      -0.001   9.504  23.161  0.00  0.00    +0.000 OA
ATOM     17  N   UNL     1      -0.522  11.320  21.834  0.00  0.00    +0.000 N 
ATOM     18  C   UNL     1      -1.693  11.664  22.614  0.00  0.00    +0.000 C 
ATOM     19  H   UNL     1       0.366  11.846  18.736  0.00  0.00    +0.000 HD
ENDROOT
BRANCH  12  20
ATOM     20  C   UNL     1       2.391   6.175  20.185  0.00  0.00    +0.000 A 
ATOM     21  C   UNL     1       3.518   5.451  19.856  0.00  0.00    +0.000 A 
ATOM     22  N   UNL     1       3.405   4.154  20.296  0.00  0.00    +0.000 NA
ATOM     23  C   UNL     1       2.222   4.122  20.862  0.00  0.00    +0.000 A 
ATOM     24  O   UNL     1       1.553   5.301  20.847  0.00  0.00    +0.000 OA
ENDBRANCH  12  20
BRANCH   1  25
ATOM     25  C   UNL     1      -0.310  15.707  19.531  0.00  0.00    +0.000 C 
ATOM     26  O   UNL     1      -0.262  15.577  18.314  0.00  0.00    +0.000 OA
BRANCH  25  28
ATOM     27  C   UNL     1      -1.723  17.599  19.490  0.00  0.00    +0.000 C 
ATOM     28  O   UNL     1      -0.752  16.822  20.190  0.00  0.00    +0.000 OA
ENDBRANCH  25  28
ENDBRANCH   1  25
BRANCH  11  29
ATOM     29  O   UNL     1       2.316   7.491  17.626  0.00  0.00    +0.000 OA
ATOM     30  C   UNL     1       3.658   7.788  17.241  0.00  0.00    +0.000 C 
ENDBRANCH  11  29
BRANCH   6  31
ATOM     31  O   UNL     1       2.494  15.977  19.871  0.00  0.00    +0.000 OA
BRANCH  31  32
ATOM     32  C   UNL     1       3.076  16.947  20.789  0.00  0.00    +0.000 C 
ATOM     33  C   UNL     1       4.562  17.175  20.477  0.00  0.00    +0.000 C 
ATOM     34  C   UNL     1       2.328  18.269  20.551  0.00  0.00    +0.000 C 
ATOM     35  C   UNL     1       2.855  16.547  22.256  0.00  0.00    +0.000 C 
ENDBRANCH  31  32
ENDBRANCH   6  31
TORSDOF 6
ENDMDL
MODEL 5
REMARK VINA RESULT:      -6.0      3.218      5.438
REMARK  Name = 
REMARK  12 active torsions:
REMARK  status: ('A' for Active; 'I' for Inactive)
REMARK    1  A    between atoms: C_1  and  O_2
REMARK    2  A    between atoms: O_2  and  C_3
REMARK    3  A    between atoms: C_3  and  C_5
REMARK    4  A    between atoms: C_10  and  O_12
REMARK    5  A    between atoms: O_12  and  C_13
REMARK    6  A    between atoms: C_13  and  C_14
REMARK    7  A    between atoms: C_13  and  C_15
REMARK    8  A    between atoms: C_13  and  C_16
REMARK    9  A    between atoms: C_20  and  O_21
REMARK   10  A    between atoms: O_21  and  C_22
REMARK   11  A    between atoms: C_23  and  C_24
REMARK   12  A    between atoms: N_33  and  C_34
REMARK                            x       y       z     vdW  Elec       q    Type
REMARK                         _______ _______ _______ _____ _____    ______ ____
ROOT
ATOM      1  C   UNL     1       0.166  14.571  20.619  0.00  0.00    +0.000 C 
ATOM      2  C   UNL     1      -0.814  13.381  20.511  0.00  0.00    +0.000 C 
ATOM      3  C   UNL     1       0.014  12.091  20.809  0.00  0.00    +0.000 C 
ATOM      4  C   UNL     1       1.442  12.648  21.073  0.00  0.00    +0.000 C 
ATOM      5  N   UNL     1       1.463  13.942  20.430  0.00  0.00    +0.000 N 
ATOM      6  C   UNL     1       2.666  14.548  20.198  0.00  0.00    +0.000 C 
ATOM      7  O   UNL     1       3.717  13.917  20.212  0.00  0.00    +0.000 OA
ATOM      8  N   UNL     1       0.037  11.258  19.596  0.00  0.00    +0.000 N 
ATOM      9  C   UNL     1       0.724  10.033  19.754  0.00  0.00    +0.000 A 
ATOM     10  C   UNL     1       1.215   9.356  18.636  0.00  0.00    +0.000 A 
ATOM     11  C   UNL     1       1.806   8.080  18.744  0.00  0.00    +0.000 A 
ATOM     12  C   UNL     1       1.867   7.437  20.002  0.00  0.00    +0.000 A 
ATOM     13  C   UNL     1       1.375   8.130  21.121  0.00  0.00    +0.000 A 
ATOM     14  C   UNL     1       0.799   9.395  20.991  0.00  0.00    +0.000 A 
ATOM     15  C   UNL     1       0.122  10.019  22.144  0.00  0.00    +0.000 C 
ATOM     16  O   UNL     1       0.035   9.419  23.210  0.00  0.00    +0.000 OA
ATOM     17  N   UNL     1      -0.477  11.245  21.895  0.00  0.00    +0.000 N 
ATOM     18  C   UNL     1      -1.637  11.599  22.686  0.00  0.00    +0.000 C 
ATOM     19  H   UNL     1       0.389  11.773  18.790  0.00  0.00    +0.000 HD
ENDROOT
BRANCH  12  20
ATOM     20  C   UNL     1       2.364   6.075  20.200  0.00  0.00    +0.000 A 
ATOM     21  C   UNL     1       3.483   5.341  19.864  0.00  0.00    +0.000 A 
ATOM     22  N   UNL     1       3.358   4.043  20.296  0.00  0.00    +0.000 NA
ATOM     23  C   UNL     1       2.175   4.020  20.864  0.00  0.00    +0.000 A 
ATOM     24  O   UNL     1       1.518   5.205  20.858  0.00  0.00    +0.000 OA
ENDBRANCH  12  20
BRANCH   1  25
ATOM     25  C   UNL     1      -0.237  15.639  19.606  0.00  0.00    +0.000 C 
ATOM     26  O   UNL     1      -0.329  15.472  18.397  0.00  0.00    +0.000 OA
BRANCH  25  28
ATOM     27  C   UNL     1      -1.432  17.676  19.624  0.00  0.00    +0.000 C 
ATOM     28  O   UNL     1      -0.496  16.810  20.265  0.00  0.00    +0.000 OA
ENDBRANCH  25  28
ENDBRANCH   1  25
BRANCH  11  29
ATOM     29  O   UNL     1       2.281   7.401  17.646  0.00  0.00    +0.000 OA
ATOM     30  C   UNL     1       3.630   7.668  17.265  0.00  0.00    +0.000 C 
ENDBRANCH  11  29
BRANCH   6  31
ATOM     31  O   UNL     1       2.573  15.877  19.922  0.00  0.00    +0.000 OA
BRANCH  31  32
ATOM     32  C   UNL     1       3.178  16.392  18.702  0.00  0.00    +0.000 C 
ATOM     33  C   UNL     1       4.634  16.816  18.948  0.00  0.00    +0.000 C 
ATOM     34  C   UNL     1       3.182  15.228  17.698  0.00  0.00    +0.000 C 
ATOM     35  C   UNL     1       2.348  17.530  18.090  0.00  0.00    +0.000 C 
ENDBRANCH  31  32
ENDBRANCH   6  31
TORSDOF 6
ENDMDL
MODEL 6
REMARK VINA RESULT:      -6.0      4.191      7.549
REMARK  Name = 
REMARK  12 active torsions:
REMARK  status: ('A' for Active; 'I' for Inactive)
REMARK    1  A    between atoms: C_1  and  O_2
REMARK    2  A    between atoms: O_2  and  C_3
REMARK    3  A    between atoms: C_3  and  C_5
REMARK    4  A    between atoms: C_10  and  O_12
REMARK    5  A    between atoms: O_12  and  C_13
REMARK    6  A    between atoms: C_13  and  C_14
REMARK    7  A    between atoms: C_13  and  C_15
REMARK    8  A    between atoms: C_13  and  C_16
REMARK    9  A    between atoms: C_20  and  O_21
REMARK   10  A    between atoms: O_21  and  C_22
REMARK   11  A    between atoms: C_23  and  C_24
REMARK   12  A    between atoms: N_33  and  C_34
REMARK                            x       y       z     vdW  Elec       q    Type
REMARK                         _______ _______ _______ _____ _____    ______ ____
ROOT
ATOM      1  C   UNL     1      -4.050  12.307  20.556  0.00  0.00    +0.000 C 
ATOM      2  C   UNL     1      -2.888  11.948  19.602  0.00  0.00    +0.000 C 
ATOM      3  C   UNL     1      -1.670  12.827  20.030  0.00  0.00    +0.000 C 
ATOM      4  C   UNL     1      -2.234  13.644  21.225  0.00  0.00    +0.000 C 
ATOM      5  N   UNL     1      -3.669  13.619  21.052  0.00  0.00    +0.000 N 
ATOM      6  C   UNL     1      -4.437  14.511  21.747  0.00  0.00    +0.000 C 
ATOM      7  O   UNL     1      -3.956  15.522  22.247  0.00  0.00    +0.000 OA
ATOM      8  N   UNL     1      -1.345  13.746  18.927  0.00  0.00    +0.000 N 
ATOM      9  C   UNL     1      -0.224  14.569  19.178  0.00  0.00    +0.000 A 
ATOM     10  C   UNL     1      -0.056  15.759  18.468  0.00  0.00    +0.000 A 
ATOM     11  C   UNL     1       1.103  16.550  18.610  0.00  0.00    +0.000 A 
ATOM     12  C   UNL     1       2.151  16.114  19.453  0.00  0.00    +0.000 A 
ATOM     13  C   UNL     1       1.970  14.918  20.168  0.00  0.00    +0.000 A 
ATOM     14  C   UNL     1       0.811  14.155  20.014  0.00  0.00    +0.000 A 
ATOM     15  C   UNL     1       0.724  12.815  20.626  0.00  0.00    +0.000 C 
ATOM     16  O   UNL     1       1.678  12.354  21.244  0.00  0.00    +0.000 OA
ATOM     17  N   UNL     1      -0.440  12.109  20.359  0.00  0.00    +0.000 N 
ATOM     18  C   UNL     1      -0.360  10.663  20.340  0.00  0.00    +0.000 C 
ATOM     19  H   UNL     1      -2.152  14.302  18.648  0.00  0.00    +0.000 HD
ENDROOT
BRANCH  12  20
ATOM     20  C   UNL     1       3.433  16.807  19.587  0.00  0.00    +0.000 A 
ATOM     21  C   UNL     1       4.617  16.902  18.884  0.00  0.00    +0.000 A 
ATOM     22  N   UNL     1       5.516  17.695  19.556  0.00  0.00    +0.000 NA
ATOM     23  C   UNL     1       4.868  18.045  20.641  0.00  0.00    +0.000 A 
ATOM     24  O   UNL     1       3.605  17.562  20.730  0.00  0.00    +0.000 OA
ENDBRANCH  12  20
BRANCH   1  25
ATOM     25  C   UNL     1      -5.366  12.213  19.791  0.00  0.00    +0.000 C 
ATOM     26  O   UNL     1      -6.346  11.566  20.139  0.00  0.00    +0.000 OA
BRANCH  25  28
ATOM     27  C   UNL     1      -5.864  12.403  17.490  0.00  0.00    +0.000 C 
ATOM     28  O   UNL     1      -5.286  12.979  18.660  0.00  0.00    +0.000 OA
ENDBRANCH  25  28
ENDBRANCH   1  25
BRANCH  11  29
ATOM     29  O   UNL     1       1.281  17.716  17.905  0.00  0.00    +0.000 OA
ATOM     30  C   UNL     1       0.109  18.310  17.348  0.00  0.00    +0.000 C 
ENDBRANCH  11  29
BRANCH   6  31
ATOM     31  O   UNL     1      -5.758  14.189  21.791  0.00  0.00    +0.000 OA
BRANCH  31  32
ATOM     32  C   UNL     1      -6.390  13.960  23.082  0.00  0.00    +0.000 C 
ATOM     33  C   UNL     1      -6.621  15.286  23.823  0.00  0.00    +0.000 C 
ATOM     34  C   UNL     1      -7.762  13.332  22.785  0.00  0.00    +0.000 C 
ATOM     35  C   UNL     1      -5.597  12.959  23.937  0.00  0.00    +0.000 C 
ENDBRANCH  31  32
ENDBRANCH   6  31
TORSDOF 6
ENDMDL
MODEL 7
REMARK VINA RESULT:      -5.9      0.975      1.275
REMARK  Name = 
REMARK  12 active torsions:
REMARK  status: ('A' for Active; 'I' for Inactive)
REMARK    1  A    between atoms: C_1  and  O_2
REMARK    2  A    between atoms: O_2  and  C_3
REMARK    3  A    between atoms: C_3  and  C_5
REMARK    4  A    between atoms: C_10  and  O_12
REMARK    5  A    between atoms: O_12  and  C_13
REMARK    6  A    between atoms: C_13  and  C_14
REMARK    7  A    between atoms: C_13  and  C_15
REMARK    8  A    between atoms: C_13  and  C_16
REMARK    9  A    between atoms: C_20  and  O_21
REMARK   10  A    between atoms: O_21  and  C_22
REMARK   11  A    between atoms: C_23  and  C_24
REMARK   12  A    between atoms: N_33  and  C_34
REMARK                            x       y       z     vdW  Elec       q    Type
REMARK                         _______ _______ _______ _____ _____    ______ ____
ROOT
ATOM      1  C   UNL     1      -1.967  12.640  19.893  0.00  0.00    +0.000 C 
ATOM      2  C   UNL     1      -0.509  12.529  20.393  0.00  0.00    +0.000 C 
ATOM      3  C   UNL     1       0.213  11.520  19.445  0.00  0.00    +0.000 C 
ATOM      4  C   UNL     1      -0.909  11.117  18.448  0.00  0.00    +0.000 C 
ATOM      5  N   UNL     1      -2.145  11.414  19.135  0.00  0.00    +0.000 N 
ATOM      6  C   UNL     1      -3.311  10.876  18.665  0.00  0.00    +0.000 C 
ATOM      7  O   UNL     1      -3.315   9.916  17.903  0.00  0.00    +0.000 OA
ATOM      8  N   UNL     1       0.609  10.340  20.230  0.00  0.00    +0.000 N 
ATOM      9  C   UNL     1       1.316   9.368  19.488  0.00  0.00    +0.000 A 
ATOM     10  C   UNL     1       1.367   8.046  19.935  0.00  0.00    +0.000 A 
ATOM     11  C   UNL     1       2.152   7.073  19.282  0.00  0.00    +0.000 A 
ATOM     12  C   UNL     1       2.950   7.441  18.176  0.00  0.00    +0.000 A 
ATOM     13  C   UNL     1       2.887   8.772  17.730  0.00  0.00    +0.000 A 
ATOM     14  C   UNL     1       2.098   9.717  18.389  0.00  0.00    +0.000 A 
ATOM     15  C   UNL     1       2.192  11.143  18.021  0.00  0.00    +0.000 C 
ATOM     16  O   UNL     1       2.984  11.508  17.159  0.00  0.00    +0.000 OA
ATOM     17  N   UNL     1       1.419  12.009  18.780  0.00  0.00    +0.000 N 
ATOM     18  C   UNL     1       1.897  13.366  18.946  0.00  0.00    +0.000 C 
ATOM     19  H   UNL     1      -0.187   9.925  20.714  0.00  0.00    +0.000 HD
ENDROOT
BRANCH  12  20
ATOM     20  C   UNL     1       3.876   6.533  17.498  0.00  0.00    +0.000 A 
ATOM     21  C   UNL     1       4.360   5.253  17.677  0.00  0.00    +0.000 A 
ATOM     22  N   UNL     1       5.286   4.946  16.709  0.00  0.00    +0.000 NA
ATOM     23  C   UNL     1       5.349   6.038  15.985  0.00  0.00    +0.000 A 
ATOM     24  O   UNL     1       4.524   7.036  16.387  0.00  0.00    +0.000 OA
ENDBRANCH  12  20
BRANCH   1  25
ATOM     25  C   UNL     1      -2.887  12.851  21.092  0.00  0.00    +0.000 C 
ATOM     26  O   UNL     1      -3.779  13.687  21.165  0.00  0.00    +0.000 OA
BRANCH  25  28
ATOM     27  C   UNL     1      -2.994  12.296  23.385  0.00  0.00    +0.000 C 
ATOM     28  O   UNL     1      -2.569  11.947  22.068  0.00  0.00    +0.000 OA
ENDBRANCH  25  28
ENDBRANCH   1  25
BRANCH  11  29
ATOM     29  O   UNL     1       2.218   5.773  19.725  0.00  0.00    +0.000 OA
ATOM     30  C   UNL     1       1.440   5.451  20.877  0.00  0.00    +0.000 C 
ENDBRANCH  11  29
BRANCH   6  31
ATOM     31  O   UNL     1      -4.432  11.477  19.147  0.00  0.00    +0.000 OA
BRANCH  31  32
ATOM     32  C   UNL     1      -5.472  11.890  18.216  0.00  0.00    +0.000 C 
ATOM     33  C   UNL     1      -4.952  11.877  16.770  0.00  0.00    +0.000 C 
ATOM     34  C   UNL     1      -6.594  10.845  18.331  0.00  0.00    +0.000 C 
ATOM     35  C   UNL     1      -6.069  13.255  18.595  0.00  0.00    +0.000 C 
ENDBRANCH  31  32
ENDBRANCH   6  31
TORSDOF 6
ENDMDL
MODEL 8
REMARK VINA RESULT:      -5.9      3.735      6.441
REMARK  Name = 
REMARK  12 active torsions:
REMARK  status: ('A' for Active; 'I' for Inactive)
REMARK    1  A    between atoms: C_1  and  O_2
REMARK    2  A    between atoms: O_2  and  C_3
REMARK    3  A    between atoms: C_3  and  C_5
REMARK    4  A    between atoms: C_10  and  O_12
REMARK    5  A    between atoms: O_12  and  C_13
REMARK    6  A    between atoms: C_13  and  C_14
REMARK    7  A    between atoms: C_13  and  C_15
REMARK    8  A    between atoms: C_13  and  C_16
REMARK    9  A    between atoms: C_20  and  O_21
REMARK   10  A    between atoms: O_21  and  C_22
REMARK   11  A    between atoms: C_23  and  C_24
REMARK   12  A    between atoms: N_33  and  C_34
REMARK                            x       y       z     vdW  Elec       q    Type
REMARK                         _______ _______ _______ _____ _____    ______ ____
ROOT
ATOM      1  C   UNL     1      -4.006  11.829  19.687  0.00  0.00    +0.000 C 
ATOM      2  C   UNL     1      -3.125  11.805  18.417  0.00  0.00    +0.000 C 
ATOM      3  C   UNL     1      -1.664  12.106  18.880  0.00  0.00    +0.000 C 
ATOM      4  C   UNL     1      -1.817  12.285  20.416  0.00  0.00    +0.000 C 
ATOM      5  N   UNL     1      -3.210  12.611  20.618  0.00  0.00    +0.000 N 
ATOM      6  C   UNL     1      -3.600  13.145  21.815  0.00  0.00    +0.000 C 
ATOM      7  O   UNL     1      -2.792  13.652  22.586  0.00  0.00    +0.000 OA
ATOM      8  N   UNL     1      -1.237  13.383  18.284  0.00  0.00    +0.000 N 
ATOM      9  C   UNL     1       0.092  13.744  18.595  0.00  0.00    +0.000 A 
ATOM     10  C   UNL     1       0.496  15.078  18.499  0.00  0.00    +0.000 A 
ATOM     11  C   UNL     1       1.840  15.460  18.693  0.00  0.00    +0.000 A 
ATOM     12  C   UNL     1       2.822  14.475  18.945  0.00  0.00    +0.000 A 
ATOM     13  C   UNL     1       2.404  13.137  19.045  0.00  0.00    +0.000 A 
ATOM     14  C   UNL     1       1.067  12.783  18.854  0.00  0.00    +0.000 A 
ATOM     15  C   UNL     1       0.685  11.359  18.778  0.00  0.00    +0.000 C 
ATOM     16  O   UNL     1       1.541  10.484  18.849  0.00  0.00    +0.000 OA
ATOM     17  N   UNL     1      -0.655  11.112  18.518  0.00  0.00    +0.000 N 
ATOM     18  C   UNL     1      -0.989   9.892  17.814  0.00  0.00    +0.000 C 
ATOM     19  H   UNL     1      -1.884  14.138  18.508  0.00  0.00    +0.000 HD
ENDROOT
BRANCH  12  20
ATOM     20  C   UNL     1       4.253  14.758  19.055  0.00  0.00    +0.000 A 
ATOM     21  C   UNL     1       5.339  14.857  18.210  0.00  0.00    +0.000 A 
ATOM     22  N   UNL     1       6.488  15.103  18.924  0.00  0.00    +0.000 NA
ATOM     23  C   UNL     1       6.076  15.132  20.169  0.00  0.00    +0.000 A 
ATOM     24  O   UNL     1       4.743  14.945  20.333  0.00  0.00    +0.000 OA
ENDBRANCH  12  20
BRANCH   1  25
ATOM     25  C   UNL     1      -5.382  12.379  19.324  0.00  0.00    +0.000 C 
ATOM     26  O   UNL     1      -5.599  13.465  18.802  0.00  0.00    +0.000 OA
BRANCH  25  28
ATOM     27  C   UNL     1      -6.832  10.670  18.579  0.00  0.00    +0.000 C 
ATOM     28  O   UNL     1      -6.337  11.459  19.661  0.00  0.00    +0.000 OA
ENDBRANCH  25  28
ENDBRANCH   1  25
BRANCH  11  29
ATOM     29  O   UNL     1       2.248  16.769  18.588  0.00  0.00    +0.000 OA
ATOM     30  C   UNL     1       1.843  17.650  19.635  0.00  0.00    +0.000 C 
ENDBRANCH  11  29
BRANCH   6  31
ATOM     31  O   UNL     1      -4.940  13.089  22.036  0.00  0.00    +0.000 OA
BRANCH  31  32
ATOM     32  C   UNL     1      -5.655  14.313  22.370  0.00  0.00    +0.000 C 
ATOM     33  C   UNL     1      -5.179  15.483  21.497  0.00  0.00    +0.000 C 
ATOM     34  C   UNL     1      -7.136  14.048  22.049  0.00  0.00    +0.000 C 
ATOM     35  C   UNL     1      -5.557  14.641  23.868  0.00  0.00    +0.000 C 
ENDBRANCH  31  32
ENDBRANCH   6  31
TORSDOF 6
ENDMDL
MODEL 9
REMARK VINA RESULT:      -5.9      4.464      7.677
REMARK  Name = 
REMARK  12 active torsions:
REMARK  status: ('A' for Active; 'I' for Inactive)
REMARK    1  A    between atoms: C_1  and  O_2
REMARK    2  A    between atoms: O_2  and  C_3
REMARK    3  A    between atoms: C_3  and  C_5
REMARK    4  A    between atoms: C_10  and  O_12
REMARK    5  A    between atoms: O_12  and  C_13
REMARK    6  A    between atoms: C_13  and  C_14
REMARK    7  A    between atoms: C_13  and  C_15
REMARK    8  A    between atoms: C_13  and  C_16
REMARK    9  A    between atoms: C_20  and  O_21
REMARK   10  A    between atoms: O_21  and  C_22
REMARK   11  A    between atoms: C_23  and  C_24
REMARK   12  A    between atoms: N_33  and  C_34
REMARK                            x       y       z     vdW  Elec       q    Type
REMARK                         _______ _______ _______ _____ _____    ______ ____
ROOT
ATOM      1  C   UNL     1      -3.682  12.900  21.403  0.00  0.00    +0.000 C 
ATOM      2  C   UNL     1      -2.719  12.548  20.247  0.00  0.00    +0.000 C 
ATOM      3  C   UNL     1      -1.374  13.284  20.545  0.00  0.00    +0.000 C 
ATOM      4  C   UNL     1      -1.670  14.020  21.881  0.00  0.00    +0.000 C 
ATOM      5  N   UNL     1      -3.110  14.123  21.941  0.00  0.00    +0.000 N 
ATOM      6  C   UNL     1      -3.677  14.999  22.825  0.00  0.00    +0.000 C 
ATOM      7  O   UNL     1      -3.033  15.915  23.325  0.00  0.00    +0.000 OA
ATOM      8  N   UNL     1      -1.139  14.280  19.486  0.00  0.00    +0.000 N 
ATOM      9  C   UNL     1       0.078  14.984  19.621  0.00  0.00    +0.000 A 
ATOM     10  C   UNL     1       0.243  16.223  18.998  0.00  0.00    +0.000 A 
ATOM     11  C   UNL     1       1.478  16.903  19.018  0.00  0.00    +0.000 A 
ATOM     12  C   UNL     1       2.599  16.307  19.639  0.00  0.00    +0.000 A 
ATOM     13  C   UNL     1       2.420  15.064  20.269  0.00  0.00    +0.000 A 
ATOM     14  C   UNL     1       1.187  14.411  20.241  0.00  0.00    +0.000 A 
ATOM     15  C   UNL     1       1.072  13.028  20.742  0.00  0.00    +0.000 C 
ATOM     16  O   UNL     1       2.063  12.436  21.156  0.00  0.00    +0.000 OA
ATOM     17  N   UNL     1      -0.179  12.445  20.608  0.00  0.00    +0.000 N 
ATOM     18  C   UNL     1      -0.237  11.005  20.453  0.00  0.00    +0.000 C 
ATOM     19  H   UNL     1      -1.926  14.921  19.391  0.00  0.00    +0.000 HD
ENDROOT
BRANCH  12  20
ATOM     20  C   UNL     1       3.944  16.882  19.622  0.00  0.00    +0.000 A 
ATOM     21  C   UNL     1       4.633  17.879  20.282  0.00  0.00    +0.000 A 
ATOM     22  N   UNL     1       5.907  18.001  19.780  0.00  0.00    +0.000 NA
ATOM     23  C   UNL     1       5.952  17.096  18.832  0.00  0.00    +0.000 A 
ATOM     24  O   UNL     1       4.816  16.372  18.681  0.00  0.00    +0.000 OA
ENDBRANCH  12  20
BRANCH   1  25
ATOM     25  C   UNL     1      -5.104  12.984  20.856  0.00  0.00    +0.000 C 
ATOM     26  O   UNL     1      -5.484  13.755  19.984  0.00  0.00    +0.000 OA
BRANCH  25  28
ATOM     27  C   UNL     1      -7.282  12.149  21.218  0.00  0.00    +0.000 C 
ATOM     28  O   UNL     1      -5.884  12.052  21.483  0.00  0.00    +0.000 OA
ENDBRANCH  25  28
ENDBRANCH   1  25
BRANCH  11  29
ATOM     29  O   UNL     1       1.652  18.117  18.395  0.00  0.00    +0.000 OA
ATOM     30  C   UNL     1       0.873  18.348  17.221  0.00  0.00    +0.000 C 
ENDBRANCH  11  29
BRANCH   6  31
ATOM     31  O   UNL     1      -4.999  14.777  23.055  0.00  0.00    +0.000 OA
BRANCH  31  32
ATOM     32  C   UNL     1      -5.919  15.905  23.050  0.00  0.00    +0.000 C 
ATOM     33  C   UNL     1      -5.826  16.684  21.730  0.00  0.00    +0.000 C 
ATOM     34  C   UNL     1      -7.332  15.308  23.155  0.00  0.00    +0.000 C 
ATOM     35  C   UNL     1      -5.710  16.817  24.268  0.00  0.00    +0.000 C 
ENDBRANCH  31  32
ENDBRANCH   6  31
TORSDOF 6
ENDMDL
