MODEL 1
REMARK VINA RESULT:      -8.1      0.000      0.000
REMARK  Name = 
REMARK  8 active torsions:
REMARK  status: ('A' for Active; 'I' for Inactive)
REMARK    1  A    between atoms: C_1  and  C_2
REMARK    2  A    between atoms: C_3  and  C_4
REMARK    3  A    between atoms: C_13  and  C_14
REMARK    4  A    between atoms: C_14  and  C_15
REMARK    5  A    between atoms: N_17  and  C_18
REMARK    6  A    between atoms: C_18  and  C_19
REMARK    7  A    between atoms: N_26  and  C_27
REMARK    8  A    between atoms: C_27  and  C_28
REMARK                            x       y       z     vdW  Elec       q    Type
REMARK                         _______ _______ _______ _____ _____    ______ ____
ROOT
ATOM      1  C   UNL     1       1.125   8.636  22.034  0.00  0.00    +0.000 C 
ATOM      2  C   UNL     1       0.851   9.453  20.787  0.00  0.00    +0.000 C 
ATOM      3  C   UNL     1       0.096  10.590  20.756  0.00  0.00    +0.000 C 
ATOM      4  C   UNL     1      -0.086  11.276  19.434  0.00  0.00    +0.000 C 
ATOM      5  C   UNL     1      -0.160  10.325  18.257  0.00  0.00    +0.000 C 
ATOM      6  C   UNL     1       1.051   9.426  18.310  0.00  0.00    +0.000 C 
ATOM      7  O   UNL     1       1.600   9.082  17.263  0.00  0.00    +0.000 OA
ATOM      8  N   UNL     1       1.437   8.975  19.582  0.00  0.00    +0.000 N 
ENDROOT
BRANCH   3   9
ATOM      9  C   UNL     1      -0.648  11.145  21.962  0.00  0.00    +0.000 C 
ATOM     10  O   UNL     1      -0.227  10.860  23.086  0.00  0.00    +0.000 OA
ATOM     11  N   UNL     1      -1.814  11.909  21.830  0.00  0.00    +0.000 N 
ATOM     12  C   UNL     1      -2.591  12.134  20.605  0.00  0.00    +0.000 C 
ATOM     13  C   UNL     1      -3.462  13.392  20.650  0.00  0.00    +0.000 C 
ATOM     14  O   UNL     1      -4.290  13.402  21.813  0.00  0.00    +0.000 OA
ATOM     15  C   UNL     1      -3.469  13.394  22.987  0.00  0.00    +0.000 C 
ATOM     16  C   UNL     1      -2.596  12.135  23.056  0.00  0.00    +0.000 C 
ENDBRANCH   3   9
BRANCH   5  17
ATOM     17  C   UNL     1      -1.463   9.521  18.207  0.00  0.00    +0.000 C 
BRANCH  17  18
ATOM     18  C   UNL     1      -2.402  10.054  17.135  0.00  0.00    +0.000 C 
ATOM     19  O   UNL     1      -2.282   9.767  15.948  0.00  0.00    +0.000 OA
ATOM     20  N   UNL     1      -3.389  10.876  17.617  0.00  0.00    +0.000 N 
ATOM     21  H   UNL     1      -3.444  11.079  18.605  0.00  0.00    +0.000 HD
BRANCH  20  22
ATOM     22  C   UNL     1      -4.352  11.520  16.751  0.00  0.00    +0.000 C 
BRANCH  22  23
ATOM     23  C   UNL     1      -5.584  11.823  17.550  0.00  0.00    +0.000 A 
ATOM     24  C   UNL     1      -6.066  11.152  18.654  0.00  0.00    +0.000 A 
ATOM     25  C   UNL     1      -7.249  11.751  19.183  0.00  0.00    +0.000 A 
ATOM     26  C   UNL     1      -7.631  12.857  18.457  0.00  0.00    +0.000 A 
ATOM     27  S   UNL     1      -6.576  13.160  17.147  0.00  0.00    +0.000 S 
ENDBRANCH  22  23
ENDBRANCH  20  22
ENDBRANCH  17  18
ENDBRANCH   5  17
BRANCH   8  28
ATOM     28  C   UNL     1       2.562   8.017  19.596  0.00  0.00    +0.000 C 
BRANCH  28  29
ATOM     29  C   UNL     1       2.121   6.573  19.427  0.00  0.00    +0.000 A 
ATOM     30  C   UNL     1       2.218   5.942  18.175  0.00  0.00    +0.000 A 
ATOM     31  C   UNL     1       1.764   4.633  18.000  0.00  0.00    +0.000 A 
ATOM     32  C   UNL     1       1.237   3.940  19.082  0.00  0.00    +0.000 A 
ATOM     33  F   UNL     1       0.787   2.691  18.909  0.00  0.00    +0.000 F 
ATOM     34  C   UNL     1       1.172   4.527  20.340  0.00  0.00    +0.000 A 
ATOM     35  C   UNL     1       1.617   5.839  20.514  0.00  0.00    +0.000 A 
ENDBRANCH  28  29
ENDBRANCH   8  28
TORSDOF 7
ENDMDL
MODEL 2
REMARK VINA RESULT:      -8.0      0.834      1.185
REMARK  Name = 
REMARK  8 active torsions:
REMARK  status: ('A' for Active; 'I' for Inactive)
REMARK    1  A    between atoms: C_1  and  C_2
REMARK    2  A    between atoms: C_3  and  C_4
REMARK    3  A    between atoms: C_13  and  C_14
REMARK    4  A    between atoms: C_14  and  C_15
REMARK    5  A    between atoms: N_17  and  C_18
REMARK    6  A    between atoms: C_18  and  C_19
REMARK    7  A    between atoms: N_26  and  C_27
REMARK    8  A    between atoms: C_27  and  C_28
REMARK                            x       y       z     vdW  Elec       q    Type
REMARK                         _______ _______ _______ _____ _____    ______ ____
ROOT
ATOM      1  C   UNL     1       1.244   7.898  21.844  0.00  0.00    +0.000 C 
ATOM      2  C   UNL     1       1.166   8.930  20.738  0.00  0.00    +0.000 C 
ATOM      3  C   UNL     1       0.579  10.157  20.862  0.00  0.00    +0.000 C 
ATOM      4  C   UNL     1       0.580  11.060  19.665  0.00  0.00    +0.000 C 
ATOM      5  C   UNL     1       0.450  10.327  18.345  0.00  0.00    +0.000 C 
ATOM      6  C   UNL     1       1.519   9.261  18.300  0.00  0.00    +0.000 C 
ATOM      7  O   UNL     1       2.081   9.009  17.235  0.00  0.00    +0.000 OA
ATOM      8  N   UNL     1       1.756   8.566  19.496  0.00  0.00    +0.000 N 
ENDROOT
BRANCH   3   9
ATOM      9  C   UNL     1      -0.157  10.621  22.111  0.00  0.00    +0.000 C 
ATOM     10  O   UNL     1       0.211  10.173  23.201  0.00  0.00    +0.000 OA
ATOM     11  N   UNL     1      -1.259  11.480  22.049  0.00  0.00    +0.000 N 
ATOM     12  C   UNL     1      -1.983  11.907  20.845  0.00  0.00    +0.000 C 
ATOM     13  C   UNL     1      -2.761  13.213  21.023  0.00  0.00    +0.000 C 
ATOM     14  O   UNL     1      -3.618  13.148  22.163  0.00  0.00    +0.000 OA
ATOM     15  C   UNL     1      -2.835  12.939  23.343  0.00  0.00    +0.000 C 
ATOM     16  C   UNL     1      -2.057  11.619  23.278  0.00  0.00    +0.000 C 
ENDBRANCH   3   9
BRANCH   5  17
ATOM     17  C   UNL     1      -0.946   9.741  18.111  0.00  0.00    +0.000 C 
BRANCH  17  18
ATOM     18  C   UNL     1      -1.871  10.758  17.461  0.00  0.00    +0.000 C 
ATOM     19  O   UNL     1      -1.610  11.956  17.416  0.00  0.00    +0.000 OA
ATOM     20  N   UNL     1      -3.013  10.214  16.931  0.00  0.00    +0.000 N 
ATOM     21  H   UNL     1      -3.179   9.220  16.993  0.00  0.00    +0.000 HD
BRANCH  20  22
ATOM     22  C   UNL     1      -4.042  11.022  16.311  0.00  0.00    +0.000 C 
BRANCH  22  23
ATOM     23  C   UNL     1      -5.150  11.223  17.299  0.00  0.00    +0.000 A 
ATOM     24  C   UNL     1      -5.487  10.426  18.373  0.00  0.00    +0.000 A 
ATOM     25  C   UNL     1      -6.580  10.954  19.123  0.00  0.00    +0.000 A 
ATOM     26  C   UNL     1      -7.044  12.135  18.590  0.00  0.00    +0.000 A 
ATOM     27  S   UNL     1      -6.172  12.595  17.193  0.00  0.00    +0.000 S 
ENDBRANCH  22  23
ENDBRANCH  20  22
ENDBRANCH  17  18
ENDBRANCH   5  17
BRANCH   8  28
ATOM     28  C   UNL     1       2.735   7.463  19.399  0.00  0.00    +0.000 C 
BRANCH  28  29
ATOM     29  C   UNL     1       2.086   6.104  19.189  0.00  0.00    +0.000 A 
ATOM     30  C   UNL     1       1.595   5.374  20.284  0.00  0.00    +0.000 A 
ATOM     31  C   UNL     1       1.047   4.102  20.104  0.00  0.00    +0.000 A 
ATOM     32  C   UNL     1       0.962   3.568  18.825  0.00  0.00    +0.000 A 
ATOM     33  F   UNL     1       0.451   2.341  18.655  0.00  0.00    +0.000 F 
ATOM     34  C   UNL     1       1.399   4.289  17.721  0.00  0.00    +0.000 A 
ATOM     35  C   UNL     1       1.956   5.558  17.901  0.00  0.00    +0.000 A 
ENDBRANCH  28  29
ENDBRANCH   8  28
TORSDOF 7
ENDMDL
MODEL 3
REMARK VINA RESULT:      -8.0      4.134      6.228
REMARK  Name = 
REMARK  8 active torsions:
REMARK  status: ('A' for Active; 'I' for Inactive)
REMARK    1  A    between atoms: C_1  and  C_2
REMARK    2  A    between atoms: C_3  and  C_4
REMARK    3  A    between atoms: C_13  and  C_14
REMARK    4  A    between atoms: C_14  and  C_15
REMARK    5  A    between atoms: N_17  and  C_18
REMARK    6  A    between atoms: C_18  and  C_19
REMARK    7  A    between atoms: N_26  and  C_27
REMARK    8  A    between atoms: C_27  and  C_28
REMARK                            x       y       z     vdW  Elec       q    Type
REMARK                         _______ _______ _______ _____ _____    ______ ____
ROOT
ATOM      1  C   UNL     1      -0.212  14.604  22.267  0.00  0.00    +0.000 C 
ATOM      2  C   UNL     1       0.178  13.571  21.229  0.00  0.00    +0.000 C 
ATOM      3  C   UNL     1       1.075  13.784  20.222  0.00  0.00    +0.000 C 
ATOM      4  C   UNL     1       1.343  12.656  19.270  0.00  0.00    +0.000 C 
ATOM      5  C   UNL     1       0.130  11.793  18.988  0.00  0.00    +0.000 C 
ATOM      6  C   UNL     1      -0.439  11.345  20.312  0.00  0.00    +0.000 C 
ATOM      7  O   UNL     1      -0.910  10.213  20.420  0.00  0.00    +0.000 OA
ATOM      8  N   UNL     1      -0.452  12.301  21.340  0.00  0.00    +0.000 N 
ENDROOT
BRANCH   3   9
ATOM      9  C   UNL     1       1.744  15.124  19.954  0.00  0.00    +0.000 C 
ATOM     10  O   UNL     1       2.894  15.293  20.370  0.00  0.00    +0.000 OA
ATOM     11  N   UNL     1       1.077  16.173  19.312  0.00  0.00    +0.000 N 
ATOM     12  C   UNL     1      -0.351  16.243  18.978  0.00  0.00    +0.000 C 
ATOM     13  C   UNL     1      -0.673  17.222  17.848  0.00  0.00    +0.000 C 
ATOM     14  O   UNL     1      -0.129  18.514  18.117  0.00  0.00    +0.000 OA
ATOM     15  C   UNL     1       1.297  18.421  18.224  0.00  0.00    +0.000 C 
ATOM     16  C   UNL     1       1.717  17.497  19.374  0.00  0.00    +0.000 C 
ENDBRANCH   3   9
BRANCH   5  17
ATOM     17  C   UNL     1      -0.925  12.493  18.125  0.00  0.00    +0.000 C 
BRANCH  17  18
ATOM     18  C   UNL     1      -1.945  11.501  17.586  0.00  0.00    +0.000 C 
ATOM     19  O   UNL     1      -1.641  10.369  17.223  0.00  0.00    +0.000 OA
ATOM     20  N   UNL     1      -3.228  11.986  17.548  0.00  0.00    +0.000 N 
ATOM     21  H   UNL     1      -3.426  12.925  17.862  0.00  0.00    +0.000 HD
BRANCH  20  22
ATOM     22  C   UNL     1      -4.334  11.213  17.026  0.00  0.00    +0.000 C 
BRANCH  22  23
ATOM     23  C   UNL     1      -5.568  11.560  17.803  0.00  0.00    +0.000 A 
ATOM     24  C   UNL     1      -6.150  10.852  18.833  0.00  0.00    +0.000 A 
ATOM     25  C   UNL     1      -7.299  11.510  19.366  0.00  0.00    +0.000 A 
ATOM     26  C   UNL     1      -7.556  12.697  18.718  0.00  0.00    +0.000 A 
ATOM     27  S   UNL     1      -6.426  13.006  17.472  0.00  0.00    +0.000 S 
ENDBRANCH  22  23
ENDBRANCH  20  22
ENDBRANCH  17  18
ENDBRANCH   5  17
BRANCH   8  28
ATOM     28  C   UNL     1      -1.104  11.868  22.594  0.00  0.00    +0.000 C 
BRANCH  28  29
ATOM     29  C   UNL     1      -2.563  12.286  22.685  0.00  0.00    +0.000 A 
ATOM     30  C   UNL     1      -3.196  12.390  23.935  0.00  0.00    +0.000 A 
ATOM     31  C   UNL     1      -4.550  12.721  24.022  0.00  0.00    +0.000 A 
ATOM     32  C   UNL     1      -5.269  12.976  22.861  0.00  0.00    +0.000 A 
ATOM     33  F   UNL     1      -6.571  13.277  22.945  0.00  0.00    +0.000 F 
ATOM     34  C   UNL     1      -4.654  12.923  21.616  0.00  0.00    +0.000 A 
ATOM     35  C   UNL     1      -3.302  12.584  21.528  0.00  0.00    +0.000 A 
ENDBRANCH  28  29
ENDBRANCH   8  28
TORSDOF 7
ENDMDL
MODEL 4
REMARK VINA RESULT:      -7.9      1.476      1.806
REMARK  Name = 
REMARK  8 active torsions:
REMARK  status: ('A' for Active; 'I' for Inactive)
REMARK    1  A    between atoms: C_1  and  C_2
REMARK    2  A    between atoms: C_3  and  C_4
REMARK    3  A    between atoms: C_13  and  C_14
REMARK    4  A    between atoms: C_14  and  C_15
REMARK    5  A    between atoms: N_17  and  C_18
REMARK    6  A    between atoms: C_18  and  C_19
REMARK    7  A    between atoms: N_26  and  C_27
REMARK    8  A    between atoms: C_27  and  C_28
REMARK                            x       y       z     vdW  Elec       q    Type
REMARK                         _______ _______ _______ _____ _____    ______ ____
ROOT
ATOM      1  C   UNL     1       1.125   8.529  21.936  0.00  0.00    +0.000 C 
ATOM      2  C   UNL     1       0.962   9.331  20.661  0.00  0.00    +0.000 C 
ATOM      3  C   UNL     1       0.280  10.510  20.567  0.00  0.00    +0.000 C 
ATOM      4  C   UNL     1       0.206  11.173  19.224  0.00  0.00    +0.000 C 
ATOM      5  C   UNL     1       0.130  10.200  18.064  0.00  0.00    +0.000 C 
ATOM      6  C   UNL     1       1.280   9.231  18.198  0.00  0.00    +0.000 C 
ATOM      7  O   UNL     1       1.857   8.830  17.187  0.00  0.00    +0.000 OA
ATOM      8  N   UNL     1       1.575   8.790  19.496  0.00  0.00    +0.000 N 
ENDROOT
BRANCH   3   9
ATOM      9  C   UNL     1      -0.486  11.138  21.722  0.00  0.00    +0.000 C 
ATOM     10  O   UNL     1      -1.233  10.414  22.385  0.00  0.00    +0.000 OA
ATOM     11  N   UNL     1      -0.410  12.506  22.008  0.00  0.00    +0.000 N 
ATOM     12  C   UNL     1       0.218  13.549  21.188  0.00  0.00    +0.000 C 
ATOM     13  C   UNL     1       0.606  14.803  21.975  0.00  0.00    +0.000 C 
ATOM     14  O   UNL     1      -0.505  15.308  22.716  0.00  0.00    +0.000 OA
ATOM     15  C   UNL     1      -0.947  14.320  23.654  0.00  0.00    +0.000 C 
ATOM     16  C   UNL     1      -1.410  13.039  22.948  0.00  0.00    +0.000 C 
ENDBRANCH   3   9
BRANCH   5  17
ATOM     17  C   UNL     1      -1.216   9.475  17.967  0.00  0.00    +0.000 C 
BRANCH  17  18
ATOM     18  C   UNL     1      -2.266  10.345  17.293  0.00  0.00    +0.000 C 
ATOM     19  O   UNL     1      -2.169  10.715  16.127  0.00  0.00    +0.000 OA
ATOM     20  N   UNL     1      -3.323  10.671  18.104  0.00  0.00    +0.000 N 
ATOM     21  H   UNL     1      -3.355  10.338  19.056  0.00  0.00    +0.000 HD
BRANCH  20  22
ATOM     22  C   UNL     1      -4.402  11.529  17.663  0.00  0.00    +0.000 C 
BRANCH  22  23
ATOM     23  C   UNL     1      -5.462  11.544  18.721  0.00  0.00    +0.000 A 
ATOM     24  C   UNL     1      -6.631  10.812  18.764  0.00  0.00    +0.000 A 
ATOM     25  C   UNL     1      -7.383  11.055  19.952  0.00  0.00    +0.000 A 
ATOM     26  C   UNL     1      -6.764  11.970  20.773  0.00  0.00    +0.000 A 
ATOM     27  S   UNL     1      -5.293  12.535  20.109  0.00  0.00    +0.000 S 
ENDBRANCH  22  23
ENDBRANCH  20  22
ENDBRANCH  17  18
ENDBRANCH   5  17
BRANCH   8  28
ATOM     28  C   UNL     1       2.638   7.766  19.587  0.00  0.00    +0.000 C 
BRANCH  28  29
ATOM     29  C   UNL     1       2.123   6.349  19.393  0.00  0.00    +0.000 A 
ATOM     30  C   UNL     1       1.595   5.629  20.478  0.00  0.00    +0.000 A 
ATOM     31  C   UNL     1       1.170   4.309  20.317  0.00  0.00    +0.000 A 
ATOM     32  C   UNL     1       1.245   3.713  19.065  0.00  0.00    +0.000 A 
ATOM     33  F   UNL     1       0.852   2.441  18.916  0.00  0.00    +0.000 F 
ATOM     34  C   UNL     1       1.720   4.419  17.967  0.00  0.00    +0.000 A 
ATOM     35  C   UNL     1       2.154   5.737  18.129  0.00  0.00    +0.000 A 
ENDBRANCH  28  29
ENDBRANCH   8  28
TORSDOF 7
ENDMDL
MODEL 5
REMARK VINA RESULT:      -7.9      1.542      1.682
REMARK  Name = 
REMARK  8 active torsions:
REMARK  status: ('A' for Active; 'I' for Inactive)
REMARK    1  A    between atoms: C_1  and  C_2
REMARK    2  A    between atoms: C_3  and  C_4
REMARK    3  A    between atoms: C_13  and  C_14
REMARK    4  A    between atoms: C_14  and  C_15
REMARK    5  A    between atoms: N_17  and  C_18
REMARK    6  A    between atoms: C_18  and  C_19
REMARK    7  A    between atoms: N_26  and  C_27
REMARK    8  A    between atoms: C_27  and  C_28
REMARK                            x       y       z     vdW  Elec       q    Type
REMARK                         _______ _______ _______ _____ _____    ______ ____
ROOT
ATOM      1  C   UNL     1       1.134   8.616  21.905  0.00  0.00    +0.000 C 
ATOM      2  C   UNL     1       0.981   9.381  20.606  0.00  0.00    +0.000 C 
ATOM      3  C   UNL     1       0.293  10.553  20.472  0.00  0.00    +0.000 C 
ATOM      4  C   UNL     1       0.230  11.179  19.111  0.00  0.00    +0.000 C 
ATOM      5  C   UNL     1       0.175  10.175  17.977  0.00  0.00    +0.000 C 
ATOM      6  C   UNL     1       1.329   9.218  18.151  0.00  0.00    +0.000 C 
ATOM      7  O   UNL     1       1.921   8.793  17.158  0.00  0.00    +0.000 OA
ATOM      8  N   UNL     1       1.612   8.814  19.464  0.00  0.00    +0.000 N 
ENDROOT
BRANCH   3   9
ATOM      9  C   UNL     1      -0.492  11.207  21.601  0.00  0.00    +0.000 C 
ATOM     10  O   UNL     1      -1.311  10.517  22.214  0.00  0.00    +0.000 OA
ATOM     11  N   UNL     1      -0.352  12.564  21.914  0.00  0.00    +0.000 N 
ATOM     12  C   UNL     1       0.373  13.581  21.144  0.00  0.00    +0.000 C 
ATOM     13  C   UNL     1       0.794  14.798  21.971  0.00  0.00    +0.000 C 
ATOM     14  O   UNL     1      -0.321  15.355  22.667  0.00  0.00    +0.000 OA
ATOM     15  C   UNL     1      -0.864  14.380  23.565  0.00  0.00    +0.000 C 
ATOM     16  C   UNL     1      -1.364  13.139  22.815  0.00  0.00    +0.000 C 
ENDBRANCH   3   9
BRANCH   5  17
ATOM     17  C   UNL     1      -1.165   9.438  17.883  0.00  0.00    +0.000 C 
BRANCH  17  18
ATOM     18  C   UNL     1      -2.236  10.315  17.252  0.00  0.00    +0.000 C 
ATOM     19  O   UNL     1      -2.242  10.596  16.058  0.00  0.00    +0.000 OA
ATOM     20  N   UNL     1      -3.188  10.755  18.136  0.00  0.00    +0.000 N 
ATOM     21  H   UNL     1      -3.138  10.492  19.110  0.00  0.00    +0.000 HD
BRANCH  20  22
ATOM     22  C   UNL     1      -4.265  11.637  17.740  0.00  0.00    +0.000 C 
BRANCH  22  23
ATOM     23  C   UNL     1      -5.300  11.642  18.823  0.00  0.00    +0.000 A 
ATOM     24  C   UNL     1      -5.350  12.439  19.948  0.00  0.00    +0.000 A 
ATOM     25  C   UNL     1      -6.511  12.193  20.740  0.00  0.00    +0.000 A 
ATOM     26  C   UNL     1      -7.305  11.210  20.193  0.00  0.00    +0.000 A 
ATOM     27  S   UNL     1      -6.648  10.587  18.743  0.00  0.00    +0.000 S 
ENDBRANCH  22  23
ENDBRANCH  20  22
ENDBRANCH  17  18
ENDBRANCH   5  17
BRANCH   8  28
ATOM     28  C   UNL     1       2.680   7.800  19.596  0.00  0.00    +0.000 C 
BRANCH  28  29
ATOM     29  C   UNL     1       2.175   6.375  19.441  0.00  0.00    +0.000 A 
ATOM     30  C   UNL     1       2.221   5.736  18.190  0.00  0.00    +0.000 A 
ATOM     31  C   UNL     1       1.709   4.446  18.030  0.00  0.00    +0.000 A 
ATOM     32  C   UNL     1       1.176   3.781  19.126  0.00  0.00    +0.000 A 
ATOM     33  F   UNL     1       0.670   2.551  18.967  0.00  0.00    +0.000 F 
ATOM     34  C   UNL     1       1.160   4.374  20.382  0.00  0.00    +0.000 A 
ATOM     35  C   UNL     1       1.663   5.667  20.541  0.00  0.00    +0.000 A 
ENDBRANCH  28  29
ENDBRANCH   8  28
TORSDOF 7
ENDMDL
MODEL 6
REMARK VINA RESULT:      -7.8      5.206      8.854
REMARK  Name = 
REMARK  8 active torsions:
REMARK  status: ('A' for Active; 'I' for Inactive)
REMARK    1  A    between atoms: C_1  and  C_2
REMARK    2  A    between atoms: C_3  and  C_4
REMARK    3  A    between atoms: C_13  and  C_14
REMARK    4  A    between atoms: C_14  and  C_15
REMARK    5  A    between atoms: N_17  and  C_18
REMARK    6  A    between atoms: C_18  and  C_19
REMARK    7  A    between atoms: N_26  and  C_27
REMARK    8  A    between atoms: C_27  and  C_28
REMARK                            x       y       z     vdW  Elec       q    Type
REMARK                         _______ _______ _______ _____ _____    ______ ____
ROOT
ATOM      1  C   UNL     1       1.521   5.195  17.625  0.00  0.00    +0.000 C 
ATOM      2  C   UNL     1       2.969   5.603  17.812  0.00  0.00    +0.000 C 
ATOM      3  C   UNL     1       3.392   6.882  18.030  0.00  0.00    +0.000 C 
ATOM      4  C   UNL     1       4.865   7.118  18.186  0.00  0.00    +0.000 C 
ATOM      5  C   UNL     1       5.724   6.207  17.333  0.00  0.00    +0.000 C 
ATOM      6  C   UNL     1       5.306   4.783  17.609  0.00  0.00    +0.000 C 
ATOM      7  O   UNL     1       6.157   3.894  17.636  0.00  0.00    +0.000 OA
ATOM      8  N   UNL     1       3.929   4.555  17.754  0.00  0.00    +0.000 N 
ENDROOT
BRANCH   3   9
ATOM      9  C   UNL     1       2.468   8.092  18.026  0.00  0.00    +0.000 C 
ATOM     10  O   UNL     1       2.430   8.791  17.010  0.00  0.00    +0.000 OA
ATOM     11  N   UNL     1       1.718   8.457  19.149  0.00  0.00    +0.000 N 
ATOM     12  C   UNL     1       1.824   7.903  20.504  0.00  0.00    +0.000 C 
ATOM     13  C   UNL     1       0.565   8.101  21.352  0.00  0.00    +0.000 C 
ATOM     14  O   UNL     1       0.169   9.472  21.370  0.00  0.00    +0.000 OA
ATOM     15  C   UNL     1      -0.127   9.904  20.037  0.00  0.00    +0.000 C 
ATOM     16  C   UNL     1       1.099   9.793  19.122  0.00  0.00    +0.000 C 
ENDBRANCH   3   9
BRANCH   5  17
ATOM     17  C   UNL     1       5.661   6.537  15.838  0.00  0.00    +0.000 C 
BRANCH  17  18
ATOM     18  C   UNL     1       6.565   5.619  15.030  0.00  0.00    +0.000 C 
ATOM     19  O   UNL     1       7.787   5.732  15.023  0.00  0.00    +0.000 OA
ATOM     20  N   UNL     1       5.892   4.659  14.318  0.00  0.00    +0.000 N 
ATOM     21  H   UNL     1       4.884   4.608  14.360  0.00  0.00    +0.000 HD
BRANCH  20  22
ATOM     22  C   UNL     1       6.570   3.719  13.451  0.00  0.00    +0.000 C 
BRANCH  22  23
ATOM     23  C   UNL     1       5.606   3.259  12.400  0.00  0.00    +0.000 A 
ATOM     24  C   UNL     1       4.438   3.869  11.993  0.00  0.00    +0.000 A 
ATOM     25  C   UNL     1       3.794   3.162  10.933  0.00  0.00    +0.000 A 
ATOM     26  C   UNL     1       4.493   2.033  10.572  0.00  0.00    +0.000 A 
ATOM     27  S   UNL     1       5.906   1.825  11.511  0.00  0.00    +0.000 S 
ENDBRANCH  22  23
ENDBRANCH  20  22
ENDBRANCH  17  18
ENDBRANCH   5  17
BRANCH   8  28
ATOM     28  C   UNL     1       3.540   3.139  17.924  0.00  0.00    +0.000 C 
BRANCH  28  29
ATOM     29  C   UNL     1       2.775   2.879  19.212  0.00  0.00    +0.000 A 
ATOM     30  C   UNL     1       1.439   2.446  19.171  0.00  0.00    +0.000 A 
ATOM     31  C   UNL     1       0.716   2.258  20.351  0.00  0.00    +0.000 A 
ATOM     32  C   UNL     1       1.333   2.475  21.575  0.00  0.00    +0.000 A 
ATOM     33  F   UNL     1       0.632   2.310  22.705  0.00  0.00    +0.000 F 
ATOM     34  C   UNL     1       2.666   2.860  21.643  0.00  0.00    +0.000 A 
ATOM     35  C   UNL     1       3.389   3.057  20.464  0.00  0.00    +0.000 A 
ENDBRANCH  28  29
ENDBRANCH   8  28
TORSDOF 7
ENDMDL
MODEL 7
REMARK VINA RESULT:      -7.7      4.546      8.090
REMARK  Name = 
REMARK  8 active torsions:
REMARK  status: ('A' for Active; 'I' for Inactive)
REMARK    1  A    between atoms: C_1  and  C_2
REMARK    2  A    between atoms: C_3  and  C_4
REMARK    3  A    between atoms: C_13  and  C_14
REMARK    4  A    between atoms: C_14  and  C_15
REMARK    5  A    between atoms: N_17  and  C_18
REMARK    6  A    between atoms: C_18  and  C_19
REMARK    7  A    between atoms: N_26  and  C_27
REMARK    8  A    between atoms: C_27  and  C_28
REMARK                            x       y       z     vdW  Elec       q    Type
REMARK                         _______ _______ _______ _____ _____    ______ ____
ROOT
ATOM      1  C   UNL     1      -0.429  13.618  18.200  0.00  0.00    +0.000 C 
ATOM      2  C   UNL     1       0.109  12.559  19.141  0.00  0.00    +0.000 C 
ATOM      3  C   UNL     1       1.385  12.530  19.628  0.00  0.00    +0.000 C 
ATOM      4  C   UNL     1       1.761  11.405  20.545  0.00  0.00    +0.000 C 
ATOM      5  C   UNL     1       1.085  10.090  20.210  0.00  0.00    +0.000 C 
ATOM      6  C   UNL     1      -0.402  10.340  20.136  0.00  0.00    +0.000 C 
ATOM      7  O   UNL     1      -1.183   9.481  20.546  0.00  0.00    +0.000 OA
ATOM      8  N   UNL     1      -0.803  11.537  19.526  0.00  0.00    +0.000 N 
ENDROOT
BRANCH   3   9
ATOM      9  C   UNL     1       2.469  13.518  19.220  0.00  0.00    +0.000 C 
ATOM     10  O   UNL     1       3.126  13.271  18.206  0.00  0.00    +0.000 OA
ATOM     11  N   UNL     1       2.772  14.648  19.987  0.00  0.00    +0.000 N 
ATOM     12  C   UNL     1       2.277  14.965  21.332  0.00  0.00    +0.000 C 
ATOM     13  C   UNL     1       2.342  16.454  21.678  0.00  0.00    +0.000 C 
ATOM     14  O   UNL     1       3.653  16.974  21.460  0.00  0.00    +0.000 OA
ATOM     15  C   UNL     1       4.005  16.829  20.079  0.00  0.00    +0.000 C 
ATOM     16  C   UNL     1       4.019  15.356  19.653  0.00  0.00    +0.000 C 
ENDBRANCH   3   9
BRANCH   5  17
ATOM     17  C   UNL     1       1.617   9.445  18.926  0.00  0.00    +0.000 C 
BRANCH  17  18
ATOM     18  C   UNL     1       2.039   8.003  19.166  0.00  0.00    +0.000 C 
ATOM     19  O   UNL     1       1.912   7.448  20.253  0.00  0.00    +0.000 OA
ATOM     20  N   UNL     1       2.567   7.386  18.061  0.00  0.00    +0.000 N 
ATOM     21  H   UNL     1       2.648   7.888  17.188  0.00  0.00    +0.000 HD
BRANCH  20  22
ATOM     22  C   UNL     1       3.070   6.029  18.096  0.00  0.00    +0.000 C 
BRANCH  22  23
ATOM     23  C   UNL     1       4.557   6.067  17.914  0.00  0.00    +0.000 A 
ATOM     24  C   UNL     1       5.304   6.985  17.206  0.00  0.00    +0.000 A 
ATOM     25  C   UNL     1       6.705   6.728  17.287  0.00  0.00    +0.000 A 
ATOM     26  C   UNL     1       6.979   5.617  18.052  0.00  0.00    +0.000 A 
ATOM     27  S   UNL     1       5.555   4.888  18.656  0.00  0.00    +0.000 S 
ENDBRANCH  22  23
ENDBRANCH  20  22
ENDBRANCH  17  18
ENDBRANCH   5  17
BRANCH   8  28
ATOM     28  C   UNL     1      -2.264  11.710  19.377  0.00  0.00    +0.000 C 
BRANCH  28  29
ATOM     29  C   UNL     1      -2.788  11.236  18.031  0.00  0.00    +0.000 A 
ATOM     30  C   UNL     1      -2.036  10.343  17.249  0.00  0.00    +0.000 A 
ATOM     31  C   UNL     1      -2.487   9.946  15.989  0.00  0.00    +0.000 A 
ATOM     32  C   UNL     1      -3.705  10.418  15.517  0.00  0.00    +0.000 A 
ATOM     33  F   UNL     1      -4.129  10.050  14.301  0.00  0.00    +0.000 F 
ATOM     34  C   UNL     1      -4.488  11.266  16.290  0.00  0.00    +0.000 A 
ATOM     35  C   UNL     1      -4.034  11.671  17.548  0.00  0.00    +0.000 A 
ENDBRANCH  28  29
ENDBRANCH   8  28
TORSDOF 7
ENDMDL
MODEL 8
REMARK VINA RESULT:      -7.7      4.096      7.530
REMARK  Name = 
REMARK  8 active torsions:
REMARK  status: ('A' for Active; 'I' for Inactive)
REMARK    1  A    between atoms: C_1  and  C_2
REMARK    2  A    between atoms: C_3  and  C_4
REMARK    3  A    between atoms: C_13  and  C_14
REMARK    4  A    between atoms: C_14  and  C_15
REMARK    5  A    between atoms: N_17  and  C_18
REMARK    6  A    between atoms: C_18  and  C_19
REMARK    7  A    between atoms: N_26  and  C_27
REMARK    8  A    between atoms: C_27  and  C_28
REMARK                            x       y       z     vdW  Elec       q    Type
REMARK                         _______ _______ _______ _____ _____    ______ ____
ROOT
ATOM      1  C   UNL     1      -0.421  13.554  18.269  0.00  0.00    +0.000 C 
ATOM      2  C   UNL     1       0.177  12.373  19.006  0.00  0.00    +0.000 C 
ATOM      3  C   UNL     1       1.483  12.279  19.392  0.00  0.00    +0.000 C 
ATOM      4  C   UNL     1       1.917  11.035  20.107  0.00  0.00    +0.000 C 
ATOM      5  C   UNL     1       1.211   9.780  19.634  0.00  0.00    +0.000 C 
ATOM      6  C   UNL     1      -0.276  10.031  19.703  0.00  0.00    +0.000 C 
ATOM      7  O   UNL     1      -1.031   9.119  20.040  0.00  0.00    +0.000 OA
ATOM      8  N   UNL     1      -0.712  11.303  19.303  0.00  0.00    +0.000 N 
ENDROOT
BRANCH   3   9
ATOM      9  C   UNL     1       2.542  13.320  19.055  0.00  0.00    +0.000 C 
ATOM     10  O   UNL     1       3.208  13.158  18.029  0.00  0.00    +0.000 OA
ATOM     11  N   UNL     1       2.813  14.404  19.896  0.00  0.00    +0.000 N 
ATOM     12  C   UNL     1       2.306  14.618  21.257  0.00  0.00    +0.000 C 
ATOM     13  C   UNL     1       2.331  16.082  21.702  0.00  0.00    +0.000 C 
ATOM     14  O   UNL     1       3.629  16.650  21.524  0.00  0.00    +0.000 OA
ATOM     15  C   UNL     1       3.987  16.607  20.138  0.00  0.00    +0.000 C 
ATOM     16  C   UNL     1       4.041  15.165  19.615  0.00  0.00    +0.000 C 
ENDBRANCH   3   9
BRANCH   5  17
ATOM     17  C   UNL     1       1.646   9.329  18.237  0.00  0.00    +0.000 C 
BRANCH  17  18
ATOM     18  C   UNL     1       2.676   8.212  18.311  0.00  0.00    +0.000 C 
ATOM     19  O   UNL     1       3.690   8.199  17.620  0.00  0.00    +0.000 OA
ATOM     20  N   UNL     1       2.369   7.231  19.220  0.00  0.00    +0.000 N 
ATOM     21  H   UNL     1       1.522   7.291  19.766  0.00  0.00    +0.000 HD
BRANCH  20  22
ATOM     22  C   UNL     1       3.199   6.060  19.406  0.00  0.00    +0.000 C 
BRANCH  22  23
ATOM     23  C   UNL     1       2.310   4.881  19.660  0.00  0.00    +0.000 A 
ATOM     24  C   UNL     1       1.902   4.369  20.874  0.00  0.00    +0.000 A 
ATOM     25  C   UNL     1       1.018   3.258  20.729  0.00  0.00    +0.000 A 
ATOM     26  C   UNL     1       0.787   2.957  19.406  0.00  0.00    +0.000 A 
ATOM     27  S   UNL     1       1.637   4.000  18.352  0.00  0.00    +0.000 S 
ENDBRANCH  22  23
ENDBRANCH  20  22
ENDBRANCH  17  18
ENDBRANCH   5  17
BRANCH   8  28
ATOM     28  C   UNL     1      -2.179  11.489  19.285  0.00  0.00    +0.000 C 
BRANCH  28  29
ATOM     29  C   UNL     1      -2.814  11.105  17.958  0.00  0.00    +0.000 A 
ATOM     30  C   UNL     1      -2.147  10.242  17.073  0.00  0.00    +0.000 A 
ATOM     31  C   UNL     1      -2.701   9.930  15.830  0.00  0.00    +0.000 A 
ATOM     32  C   UNL     1      -3.937  10.456  15.479  0.00  0.00    +0.000 A 
ATOM     33  F   UNL     1      -4.459  10.168  14.280  0.00  0.00    +0.000 F 
ATOM     34  C   UNL     1      -4.637  11.275  16.355  0.00  0.00    +0.000 A 
ATOM     35  C   UNL     1      -4.080  11.596  17.595  0.00  0.00    +0.000 A 
ENDBRANCH  28  29
ENDBRANCH   8  28
TORSDOF 7
ENDMDL
MODEL 9
REMARK VINA RESULT:      -7.7      4.313      7.649
REMARK  Name = 
REMARK  8 active torsions:
REMARK  status: ('A' for Active; 'I' for Inactive)
REMARK    1  A    between atoms: C_1  and  C_2
REMARK    2  A    between atoms: C_3  and  C_4
REMARK    3  A    between atoms: C_13  and  C_14
REMARK    4  A    between atoms: C_14  and  C_15
REMARK    5  A    between atoms: N_17  and  C_18
REMARK    6  A    between atoms: C_18  and  C_19
REMARK    7  A    between atoms: N_26  and  C_27
REMARK    8  A    between atoms: C_27  and  C_28
REMARK                            x       y       z     vdW  Elec       q    Type
REMARK                         _______ _______ _______ _____ _____    ______ ____
ROOT
ATOM      1  C   UNL     1       1.419  13.361  21.545  0.00  0.00    +0.000 C 
ATOM      2  C   UNL     1       0.900  12.262  20.641  0.00  0.00    +0.000 C 
ATOM      3  C   UNL     1      -0.165  11.458  20.930  0.00  0.00    +0.000 C 
ATOM      4  C   UNL     1      -0.546  10.408  19.929  0.00  0.00    +0.000 C 
ATOM      5  C   UNL     1       0.635   9.807  19.194  0.00  0.00    +0.000 C 
ATOM      6  C   UNL     1       1.441  10.940  18.607  0.00  0.00    +0.000 C 
ATOM      7  O   UNL     1       1.971  10.802  17.504  0.00  0.00    +0.000 OA
ATOM      8  N   UNL     1       1.592  12.080  19.411  0.00  0.00    +0.000 N 
ENDROOT
BRANCH   3   9
ATOM      9  C   UNL     1      -0.926  11.502  22.248  0.00  0.00    +0.000 C 
ATOM     10  O   UNL     1      -0.503  10.820  23.185  0.00  0.00    +0.000 OA
ATOM     11  N   UNL     1      -2.106  12.239  22.401  0.00  0.00    +0.000 N 
ATOM     12  C   UNL     1      -2.883  12.897  21.344  0.00  0.00    +0.000 C 
ATOM     13  C   UNL     1      -3.779  14.029  21.850  0.00  0.00    +0.000 C 
ATOM     14  O   UNL     1      -4.612  13.583  22.921  0.00  0.00    +0.000 OA
ATOM     15  C   UNL     1      -3.796  13.147  24.015  0.00  0.00    +0.000 C 
ATOM     16  C   UNL     1      -2.897  11.971  23.613  0.00  0.00    +0.000 C 
ENDBRANCH   3   9
BRANCH   5  17
ATOM     17  C   UNL     1       1.496   8.894  20.073  0.00  0.00    +0.000 C 
BRANCH  17  18
ATOM     18  C   UNL     1       2.130   7.778  19.257  0.00  0.00    +0.000 C 
ATOM     19  O   UNL     1       2.051   7.725  18.034  0.00  0.00    +0.000 OA
ATOM     20  N   UNL     1       2.797   6.846  20.011  0.00  0.00    +0.000 N 
ATOM     21  H   UNL     1       2.834   6.937  21.016  0.00  0.00    +0.000 HD
BRANCH  20  22
ATOM     22  C   UNL     1       3.427   5.682  19.426  0.00  0.00    +0.000 C 
BRANCH  22  23
ATOM     23  C   UNL     1       2.451   4.546  19.454  0.00  0.00    +0.000 A 
ATOM     24  C   UNL     1       1.937   3.840  18.386  0.00  0.00    +0.000 A 
ATOM     25  C   UNL     1       1.059   2.792  18.797  0.00  0.00    +0.000 A 
ATOM     26  C   UNL     1       0.929   2.739  20.166  0.00  0.00    +0.000 A 
ATOM     27  S   UNL     1       1.851   3.950  20.945  0.00  0.00    +0.000 S 
ENDBRANCH  22  23
ENDBRANCH  20  22
ENDBRANCH  17  18
ENDBRANCH   5  17
BRANCH   8  28
ATOM     28  C   UNL     1       2.467  13.133  18.855  0.00  0.00    +0.000 C 
BRANCH  28  29
ATOM     29  C   UNL     1       1.774  14.479  18.720  0.00  0.00    +0.000 A 
ATOM     30  C   UNL     1       0.375  14.550  18.604  0.00  0.00    +0.000 A 
ATOM     31  C   UNL     1      -0.263  15.779  18.427  0.00  0.00    +0.000 A 
ATOM     32  C   UNL     1       0.492  16.944  18.393  0.00  0.00    +0.000 A 
ATOM     33  F   UNL     1      -0.120  18.121  18.206  0.00  0.00    +0.000 F 
ATOM     34  C   UNL     1       1.872  16.904  18.550  0.00  0.00    +0.000 A 
ATOM     35  C   UNL     1       2.512  15.674  18.719  0.00  0.00    +0.000 A 
ENDBRANCH  28  29
ENDBRANCH   8  28
TORSDOF 7
ENDMDL
