MODEL 1
REMARK VINA RESULT:      -5.5      0.000      0.000
REMARK  Name = 
REMARK  15 active torsions:
REMARK  status: ('A' for Active; 'I' for Inactive)
REMARK    1  A    between atoms: C_1  and  C_2
REMARK    2  A    between atoms: C_2  and  C_3
REMARK    3  A    between atoms: C_3  and  C_4
REMARK    4  A    between atoms: C_3  and  N_5
REMARK    5  A    between atoms: C_6  and  C_8
REMARK    6  A    between atoms: N_13  and  C_14
REMARK    7  A    between atoms: C_16  and  O_17
REMARK    8  A    between atoms: O_17  and  C_18
REMARK    9  A    between atoms: C_19  and  O_20
REMARK   10  A    between atoms: O_20  and  C_21
REMARK   11  A    between atoms: C_22  and  O_23
REMARK   12  A    between atoms: O_23  and  C_24
REMARK   13  A    between atoms: C_26  and  C_27
REMARK   14  A    between atoms: C_30  and  O_31
REMARK   15  A    between atoms: O_31  and  C_32
REMARK                            x       y       z     vdW  Elec       q    Type
REMARK                         _______ _______ _______ _____ _____    ______ ____
ROOT
ATOM      1  C   UNL     1      -3.280  12.923  23.131  0.00  0.00    +0.000 C 
ATOM      2  C   UNL     1      -3.292  13.775  24.399  0.00  0.00    +0.000 C 
ATOM      3  C   UNL     1      -3.100  15.254  24.109  0.00  0.00    +0.000 C 
ATOM      4  C   UNL     1      -2.086  15.604  23.036  0.00  0.00    +0.000 C 
ATOM      5  O   UNL     1      -1.732  16.789  22.956  0.00  0.00    +0.000 OA
ATOM      6  N   UNL     1      -1.602  14.592  22.213  0.00  0.00    +0.000 N 
ATOM      7  C   UNL     1      -1.929  13.148  22.432  0.00  0.00    +0.000 C 
ENDROOT
BRANCH   6   8
ATOM      8  C   UNL     1      -0.441  14.912  21.419  0.00  0.00    +0.000 A 
ATOM      9  C   UNL     1      -0.578  15.617  20.228  0.00  0.00    +0.000 A 
ATOM     10  C   UNL     1       0.534  15.961  19.460  0.00  0.00    +0.000 A 
ATOM     11  C   UNL     1       1.830  15.607  19.895  0.00  0.00    +0.000 A 
ATOM     12  C   UNL     1       1.987  14.916  21.116  0.00  0.00    +0.000 A 
ATOM     13  C   UNL     1       0.845  14.560  21.853  0.00  0.00    +0.000 A 
BRANCH  10  14
ATOM     14  O   UNL     1       0.421  16.632  18.261  0.00  0.00    +0.000 OA
ATOM     15  C   UNL     1      -0.778  17.381  18.079  0.00  0.00    +0.000 C 
ENDBRANCH  10  14
BRANCH  11  16
ATOM     16  O   UNL     1       2.835  15.941  19.016  0.00  0.00    +0.000 OA
ATOM     17  C   UNL     1       3.330  14.929  18.154  0.00  0.00    +0.000 C 
ENDBRANCH  11  16
BRANCH  12  18
ATOM     18  O   UNL     1       3.260  14.608  21.526  0.00  0.00    +0.000 OA
ATOM     19  C   UNL     1       3.832  15.374  22.580  0.00  0.00    +0.000 C 
ENDBRANCH  12  18
ENDBRANCH   6   8
BRANCH   7  20
ATOM     20  C   UNL     1      -1.787  12.262  21.183  0.00  0.00    +0.000 A 
ATOM     21  C   UNL     1      -0.900  11.174  21.164  0.00  0.00    +0.000 A 
ATOM     22  C   UNL     1      -0.701  10.444  19.984  0.00  0.00    +0.000 A 
ATOM     23  C   UNL     1      -1.384  10.779  18.813  0.00  0.00    +0.000 A 
ATOM     24  C   UNL     1      -2.281  11.840  18.831  0.00  0.00    +0.000 A 
ATOM     25  C   UNL     1      -2.505  12.546  20.013  0.00  0.00    +0.000 A 
BRANCH  23  26
ATOM     26  O   UNL     1      -1.077  10.034  17.707  0.00  0.00    +0.000 OA
ATOM     27  C   UNL     1      -2.122   9.910  16.744  0.00  0.00    +0.000 C 
ENDBRANCH  23  26
ENDBRANCH   7  20
BRANCH   1  29
ATOM     28  N   UNL     1      -5.368  12.202  22.051  0.00  0.00    +0.000 N 
ATOM     29  C   UNL     1      -4.477  13.233  22.244  0.00  0.00    +0.000 C 
ATOM     30  O   UNL     1      -4.646  14.339  21.730  0.00  0.00    +0.000 OA
ATOM     31  H   UNL     1      -5.066  11.251  22.236  0.00  0.00    +0.000 HD
BRANCH  28  32
ATOM     32  C   UNL     1      -6.500  12.389  21.145  0.00  0.00    +0.000 C 
ATOM     33  C   UNL     1      -7.768  11.815  21.763  0.00  0.00    +0.000 C 
BRANCH  32  35
ATOM     34  C   UNL     1      -6.930  10.517  19.458  0.00  0.00    +0.000 C 
ATOM     35  C   UNL     1      -6.170  11.796  19.767  0.00  0.00    +0.000 C 
ENDBRANCH  32  35
ENDBRANCH  28  32
ENDBRANCH   1  29
TORSDOF 9
ENDMDL
MODEL 2
REMARK VINA RESULT:      -5.4      0.582      2.180
REMARK  Name = 
REMARK  15 active torsions:
REMARK  status: ('A' for Active; 'I' for Inactive)
REMARK    1  A    between atoms: C_1  and  C_2
REMARK    2  A    between atoms: C_2  and  C_3
REMARK    3  A    between atoms: C_3  and  C_4
REMARK    4  A    between atoms: C_3  and  N_5
REMARK    5  A    between atoms: C_6  and  C_8
REMARK    6  A    between atoms: N_13  and  C_14
REMARK    7  A    between atoms: C_16  and  O_17
REMARK    8  A    between atoms: O_17  and  C_18
REMARK    9  A    between atoms: C_19  and  O_20
REMARK   10  A    between atoms: O_20  and  C_21
REMARK   11  A    between atoms: C_22  and  O_23
REMARK   12  A    between atoms: O_23  and  C_24
REMARK   13  A    between atoms: C_26  and  C_27
REMARK   14  A    between atoms: C_30  and  O_31
REMARK   15  A    between atoms: O_31  and  C_32
REMARK                            x       y       z     vdW  Elec       q    Type
REMARK                         _______ _______ _______ _____ _____    ______ ____
ROOT
ATOM      1  C   UNL     1      -3.386  12.614  22.962  0.00  0.00    +0.000 C 
ATOM      2  C   UNL     1      -3.303  13.332  24.307  0.00  0.00    +0.000 C 
ATOM      3  C   UNL     1      -3.077  14.828  24.157  0.00  0.00    +0.000 C 
ATOM      4  C   UNL     1      -2.111  15.256  23.069  0.00  0.00    +0.000 C 
ATOM      5  O   UNL     1      -1.723  16.434  23.088  0.00  0.00    +0.000 OA
ATOM      6  N   UNL     1      -1.704  14.321  22.123  0.00  0.00    +0.000 N 
ATOM      7  C   UNL     1      -2.067  12.872  22.215  0.00  0.00    +0.000 C 
ENDROOT
BRANCH   6   8
ATOM      8  C   UNL     1      -0.577  14.688  21.302  0.00  0.00    +0.000 A 
ATOM      9  C   UNL     1       0.709  14.293  21.657  0.00  0.00    +0.000 A 
ATOM     10  C   UNL     1       1.808  14.612  20.862  0.00  0.00    +0.000 A 
ATOM     11  C   UNL     1       1.628  15.336  19.664  0.00  0.00    +0.000 A 
ATOM     12  C   UNL     1       0.326  15.721  19.275  0.00  0.00    +0.000 A 
ATOM     13  C   UNL     1      -0.758  15.407  20.113  0.00  0.00    +0.000 A 
BRANCH  10  14
ATOM     14  O   UNL     1       3.095  14.257  21.209  0.00  0.00    +0.000 OA
ATOM     15  C   UNL     1       3.681  15.004  22.272  0.00  0.00    +0.000 C 
ENDBRANCH  10  14
BRANCH  11  16
ATOM     16  O   UNL     1       2.797  15.649  19.007  0.00  0.00    +0.000 OA
ATOM     17  C   UNL     1       3.183  14.834  17.912  0.00  0.00    +0.000 C 
ENDBRANCH  11  16
BRANCH  12  18
ATOM     18  O   UNL     1       0.178  16.402  18.094  0.00  0.00    +0.000 OA
ATOM     19  C   UNL     1       0.226  17.824  18.124  0.00  0.00    +0.000 C 
ENDBRANCH  12  18
ENDBRANCH   6   8
BRANCH   7  20
ATOM     20  C   UNL     1      -2.021  12.114  20.877  0.00  0.00    +0.000 A 
ATOM     21  C   UNL     1      -1.044  11.135  20.633  0.00  0.00    +0.000 A 
ATOM     22  C   UNL     1      -0.946  10.533  19.371  0.00  0.00    +0.000 A 
ATOM     23  C   UNL     1      -1.820  10.886  18.340  0.00  0.00    +0.000 A 
ATOM     24  C   UNL     1      -2.803  11.837  18.582  0.00  0.00    +0.000 A 
ATOM     25  C   UNL     1      -2.923  12.414  19.847  0.00  0.00    +0.000 A 
BRANCH  23  26
ATOM     26  O   UNL     1      -1.604  10.275  17.136  0.00  0.00    +0.000 OA
ATOM     27  C   UNL     1      -2.485  10.667  16.084  0.00  0.00    +0.000 C 
ENDBRANCH  23  26
ENDBRANCH   7  20
BRANCH   1  29
ATOM     28  N   UNL     1      -5.629  12.117  22.085  0.00  0.00    +0.000 N 
ATOM     29  C   UNL     1      -4.617  13.045  22.178  0.00  0.00    +0.000 C 
ATOM     30  O   UNL     1      -4.710  14.158  21.660  0.00  0.00    +0.000 OA
ATOM     31  H   UNL     1      -5.417  11.140  22.262  0.00  0.00    +0.000 HD
BRANCH  28  32
ATOM     32  C   UNL     1      -6.811  12.420  21.279  0.00  0.00    +0.000 C 
ATOM     33  C   UNL     1      -7.911  13.001  22.159  0.00  0.00    +0.000 C 
BRANCH  32  35
ATOM     34  C   UNL     1      -6.495  10.970  19.198  0.00  0.00    +0.000 C 
ATOM     35  C   UNL     1      -7.248  11.169  20.502  0.00  0.00    +0.000 C 
ENDBRANCH  32  35
ENDBRANCH  28  32
ENDBRANCH   1  29
TORSDOF 9
ENDMDL
MODEL 3
REMARK VINA RESULT:      -5.3      0.895      2.363
REMARK  Name = 
REMARK  15 active torsions:
REMARK  status: ('A' for Active; 'I' for Inactive)
REMARK    1  A    between atoms: C_1  and  C_2
REMARK    2  A    between atoms: C_2  and  C_3
REMARK    3  A    between atoms: C_3  and  C_4
REMARK    4  A    between atoms: C_3  and  N_5
REMARK    5  A    between atoms: C_6  and  C_8
REMARK    6  A    between atoms: N_13  and  C_14
REMARK    7  A    between atoms: C_16  and  O_17
REMARK    8  A    between atoms: O_17  and  C_18
REMARK    9  A    between atoms: C_19  and  O_20
REMARK   10  A    between atoms: O_20  and  C_21
REMARK   11  A    between atoms: C_22  and  O_23
REMARK   12  A    between atoms: O_23  and  C_24
REMARK   13  A    between atoms: C_26  and  C_27
REMARK   14  A    between atoms: C_30  and  O_31
REMARK   15  A    between atoms: O_31  and  C_32
REMARK                            x       y       z     vdW  Elec       q    Type
REMARK                         _______ _______ _______ _____ _____    ______ ____
ROOT
ATOM      1  C   UNL     1      -3.660  13.140  22.829  0.00  0.00    +0.000 C 
ATOM      2  C   UNL     1      -3.891  14.085  24.007  0.00  0.00    +0.000 C 
ATOM      3  C   UNL     1      -3.877  15.547  23.593  0.00  0.00    +0.000 C 
ATOM      4  C   UNL     1      -2.834  15.945  22.565  0.00  0.00    +0.000 C 
ATOM      5  O   UNL     1      -2.638  17.158  22.399  0.00  0.00    +0.000 OA
ATOM      6  N   UNL     1      -2.152  14.947  21.878  0.00  0.00    +0.000 N 
ATOM      7  C   UNL     1      -2.299  13.494  22.208  0.00  0.00    +0.000 C 
ENDROOT
BRANCH   6   8
ATOM      8  C   UNL     1      -0.983  15.360  21.141  0.00  0.00    +0.000 A 
ATOM      9  C   UNL     1       0.289  15.088  21.633  0.00  0.00    +0.000 A 
ATOM     10  C   UNL     1       1.432  15.453  20.922  0.00  0.00    +0.000 A 
ATOM     11  C   UNL     1       1.311  16.098  19.672  0.00  0.00    +0.000 A 
ATOM     12  C   UNL     1       0.026  16.357  19.146  0.00  0.00    +0.000 A 
ATOM     13  C   UNL     1      -1.105  16.001  19.900  0.00  0.00    +0.000 A 
BRANCH  10  14
ATOM     14  O   UNL     1       2.703  15.220  21.403  0.00  0.00    +0.000 OA
ATOM     15  C   UNL     1       3.204  13.898  21.221  0.00  0.00    +0.000 C 
ENDBRANCH  10  14
BRANCH  11  16
ATOM     16  O   UNL     1       2.510  16.469  19.105  0.00  0.00    +0.000 OA
ATOM     17  C   UNL     1       2.985  15.716  18.001  0.00  0.00    +0.000 C 
ENDBRANCH  11  16
BRANCH  12  18
ATOM     18  O   UNL     1      -0.061  16.962  17.918  0.00  0.00    +0.000 OA
ATOM     19  C   UNL     1      -0.927  18.082  17.778  0.00  0.00    +0.000 C 
ENDBRANCH  12  18
ENDBRANCH   6   8
BRANCH   7  20
ATOM     20  C   UNL     1      -1.937  12.536  21.061  0.00  0.00    +0.000 A 
ATOM     21  C   UNL     1      -1.009  11.500  21.250  0.00  0.00    +0.000 A 
ATOM     22  C   UNL     1      -0.607  10.704  20.167  0.00  0.00    +0.000 A 
ATOM     23  C   UNL     1      -1.126  10.922  18.889  0.00  0.00    +0.000 A 
ATOM     24  C   UNL     1      -2.062  11.931  18.700  0.00  0.00    +0.000 A 
ATOM     25  C   UNL     1      -2.488  12.702  19.782  0.00  0.00    +0.000 A 
BRANCH  23  26
ATOM     26  O   UNL     1      -0.628  10.124  17.896  0.00  0.00    +0.000 OA
ATOM     27  C   UNL     1       0.706   9.660  18.096  0.00  0.00    +0.000 C 
ENDBRANCH  23  26
ENDBRANCH   7  20
BRANCH   1  29
ATOM     28  N   UNL     1      -5.521  12.036  21.659  0.00  0.00    +0.000 N 
ATOM     29  C   UNL     1      -4.811  13.202  21.835  0.00  0.00    +0.000 C 
ATOM     30  O   UNL     1      -5.097  14.232  21.224  0.00  0.00    +0.000 OA
ATOM     31  H   UNL     1      -5.098  11.157  21.941  0.00  0.00    +0.000 HD
BRANCH  28  32
ATOM     32  C   UNL     1      -6.588  11.987  20.661  0.00  0.00    +0.000 C 
ATOM     33  C   UNL     1      -7.767  11.181  21.192  0.00  0.00    +0.000 C 
BRANCH  32  35
ATOM     34  C   UNL     1      -5.996  12.497  18.227  0.00  0.00    +0.000 C 
ATOM     35  C   UNL     1      -6.034  11.454  19.331  0.00  0.00    +0.000 C 
ENDBRANCH  32  35
ENDBRANCH  28  32
ENDBRANCH   1  29
TORSDOF 9
ENDMDL
MODEL 4
REMARK VINA RESULT:      -5.2      3.178      6.015
REMARK  Name = 
REMARK  15 active torsions:
REMARK  status: ('A' for Active; 'I' for Inactive)
REMARK    1  A    between atoms: C_1  and  C_2
REMARK    2  A    between atoms: C_2  and  C_3
REMARK    3  A    between atoms: C_3  and  C_4
REMARK    4  A    between atoms: C_3  and  N_5
REMARK    5  A    between atoms: C_6  and  C_8
REMARK    6  A    between atoms: N_13  and  C_14
REMARK    7  A    between atoms: C_16  and  O_17
REMARK    8  A    between atoms: O_17  and  C_18
REMARK    9  A    between atoms: C_19  and  O_20
REMARK   10  A    between atoms: O_20  and  C_21
REMARK   11  A    between atoms: C_22  and  O_23
REMARK   12  A    between atoms: O_23  and  C_24
REMARK   13  A    between atoms: C_26  and  C_27
REMARK   14  A    between atoms: C_30  and  O_31
REMARK   15  A    between atoms: O_31  and  C_32
REMARK                            x       y       z     vdW  Elec       q    Type
REMARK                         _______ _______ _______ _____ _____    ______ ____
ROOT
ATOM      1  C   UNL     1      -1.244  13.420  22.493  0.00  0.00    +0.000 C 
ATOM      2  C   UNL     1      -1.320  14.349  23.703  0.00  0.00    +0.000 C 
ATOM      3  C   UNL     1      -2.689  14.339  24.361  0.00  0.00    +0.000 C 
ATOM      4  C   UNL     1      -3.884  14.301  23.427  0.00  0.00    +0.000 C 
ATOM      5  O   UNL     1      -4.996  14.542  23.920  0.00  0.00    +0.000 OA
ATOM      6  N   UNL     1      -3.678  14.013  22.082  0.00  0.00    +0.000 N 
ATOM      7  C   UNL     1      -2.311  13.879  21.486  0.00  0.00    +0.000 C 
ENDROOT
BRANCH   6   8
ATOM      8  C   UNL     1      -4.783  14.276  21.193  0.00  0.00    +0.000 A 
ATOM      9  C   UNL     1      -4.869  15.492  20.522  0.00  0.00    +0.000 A 
ATOM     10  C   UNL     1      -5.914  15.755  19.636  0.00  0.00    +0.000 A 
ATOM     11  C   UNL     1      -6.900  14.774  19.395  0.00  0.00    +0.000 A 
ATOM     12  C   UNL     1      -6.811  13.525  20.048  0.00  0.00    +0.000 A 
ATOM     13  C   UNL     1      -5.761  13.302  20.955  0.00  0.00    +0.000 A 
BRANCH  10  14
ATOM     14  O   UNL     1      -6.037  16.963  18.982  0.00  0.00    +0.000 OA
ATOM     15  C   UNL     1      -4.910  17.831  19.064  0.00  0.00    +0.000 C 
ENDBRANCH  10  14
BRANCH  11  16
ATOM     16  O   UNL     1      -7.913  15.181  18.556  0.00  0.00    +0.000 OA
ATOM     17  C   UNL     1      -7.862  14.767  17.201  0.00  0.00    +0.000 C 
ENDBRANCH  11  16
BRANCH  12  18
ATOM     18  O   UNL     1      -7.769  12.582  19.775  0.00  0.00    +0.000 OA
ATOM     19  C   UNL     1      -7.395  11.210  19.813  0.00  0.00    +0.000 C 
ENDBRANCH  12  18
ENDBRANCH   6   8
BRANCH   7  20
ATOM     20  C   UNL     1      -2.256  13.053  20.190  0.00  0.00    +0.000 A 
ATOM     21  C   UNL     1      -1.161  13.150  19.317  0.00  0.00    +0.000 A 
ATOM     22  C   UNL     1      -1.175  12.475  18.087  0.00  0.00    +0.000 A 
ATOM     23  C   UNL     1      -2.269  11.690  17.715  0.00  0.00    +0.000 A 
ATOM     24  C   UNL     1      -3.345  11.572  18.585  0.00  0.00    +0.000 A 
ATOM     25  C   UNL     1      -3.319  12.215  19.823  0.00  0.00    +0.000 A 
BRANCH  23  26
ATOM     26  O   UNL     1      -2.201  11.118  16.475  0.00  0.00    +0.000 OA
ATOM     27  C   UNL     1      -3.436  11.049  15.765  0.00  0.00    +0.000 C 
ENDBRANCH  23  26
ENDBRANCH   7  20
BRANCH   1  29
ATOM     28  N   UNL     1      -0.405  11.108  22.465  0.00  0.00    +0.000 N 
ATOM     29  C   UNL     1      -1.391  11.962  22.904  0.00  0.00    +0.000 C 
ATOM     30  O   UNL     1      -2.332  11.564  23.592  0.00  0.00    +0.000 OA
ATOM     31  H   UNL     1       0.178  11.392  21.684  0.00  0.00    +0.000 HD
BRANCH  28  32
ATOM     32  C   UNL     1      -0.515   9.677  22.744  0.00  0.00    +0.000 C 
ATOM     33  C   UNL     1       0.467   9.279  23.839  0.00  0.00    +0.000 C 
BRANCH  32  35
ATOM     34  C   UNL     1       1.075   8.357  21.239  0.00  0.00    +0.000 C 
ATOM     35  C   UNL     1      -0.338   8.876  21.445  0.00  0.00    +0.000 C 
ENDBRANCH  32  35
ENDBRANCH  28  32
ENDBRANCH   1  29
TORSDOF 9
ENDMDL
MODEL 5
REMARK VINA RESULT:      -5.2      2.256      3.817
REMARK  Name = 
REMARK  15 active torsions:
REMARK  status: ('A' for Active; 'I' for Inactive)
REMARK    1  A    between atoms: C_1  and  C_2
REMARK    2  A    between atoms: C_2  and  C_3
REMARK    3  A    between atoms: C_3  and  C_4
REMARK    4  A    between atoms: C_3  and  N_5
REMARK    5  A    between atoms: C_6  and  C_8
REMARK    6  A    between atoms: N_13  and  C_14
REMARK    7  A    between atoms: C_16  and  O_17
REMARK    8  A    between atoms: O_17  and  C_18
REMARK    9  A    between atoms: C_19  and  O_20
REMARK   10  A    between atoms: O_20  and  C_21
REMARK   11  A    between atoms: C_22  and  O_23
REMARK   12  A    between atoms: O_23  and  C_24
REMARK   13  A    between atoms: C_26  and  C_27
REMARK   14  A    between atoms: C_30  and  O_31
REMARK   15  A    between atoms: O_31  and  C_32
REMARK                            x       y       z     vdW  Elec       q    Type
REMARK                         _______ _______ _______ _____ _____    ______ ____
ROOT
ATOM      1  C   UNL     1      -5.402  12.863  22.975  0.00  0.00    +0.000 C 
ATOM      2  C   UNL     1      -6.442  13.599  23.817  0.00  0.00    +0.000 C 
ATOM      3  C   UNL     1      -6.463  15.093  23.542  0.00  0.00    +0.000 C 
ATOM      4  C   UNL     1      -5.114  15.761  23.347  0.00  0.00    +0.000 C 
ATOM      5  O   UNL     1      -5.087  17.000  23.370  0.00  0.00    +0.000 OA
ATOM      6  N   UNL     1      -3.989  14.964  23.164  0.00  0.00    +0.000 N 
ATOM      7  C   UNL     1      -4.027  13.473  23.294  0.00  0.00    +0.000 C 
ENDROOT
BRANCH   6   8
ATOM      8  C   UNL     1      -2.711  15.622  23.278  0.00  0.00    +0.000 A 
ATOM      9  C   UNL     1      -1.975  15.526  24.455  0.00  0.00    +0.000 A 
ATOM     10  C   UNL     1      -0.724  16.131  24.575  0.00  0.00    +0.000 A 
ATOM     11  C   UNL     1      -0.177  16.845  23.487  0.00  0.00    +0.000 A 
ATOM     12  C   UNL     1      -0.900  16.928  22.277  0.00  0.00    +0.000 A 
ATOM     13  C   UNL     1      -2.169  16.330  22.197  0.00  0.00    +0.000 A 
BRANCH  10  14
ATOM     14  O   UNL     1       0.011  16.075  25.741  0.00  0.00    +0.000 OA
ATOM     15  C   UNL     1      -0.595  16.668  26.886  0.00  0.00    +0.000 C 
ENDBRANCH  10  14
BRANCH  11  16
ATOM     16  O   UNL     1       1.029  17.453  23.756  0.00  0.00    +0.000 OA
ATOM     17  C   UNL     1       2.209  16.836  23.268  0.00  0.00    +0.000 C 
ENDBRANCH  11  16
BRANCH  12  18
ATOM     18  O   UNL     1      -0.331  17.606  21.229  0.00  0.00    +0.000 OA
ATOM     19  C   UNL     1       0.134  16.855  20.113  0.00  0.00    +0.000 C 
ENDBRANCH  12  18
ENDBRANCH   6   8
BRANCH   7  20
ATOM     20  C   UNL     1      -2.898  12.736  22.554  0.00  0.00    +0.000 A 
ATOM     21  C   UNL     1      -2.118  11.767  23.205  0.00  0.00    +0.000 A 
ATOM     22  C   UNL     1      -1.023  11.185  22.550  0.00  0.00    +0.000 A 
ATOM     23  C   UNL     1      -0.696  11.549  21.242  0.00  0.00    +0.000 A 
ATOM     24  C   UNL     1      -1.478  12.490  20.585  0.00  0.00    +0.000 A 
ATOM     25  C   UNL     1      -2.587  13.046  21.222  0.00  0.00    +0.000 A 
BRANCH  23  26
ATOM     26  O   UNL     1       0.421  10.958  20.717  0.00  0.00    +0.000 OA
ATOM     27  C   UNL     1       0.396   9.532  20.677  0.00  0.00    +0.000 C 
ENDBRANCH  23  26
ENDBRANCH   7  20
BRANCH   1  29
ATOM     28  N   UNL     1      -5.893  11.693  20.867  0.00  0.00    +0.000 N 
ATOM     29  C   UNL     1      -5.753  12.910  21.495  0.00  0.00    +0.000 C 
ATOM     30  O   UNL     1      -5.909  13.971  20.889  0.00  0.00    +0.000 OA
ATOM     31  H   UNL     1      -5.485  10.869  21.299  0.00  0.00    +0.000 HD
BRANCH  28  32
ATOM     32  C   UNL     1      -6.146  11.650  19.428  0.00  0.00    +0.000 C 
ATOM     33  C   UNL     1      -6.992  10.431  19.081  0.00  0.00    +0.000 C 
BRANCH  32  35
ATOM     34  C   UNL     1      -4.988  11.857  17.159  0.00  0.00    +0.000 C 
ATOM     35  C   UNL     1      -4.816  11.709  18.662  0.00  0.00    +0.000 C 
ENDBRANCH  32  35
ENDBRANCH  28  32
ENDBRANCH   1  29
TORSDOF 9
ENDMDL
MODEL 6
REMARK VINA RESULT:      -5.2      0.975      1.098
REMARK  Name = 
REMARK  15 active torsions:
REMARK  status: ('A' for Active; 'I' for Inactive)
REMARK    1  A    between atoms: C_1  and  C_2
REMARK    2  A    between atoms: C_2  and  C_3
REMARK    3  A    between atoms: C_3  and  C_4
REMARK    4  A    between atoms: C_3  and  N_5
REMARK    5  A    between atoms: C_6  and  C_8
REMARK    6  A    between atoms: N_13  and  C_14
REMARK    7  A    between atoms: C_16  and  O_17
REMARK    8  A    between atoms: O_17  and  C_18
REMARK    9  A    between atoms: C_19  and  O_20
REMARK   10  A    between atoms: O_20  and  C_21
REMARK   11  A    between atoms: C_22  and  O_23
REMARK   12  A    between atoms: O_23  and  C_24
REMARK   13  A    between atoms: C_26  and  C_27
REMARK   14  A    between atoms: C_30  and  O_31
REMARK   15  A    between atoms: O_31  and  C_32
REMARK                            x       y       z     vdW  Elec       q    Type
REMARK                         _______ _______ _______ _____ _____    ______ ____
ROOT
ATOM      1  C   UNL     1      -3.545  12.644  22.737  0.00  0.00    +0.000 C 
ATOM      2  C   UNL     1      -3.852  13.502  23.963  0.00  0.00    +0.000 C 
ATOM      3  C   UNL     1      -3.721  14.990  23.681  0.00  0.00    +0.000 C 
ATOM      4  C   UNL     1      -2.558  15.408  22.802  0.00  0.00    +0.000 C 
ATOM      5  O   UNL     1      -2.285  16.617  22.762  0.00  0.00    +0.000 OA
ATOM      6  N   UNL     1      -1.858  14.432  22.102  0.00  0.00    +0.000 N 
ATOM      7  C   UNL     1      -2.111  12.968  22.289  0.00  0.00    +0.000 C 
ENDROOT
BRANCH   6   8
ATOM      8  C   UNL     1      -0.599  14.834  21.524  0.00  0.00    +0.000 A 
ATOM      9  C   UNL     1      -0.568  15.492  20.299  0.00  0.00    +0.000 A 
ATOM     10  C   UNL     1       0.636  15.916  19.737  0.00  0.00    +0.000 A 
ATOM     11  C   UNL     1       1.852  15.692  20.420  0.00  0.00    +0.000 A 
ATOM     12  C   UNL     1       1.834  15.050  21.677  0.00  0.00    +0.000 A 
ATOM     13  C   UNL     1       0.607  14.612  22.203  0.00  0.00    +0.000 A 
BRANCH  10  14
ATOM     14  O   UNL     1       0.695  16.543  18.511  0.00  0.00    +0.000 OA
ATOM     15  C   UNL     1       0.137  17.854  18.456  0.00  0.00    +0.000 C 
ENDBRANCH  10  14
BRANCH  11  16
ATOM     16  O   UNL     1       2.973  16.093  19.729  0.00  0.00    +0.000 OA
ATOM     17  C   UNL     1       3.613  17.292  20.136  0.00  0.00    +0.000 C 
ENDBRANCH  11  16
BRANCH  12  18
ATOM     18  O   UNL     1       3.027  14.869  22.329  0.00  0.00    +0.000 OA
ATOM     19  C   UNL     1       3.957  13.938  21.787  0.00  0.00    +0.000 C 
ENDBRANCH  12  18
ENDBRANCH   6   8
BRANCH   7  20
ATOM     20  C   UNL     1      -1.678  12.087  21.105  0.00  0.00    +0.000 A 
ATOM     21  C   UNL     1      -0.813  10.997  21.292  0.00  0.00    +0.000 A 
ATOM     22  C   UNL     1      -0.340  10.271  20.189  0.00  0.00    +0.000 A 
ATOM     23  C   UNL     1      -0.728  10.611  18.891  0.00  0.00    +0.000 A 
ATOM     24  C   UNL     1      -1.602  11.674  18.701  0.00  0.00    +0.000 A 
ATOM     25  C   UNL     1      -2.099  12.376  19.799  0.00  0.00    +0.000 A 
BRANCH  23  26
ATOM     26  O   UNL     1      -0.168   9.871  17.886  0.00  0.00    +0.000 OA
ATOM     27  C   UNL     1       1.215   9.566  18.048  0.00  0.00    +0.000 C 
ENDBRANCH  23  26
ENDBRANCH   7  20
BRANCH   1  29
ATOM     28  N   UNL     1      -5.712  12.073  21.721  0.00  0.00    +0.000 N 
ATOM     29  C   UNL     1      -4.581  12.854  21.641  0.00  0.00    +0.000 C 
ATOM     30  O   UNL     1      -4.425  13.675  20.737  0.00  0.00    +0.000 OA
ATOM     31  H   UNL     1      -5.686  11.229  22.285  0.00  0.00    +0.000 HD
BRANCH  28  32
ATOM     32  C   UNL     1      -6.717  12.151  20.663  0.00  0.00    +0.000 C 
ATOM     33  C   UNL     1      -7.873  13.042  21.101  0.00  0.00    +0.000 C 
BRANCH  32  35
ATOM     34  C   UNL     1      -6.802  10.382  18.820  0.00  0.00    +0.000 C 
ATOM     35  C   UNL     1      -7.157  10.738  20.254  0.00  0.00    +0.000 C 
ENDBRANCH  32  35
ENDBRANCH  28  32
ENDBRANCH   1  29
TORSDOF 9
ENDMDL
MODEL 7
REMARK VINA RESULT:      -5.2      2.317      3.381
REMARK  Name = 
REMARK  15 active torsions:
REMARK  status: ('A' for Active; 'I' for Inactive)
REMARK    1  A    between atoms: C_1  and  C_2
REMARK    2  A    between atoms: C_2  and  C_3
REMARK    3  A    between atoms: C_3  and  C_4
REMARK    4  A    between atoms: C_3  and  N_5
REMARK    5  A    between atoms: C_6  and  C_8
REMARK    6  A    between atoms: N_13  and  C_14
REMARK    7  A    between atoms: C_16  and  O_17
REMARK    8  A    between atoms: O_17  and  C_18
REMARK    9  A    between atoms: C_19  and  O_20
REMARK   10  A    between atoms: O_20  and  C_21
REMARK   11  A    between atoms: C_22  and  O_23
REMARK   12  A    between atoms: O_23  and  C_24
REMARK   13  A    between atoms: C_26  and  C_27
REMARK   14  A    between atoms: C_30  and  O_31
REMARK   15  A    between atoms: O_31  and  C_32
REMARK                            x       y       z     vdW  Elec       q    Type
REMARK                         _______ _______ _______ _____ _____    ______ ____
ROOT
ATOM      1  C   UNL     1      -5.417  12.778  22.985  0.00  0.00    +0.000 C 
ATOM      2  C   UNL     1      -6.451  13.455  23.883  0.00  0.00    +0.000 C 
ATOM      3  C   UNL     1      -6.494  14.962  23.689  0.00  0.00    +0.000 C 
ATOM      4  C   UNL     1      -5.157  15.655  23.507  0.00  0.00    +0.000 C 
ATOM      5  O   UNL     1      -5.144  16.892  23.597  0.00  0.00    +0.000 OA
ATOM      6  N   UNL     1      -4.026  14.883  23.264  0.00  0.00    +0.000 N 
ATOM      7  C   UNL     1      -4.045  13.387  23.314  0.00  0.00    +0.000 C 
ENDROOT
BRANCH   6   8
ATOM      8  C   UNL     1      -2.754  15.551  23.391  0.00  0.00    +0.000 A 
ATOM      9  C   UNL     1      -2.287  16.372  22.370  0.00  0.00    +0.000 A 
ATOM     10  C   UNL     1      -1.073  17.049  22.486  0.00  0.00    +0.000 A 
ATOM     11  C   UNL     1      -0.301  16.920  23.661  0.00  0.00    +0.000 A 
ATOM     12  C   UNL     1      -0.775  16.111  24.717  0.00  0.00    +0.000 A 
ATOM     13  C   UNL     1      -1.989  15.421  24.558  0.00  0.00    +0.000 A 
BRANCH  10  14
ATOM     14  O   UNL     1      -0.575  17.845  21.476  0.00  0.00    +0.000 OA
ATOM     15  C   UNL     1      -0.313  17.186  20.239  0.00  0.00    +0.000 C 
ENDBRANCH  10  14
BRANCH  11  16
ATOM     16  O   UNL     1       0.906  17.581  23.623  0.00  0.00    +0.000 OA
ATOM     17  C   UNL     1       2.059  16.841  23.253  0.00  0.00    +0.000 C 
ENDBRANCH  11  16
BRANCH  12  18
ATOM     18  O   UNL     1      -0.016  16.025  25.857  0.00  0.00    +0.000 OA
ATOM     19  C   UNL     1      -0.479  16.690  27.027  0.00  0.00    +0.000 C 
ENDBRANCH  12  18
ENDBRANCH   6   8
BRANCH   7  20
ATOM     20  C   UNL     1      -2.920  12.705  22.517  0.00  0.00    +0.000 A 
ATOM     21  C   UNL     1      -2.080  11.755  23.118  0.00  0.00    +0.000 A 
ATOM     22  C   UNL     1      -0.992  11.224  22.411  0.00  0.00    +0.000 A 
ATOM     23  C   UNL     1      -0.730  11.622  21.098  0.00  0.00    +0.000 A 
ATOM     24  C   UNL     1      -1.571  12.545  20.489  0.00  0.00    +0.000 A 
ATOM     25  C   UNL     1      -2.674  13.049  21.180  0.00  0.00    +0.000 A 
BRANCH  23  26
ATOM     26  O   UNL     1       0.385  11.081  20.519  0.00  0.00    +0.000 OA
ATOM     27  C   UNL     1       0.363   9.665  20.354  0.00  0.00    +0.000 C 
ENDBRANCH  23  26
ENDBRANCH   7  20
BRANCH   1  29
ATOM     28  N   UNL     1      -5.902  11.717  20.820  0.00  0.00    +0.000 N 
ATOM     29  C   UNL     1      -5.795  12.900  21.516  0.00  0.00    +0.000 C 
ATOM     30  O   UNL     1      -5.997  13.988  20.977  0.00  0.00    +0.000 OA
ATOM     31  H   UNL     1      -5.460  10.885  21.196  0.00  0.00    +0.000 HD
BRANCH  28  32
ATOM     32  C   UNL     1      -6.178  11.750  19.385  0.00  0.00    +0.000 C 
ATOM     33  C   UNL     1      -6.936  10.496  18.967  0.00  0.00    +0.000 C 
BRANCH  32  35
ATOM     34  C   UNL     1      -4.363  10.703  17.920  0.00  0.00    +0.000 C 
ATOM     35  C   UNL     1      -4.871  11.961  18.606  0.00  0.00    +0.000 C 
ENDBRANCH  32  35
ENDBRANCH  28  32
ENDBRANCH   1  29
TORSDOF 9
ENDMDL
MODEL 8
REMARK VINA RESULT:      -5.1      0.925      2.460
REMARK  Name = 
REMARK  15 active torsions:
REMARK  status: ('A' for Active; 'I' for Inactive)
REMARK    1  A    between atoms: C_1  and  C_2
REMARK    2  A    between atoms: C_2  and  C_3
REMARK    3  A    between atoms: C_3  and  C_4
REMARK    4  A    between atoms: C_3  and  N_5
REMARK    5  A    between atoms: C_6  and  C_8
REMARK    6  A    between atoms: N_13  and  C_14
REMARK    7  A    between atoms: C_16  and  O_17
REMARK    8  A    between atoms: O_17  and  C_18
REMARK    9  A    between atoms: C_19  and  O_20
REMARK   10  A    between atoms: O_20  and  C_21
REMARK   11  A    between atoms: C_22  and  O_23
REMARK   12  A    between atoms: O_23  and  C_24
REMARK   13  A    between atoms: C_26  and  C_27
REMARK   14  A    between atoms: C_30  and  O_31
REMARK   15  A    between atoms: O_31  and  C_32
REMARK                            x       y       z     vdW  Elec       q    Type
REMARK                         _______ _______ _______ _____ _____    ______ ____
ROOT
ATOM      1  C   UNL     1      -3.406  13.342  23.428  0.00  0.00    +0.000 C 
ATOM      2  C   UNL     1      -3.425  14.203  24.690  0.00  0.00    +0.000 C 
ATOM      3  C   UNL     1      -3.444  15.691  24.381  0.00  0.00    +0.000 C 
ATOM      4  C   UNL     1      -2.570  16.149  23.228  0.00  0.00    +0.000 C 
ATOM      5  O   UNL     1      -2.375  17.369  23.116  0.00  0.00    +0.000 OA
ATOM      6  N   UNL     1      -2.029  15.196  22.373  0.00  0.00    +0.000 N 
ATOM      7  C   UNL     1      -2.154  13.725  22.622  0.00  0.00    +0.000 C 
ENDROOT
BRANCH   6   8
ATOM      8  C   UNL     1      -0.984  15.647  21.487  0.00  0.00    +0.000 A 
ATOM      9  C   UNL     1       0.347  15.591  21.887  0.00  0.00    +0.000 A 
ATOM     10  C   UNL     1       1.375  15.996  21.036  0.00  0.00    +0.000 A 
ATOM     11  C   UNL     1       1.075  16.459  19.737  0.00  0.00    +0.000 A 
ATOM     12  C   UNL     1      -0.270  16.496  19.306  0.00  0.00    +0.000 A 
ATOM     13  C   UNL     1      -1.283  16.107  20.198  0.00  0.00    +0.000 A 
BRANCH  10  14
ATOM     14  O   UNL     1       2.699  15.977  21.420  0.00  0.00    +0.000 OA
ATOM     15  C   UNL     1       3.039  16.821  22.518  0.00  0.00    +0.000 C 
ENDBRANCH  10  14
BRANCH  11  16
ATOM     16  O   UNL     1       2.168  16.894  19.022  0.00  0.00    +0.000 OA
ATOM     17  C   UNL     1       2.740  16.006  18.074  0.00  0.00    +0.000 C 
ENDBRANCH  11  16
BRANCH  12  18
ATOM     18  O   UNL     1      -0.529  16.927  18.030  0.00  0.00    +0.000 OA
ATOM     19  C   UNL     1      -0.996  18.259  17.849  0.00  0.00    +0.000 C 
ENDBRANCH  12  18
ENDBRANCH   6   8
BRANCH   7  20
ATOM     20  C   UNL     1      -2.001  12.847  21.369  0.00  0.00    +0.000 A 
ATOM     21  C   UNL     1      -2.908  12.945  20.301  0.00  0.00    +0.000 A 
ATOM     22  C   UNL     1      -2.821  12.063  19.215  0.00  0.00    +0.000 A 
ATOM     23  C   UNL     1      -1.829  11.080  19.171  0.00  0.00    +0.000 A 
ATOM     24  C   UNL     1      -0.914  10.993  20.212  0.00  0.00    +0.000 A 
ATOM     25  C   UNL     1      -0.979  11.891  21.278  0.00  0.00    +0.000 A 
BRANCH  23  26
ATOM     26  O   UNL     1      -1.866  10.241  18.091  0.00  0.00    +0.000 OA
ATOM     27  C   UNL     1      -2.359  10.818  16.884  0.00  0.00    +0.000 C 
ENDBRANCH  23  26
ENDBRANCH   7  20
BRANCH   1  29
ATOM     28  N   UNL     1      -5.518  12.382  22.611  0.00  0.00    +0.000 N 
ATOM     29  C   UNL     1      -4.699  13.488  22.639  0.00  0.00    +0.000 C 
ATOM     30  O   UNL     1      -5.002  14.532  22.060  0.00  0.00    +0.000 OA
ATOM     31  H   UNL     1      -5.124  11.474  22.839  0.00  0.00    +0.000 HD
BRANCH  28  32
ATOM     32  C   UNL     1      -6.738  12.410  21.806  0.00  0.00    +0.000 C 
ATOM     33  C   UNL     1      -7.916  11.888  22.620  0.00  0.00    +0.000 C 
BRANCH  32  35
ATOM     34  C   UNL     1      -6.602  12.521  19.256  0.00  0.00    +0.000 C 
ATOM     35  C   UNL     1      -6.516  11.644  20.493  0.00  0.00    +0.000 C 
ENDBRANCH  32  35
ENDBRANCH  28  32
ENDBRANCH   1  29
TORSDOF 9
ENDMDL
MODEL 9
REMARK VINA RESULT:      -5.1      2.775      6.550
REMARK  Name = 
REMARK  15 active torsions:
REMARK  status: ('A' for Active; 'I' for Inactive)
REMARK    1  A    between atoms: C_1  and  C_2
REMARK    2  A    between atoms: C_2  and  C_3
REMARK    3  A    between atoms: C_3  and  C_4
REMARK    4  A    between atoms: C_3  and  N_5
REMARK    5  A    between atoms: C_6  and  C_8
REMARK    6  A    between atoms: N_13  and  C_14
REMARK    7  A    between atoms: C_16  and  O_17
REMARK    8  A    between atoms: O_17  and  C_18
REMARK    9  A    between atoms: C_19  and  O_20
REMARK   10  A    between atoms: O_20  and  C_21
REMARK   11  A    between atoms: C_22  and  O_23
REMARK   12  A    between atoms: O_23  and  C_24
REMARK   13  A    between atoms: C_26  and  C_27
REMARK   14  A    between atoms: C_30  and  O_31
REMARK   15  A    between atoms: O_31  and  C_32
REMARK                            x       y       z     vdW  Elec       q    Type
REMARK                         _______ _______ _______ _____ _____    ______ ____
ROOT
ATOM      1  C   UNL     1      -1.333  15.539  21.231  0.00  0.00    +0.000 C 
ATOM      2  C   UNL     1      -1.800  16.863  20.630  0.00  0.00    +0.000 C 
ATOM      3  C   UNL     1      -3.217  17.224  21.045  0.00  0.00    +0.000 C 
ATOM      4  C   UNL     1      -4.215  16.082  21.095  0.00  0.00    +0.000 C 
ATOM      5  O   UNL     1      -5.414  16.382  21.185  0.00  0.00    +0.000 OA
ATOM      6  N   UNL     1      -3.745  14.775  21.028  0.00  0.00    +0.000 N 
ATOM      7  C   UNL     1      -2.309  14.446  20.766  0.00  0.00    +0.000 C 
ENDROOT
BRANCH   6   8
ATOM      8  C   UNL     1      -4.731  13.751  20.784  0.00  0.00    +0.000 A 
ATOM      9  C   UNL     1      -4.854  13.183  19.520  0.00  0.00    +0.000 A 
ATOM     10  C   UNL     1      -5.781  12.171  19.270  0.00  0.00    +0.000 A 
ATOM     11  C   UNL     1      -6.606  11.695  20.312  0.00  0.00    +0.000 A 
ATOM     12  C   UNL     1      -6.474  12.243  21.607  0.00  0.00    +0.000 A 
ATOM     13  C   UNL     1      -5.550  13.280  21.820  0.00  0.00    +0.000 A 
BRANCH  10  14
ATOM     14  O   UNL     1      -5.942  11.614  18.019  0.00  0.00    +0.000 OA
ATOM     15  C   UNL     1      -4.818  11.708  17.148  0.00  0.00    +0.000 C 
ENDBRANCH  10  14
BRANCH  11  16
ATOM     16  O   UNL     1      -7.526  10.748  19.921  0.00  0.00    +0.000 OA
ATOM     17  C   UNL     1      -7.216   9.384  20.157  0.00  0.00    +0.000 C 
ENDBRANCH  11  16
BRANCH  12  18
ATOM     18  O   UNL     1      -7.271  11.743  22.605  0.00  0.00    +0.000 OA
ATOM     19  C   UNL     1      -7.290  12.421  23.857  0.00  0.00    +0.000 C 
ENDBRANCH  12  18
ENDBRANCH   6   8
BRANCH   7  20
ATOM     20  C   UNL     1      -1.870  13.055  21.253  0.00  0.00    +0.000 A 
ATOM     21  C   UNL     1      -2.117  12.639  22.571  0.00  0.00    +0.000 A 
ATOM     22  C   UNL     1      -1.614  11.413  23.032  0.00  0.00    +0.000 A 
ATOM     23  C   UNL     1      -0.871  10.584  22.189  0.00  0.00    +0.000 A 
ATOM     24  C   UNL     1      -0.643  10.979  20.877  0.00  0.00    +0.000 A 
ATOM     25  C   UNL     1      -1.170  12.182  20.407  0.00  0.00    +0.000 A 
BRANCH  23  26
ATOM     26  O   UNL     1      -0.386   9.437  22.755  0.00  0.00    +0.000 OA
ATOM     27  C   UNL     1      -0.087   8.383  21.841  0.00  0.00    +0.000 C 
ENDBRANCH  23  26
ENDBRANCH   7  20
BRANCH   1  29
ATOM     28  N   UNL     1      -2.354  15.981  23.425  0.00  0.00    +0.000 N 
ATOM     29  C   UNL     1      -1.209  15.631  22.745  0.00  0.00    +0.000 C 
ATOM     30  O   UNL     1      -0.152  15.404  23.334  0.00  0.00    +0.000 OA
ATOM     31  H   UNL     1      -3.107  16.434  22.917  0.00  0.00    +0.000 HD
BRANCH  28  32
ATOM     32  C   UNL     1      -2.301  16.174  24.873  0.00  0.00    +0.000 C 
ATOM     33  C   UNL     1      -2.735  14.901  25.589  0.00  0.00    +0.000 C 
BRANCH  32  35
ATOM     34  C   UNL     1      -4.616  17.247  25.012  0.00  0.00    +0.000 C 
ATOM     35  C   UNL     1      -3.127  17.408  25.267  0.00  0.00    +0.000 C 
ENDBRANCH  32  35
ENDBRANCH  28  32
ENDBRANCH   1  29
TORSDOF 9
ENDMDL
