MODEL 1
REMARK VINA RESULT:      -7.6      0.000      0.000
REMARK  Name = 
REMARK  14 active torsions:
REMARK  status: ('A' for Active; 'I' for Inactive)
REMARK    1  A    between atoms: C_1  and  C_2
REMARK    2  A    between atoms: C_2  and  C_3
REMARK    3  A    between atoms: C_2  and  C_4
REMARK    4  A    between atoms: C_2  and  C_5
REMARK    5  A    between atoms: C_5  and  C_6
REMARK    6  A    between atoms: C_9  and  C_10
REMARK    7  A    between atoms: C_10  and  C_11
REMARK    8  A    between atoms: C_11  and  C_12
REMARK    9  A    between atoms: C_15  and  C_16
REMARK   10  A    between atoms: C_22  and  C_23
REMARK   11  A    between atoms: C_23  and  O_25
REMARK   12  A    between atoms: N_28  and  C_29
REMARK   13  A    between atoms: C_29  and  C_30
REMARK   14  A    between atoms: C_30  and  O_32
REMARK                            x       y       z     vdW  Elec       q    Type
REMARK                         _______ _______ _______ _____ _____    ______ ____
ROOT
ATOM      1  C   UNL     1       8.590   8.186  18.662  0.00  0.00    +0.000 C 
ENDROOT
BRANCH   1   2
ATOM      2  C   UNL     1       8.760   9.671  18.531  0.00  0.00    +0.000 A 
ATOM      3  C   UNL     1       8.057  10.367  17.546  0.00  0.00    +0.000 A 
ATOM      4  C   UNL     1       8.258  11.734  17.369  0.00  0.00    +0.000 A 
ATOM      5  C   UNL     1       9.200  12.438  18.131  0.00  0.00    +0.000 A 
ATOM      6  C   UNL     1       9.840  11.736  19.168  0.00  0.00    +0.000 A 
ATOM      7  C   UNL     1       9.615  10.372  19.378  0.00  0.00    +0.000 A 
BRANCH   5   8
ATOM      8  C   UNL     1       9.513  13.866  17.863  0.00  0.00    +0.000 A 
ATOM      9  C   UNL     1      10.773  14.182  17.299  0.00  0.00    +0.000 A 
ATOM     10  C   UNL     1      11.155  15.490  17.001  0.00  0.00    +0.000 A 
ATOM     11  C   UNL     1      10.297  16.538  17.298  0.00  0.00    +0.000 A 
ATOM     12  C   UNL     1       9.056  16.262  17.863  0.00  0.00    +0.000 A 
ATOM     13  F   UNL     1       8.265  17.301  18.165  0.00  0.00    +0.000 F 
ATOM     14  C   UNL     1       8.641  14.951  18.136  0.00  0.00    +0.000 A 
BRANCH  14  15
ATOM     15  C   UNL     1       7.246  14.781  18.634  0.00  0.00    +0.000 C 
ATOM     16  O   UNL     1       6.942  14.741  19.812  0.00  0.00    +0.000 OA
BRANCH  15  17
ATOM     17  O   UNL     1       6.310  14.724  17.656  0.00  0.00    +0.000 OA
ATOM     18  H   UNL     1       6.625  14.959  16.761  0.00  0.00    +0.000 HD
ENDBRANCH  15  17
ENDBRANCH  14  15
ENDBRANCH   5   8
ENDBRANCH   1   2
BRANCH   1  19
ATOM     19  C   UNL     1       7.752   7.584  17.518  0.00  0.00    +0.000 C 
BRANCH  19  23
ATOM     20  C   UNL     1       5.505   4.745  18.151  0.00  0.00    +0.000 A 
ATOM     21  C   UNL     1       6.166   4.944  19.345  0.00  0.00    +0.000 A 
ATOM     22  N   UNL     1       7.022   5.990  19.262  0.00  0.00    +0.000 NA
ATOM     23  C   UNL     1       6.921   6.457  18.037  0.00  0.00    +0.000 A 
ATOM     24  N   UNL     1       5.978   5.746  17.320  0.00  0.00    +0.000 N 
BRANCH  20  25
ATOM     25  C   UNL     1       4.535   3.667  17.787  0.00  0.00    +0.000 C 
BRANCH  25  27
ATOM     26  C   UNL     1       2.055   3.343  17.291  0.00  0.00    +0.000 C 
ATOM     27  C   UNL     1       3.083   3.859  18.311  0.00  0.00    +0.000 C 
ATOM     28  C   UNL     1       2.751   5.323  18.659  0.00  0.00    +0.000 C 
ATOM     29  C   UNL     1       2.950   3.037  19.609  0.00  0.00    +0.000 C 
ENDBRANCH  25  27
ENDBRANCH  20  25
BRANCH  24  30
ATOM     30  C   UNL     1       5.543   6.038  15.957  0.00  0.00    +0.000 C 
BRANCH  30  31
ATOM     31  C   UNL     1       6.147   5.194  14.865  0.00  0.00    +0.000 C 
ATOM     32  O   UNL     1       5.472   4.385  14.223  0.00  0.00    +0.000 OA
BRANCH  31  33
ATOM     33  O   UNL     1       7.459   5.350  14.599  0.00  0.00    +0.000 OA
ATOM     34  H   UNL     1       7.914   6.086  15.053  0.00  0.00    +0.000 HD
ENDBRANCH  31  33
ENDBRANCH  30  31
ENDBRANCH  24  30
ENDBRANCH  19  23
ENDBRANCH   1  19
TORSDOF 11
ENDMDL
MODEL 2
REMARK VINA RESULT:      -7.5      2.094      2.762
REMARK  Name = 
REMARK  14 active torsions:
REMARK  status: ('A' for Active; 'I' for Inactive)
REMARK    1  A    between atoms: C_1  and  C_2
REMARK    2  A    between atoms: C_2  and  C_3
REMARK    3  A    between atoms: C_2  and  C_4
REMARK    4  A    between atoms: C_2  and  C_5
REMARK    5  A    between atoms: C_5  and  C_6
REMARK    6  A    between atoms: C_9  and  C_10
REMARK    7  A    between atoms: C_10  and  C_11
REMARK    8  A    between atoms: C_11  and  C_12
REMARK    9  A    between atoms: C_15  and  C_16
REMARK   10  A    between atoms: C_22  and  C_23
REMARK   11  A    between atoms: C_23  and  O_25
REMARK   12  A    between atoms: N_28  and  C_29
REMARK   13  A    between atoms: C_29  and  C_30
REMARK   14  A    between atoms: C_30  and  O_32
REMARK                            x       y       z     vdW  Elec       q    Type
REMARK                         _______ _______ _______ _____ _____    ______ ____
ROOT
ATOM      1  C   UNL     1       7.473   8.045  17.450  0.00  0.00    +0.000 C 
ENDROOT
BRANCH   1   2
ATOM      2  C   UNL     1       8.189   9.266  17.947  0.00  0.00    +0.000 A 
ATOM      3  C   UNL     1       9.037   9.175  19.051  0.00  0.00    +0.000 A 
ATOM      4  C   UNL     1       9.654  10.314  19.564  0.00  0.00    +0.000 A 
ATOM      5  C   UNL     1       9.403  11.584  19.026  0.00  0.00    +0.000 A 
ATOM      6  C   UNL     1       8.607  11.644  17.868  0.00  0.00    +0.000 A 
ATOM      7  C   UNL     1       8.017  10.500  17.324  0.00  0.00    +0.000 A 
BRANCH   5   8
ATOM      8  C   UNL     1       9.953  12.818  19.646  0.00  0.00    +0.000 A 
ATOM      9  C   UNL     1       9.551  13.144  20.963  0.00  0.00    +0.000 A 
ATOM     10  C   UNL     1      10.019  14.273  21.634  0.00  0.00    +0.000 A 
ATOM     11  C   UNL     1      10.884  15.143  20.987  0.00  0.00    +0.000 A 
ATOM     12  C   UNL     1      11.290  14.858  19.688  0.00  0.00    +0.000 A 
ATOM     13  F   UNL     1      12.102  15.736  19.082  0.00  0.00    +0.000 F 
ATOM     14  C   UNL     1      10.857  13.708  19.011  0.00  0.00    +0.000 A 
BRANCH  14  15
ATOM     15  C   UNL     1      11.454  13.457  17.668  0.00  0.00    +0.000 C 
ATOM     16  O   UNL     1      11.232  14.138  16.684  0.00  0.00    +0.000 OA
BRANCH  15  17
ATOM     17  O   UNL     1      12.326  12.419  17.633  0.00  0.00    +0.000 OA
ATOM     18  H   UNL     1      11.946  11.562  17.358  0.00  0.00    +0.000 HD
ENDBRANCH  15  17
ENDBRANCH  14  15
ENDBRANCH   5   8
ENDBRANCH   1   2
BRANCH   1  19
ATOM     19  C   UNL     1       7.955   6.756  18.143  0.00  0.00    +0.000 C 
BRANCH  19  23
ATOM     20  C   UNL     1       4.929   4.691  18.450  0.00  0.00    +0.000 A 
ATOM     21  C   UNL     1       5.471   4.712  19.717  0.00  0.00    +0.000 A 
ATOM     22  N   UNL     1       6.595   5.467  19.757  0.00  0.00    +0.000 NA
ATOM     23  C   UNL     1       6.780   5.923  18.538  0.00  0.00    +0.000 A 
ATOM     24  N   UNL     1       5.766   5.501  17.700  0.00  0.00    +0.000 N 
BRANCH  20  25
ATOM     25  C   UNL     1       3.741   3.931  17.952  0.00  0.00    +0.000 C 
BRANCH  25  27
ATOM     26  C   UNL     1       2.360   6.048  18.286  0.00  0.00    +0.000 C 
ATOM     27  C   UNL     1       2.353   4.513  18.345  0.00  0.00    +0.000 C 
ATOM     28  C   UNL     1       1.882   4.067  19.743  0.00  0.00    +0.000 C 
ATOM     29  C   UNL     1       1.327   3.981  17.324  0.00  0.00    +0.000 C 
ENDBRANCH  25  27
ENDBRANCH  20  25
BRANCH  24  30
ATOM     30  C   UNL     1       5.599   5.883  16.300  0.00  0.00    +0.000 C 
BRANCH  30  31
ATOM     31  C   UNL     1       6.296   5.020  15.282  0.00  0.00    +0.000 C 
ATOM     32  O   UNL     1       6.234   3.788  15.325  0.00  0.00    +0.000 OA
BRANCH  31  33
ATOM     33  O   UNL     1       6.996   5.633  14.307  0.00  0.00    +0.000 OA
ATOM     34  H   UNL     1       7.334   6.528  14.506  0.00  0.00    +0.000 HD
ENDBRANCH  31  33
ENDBRANCH  30  31
ENDBRANCH  24  30
ENDBRANCH  19  23
ENDBRANCH   1  19
TORSDOF 11
ENDMDL
MODEL 3
REMARK VINA RESULT:      -7.5      1.423      1.710
REMARK  Name = 
REMARK  14 active torsions:
REMARK  status: ('A' for Active; 'I' for Inactive)
REMARK    1  A    between atoms: C_1  and  C_2
REMARK    2  A    between atoms: C_2  and  C_3
REMARK    3  A    between atoms: C_2  and  C_4
REMARK    4  A    between atoms: C_2  and  C_5
REMARK    5  A    between atoms: C_5  and  C_6
REMARK    6  A    between atoms: C_9  and  C_10
REMARK    7  A    between atoms: C_10  and  C_11
REMARK    8  A    between atoms: C_11  and  C_12
REMARK    9  A    between atoms: C_15  and  C_16
REMARK   10  A    between atoms: C_22  and  C_23
REMARK   11  A    between atoms: C_23  and  O_25
REMARK   12  A    between atoms: N_28  and  C_29
REMARK   13  A    between atoms: C_29  and  C_30
REMARK   14  A    between atoms: C_30  and  O_32
REMARK                            x       y       z     vdW  Elec       q    Type
REMARK                         _______ _______ _______ _____ _____    ______ ____
ROOT
ATOM      1  C   UNL     1       8.046   7.891  18.347  0.00  0.00    +0.000 C 
ENDROOT
BRANCH   1   2
ATOM      2  C   UNL     1       8.470   9.328  18.425  0.00  0.00    +0.000 A 
ATOM      3  C   UNL     1       7.959  10.255  17.516  0.00  0.00    +0.000 A 
ATOM      4  C   UNL     1       8.396  11.578  17.535  0.00  0.00    +0.000 A 
ATOM      5  C   UNL     1       9.393  12.004  18.423  0.00  0.00    +0.000 A 
ATOM      6  C   UNL     1       9.838  11.075  19.381  0.00  0.00    +0.000 A 
ATOM      7  C   UNL     1       9.374   9.756  19.394  0.00  0.00    +0.000 A 
BRANCH   5   8
ATOM      8  C   UNL     1       9.957  13.378  18.365  0.00  0.00    +0.000 A 
ATOM      9  C   UNL     1      10.816  13.704  17.288  0.00  0.00    +0.000 A 
ATOM     10  C   UNL     1      11.386  14.969  17.139  0.00  0.00    +0.000 A 
ATOM     11  C   UNL     1      11.145  15.944  18.094  0.00  0.00    +0.000 A 
ATOM     12  C   UNL     1      10.315  15.652  19.171  0.00  0.00    +0.000 A 
ATOM     13  F   UNL     1      10.129  16.608  20.092  0.00  0.00    +0.000 F 
ATOM     14  C   UNL     1       9.705  14.398  19.318  0.00  0.00    +0.000 A 
BRANCH  14  15
ATOM     15  C   UNL     1       8.748  14.247  20.451  0.00  0.00    +0.000 C 
ATOM     16  O   UNL     1       7.545  14.397  20.352  0.00  0.00    +0.000 OA
BRANCH  15  17
ATOM     17  O   UNL     1       9.325  13.869  21.618  0.00  0.00    +0.000 OA
ATOM     18  H   UNL     1      10.301  13.830  21.609  0.00  0.00    +0.000 HD
ENDBRANCH  15  17
ENDBRANCH  14  15
ENDBRANCH   5   8
ENDBRANCH   1   2
BRANCH   1  19
ATOM     19  C   UNL     1       7.540   7.501  16.945  0.00  0.00    +0.000 C 
BRANCH  19  23
ATOM     20  C   UNL     1       4.675   5.201  17.057  0.00  0.00    +0.000 A 
ATOM     21  C   UNL     1       4.186   6.396  17.539  0.00  0.00    +0.000 A 
ATOM     22  N   UNL     1       5.141   7.355  17.532  0.00  0.00    +0.000 NA
ATOM     23  C   UNL     1       6.231   6.791  17.058  0.00  0.00    +0.000 A 
ATOM     24  N   UNL     1       5.990   5.472  16.721  0.00  0.00    +0.000 N 
BRANCH  20  25
ATOM     25  C   UNL     1       3.984   3.878  16.959  0.00  0.00    +0.000 C 
BRANCH  25  27
ATOM     26  C   UNL     1       3.451   1.701  18.175  0.00  0.00    +0.000 C 
ATOM     27  C   UNL     1       3.575   3.227  18.311  0.00  0.00    +0.000 C 
ATOM     28  C   UNL     1       2.257   3.788  18.881  0.00  0.00    +0.000 C 
ATOM     29  C   UNL     1       4.688   3.546  19.330  0.00  0.00    +0.000 C 
ENDBRANCH  25  27
ENDBRANCH  20  25
BRANCH  24  30
ATOM     30  C   UNL     1       6.944   4.565  16.090  0.00  0.00    +0.000 C 
BRANCH  30  31
ATOM     31  C   UNL     1       7.009   4.602  14.585  0.00  0.00    +0.000 C 
ATOM     32  O   UNL     1       6.342   3.834  13.889  0.00  0.00    +0.000 OA
BRANCH  31  33
ATOM     33  O   UNL     1       7.821   5.512  14.011  0.00  0.00    +0.000 OA
ATOM     34  H   UNL     1       7.529   6.443  14.044  0.00  0.00    +0.000 HD
ENDBRANCH  31  33
ENDBRANCH  30  31
ENDBRANCH  24  30
ENDBRANCH  19  23
ENDBRANCH   1  19
TORSDOF 11
ENDMDL
MODEL 4
REMARK VINA RESULT:      -7.4      7.462     11.362
REMARK  Name = 
REMARK  14 active torsions:
REMARK  status: ('A' for Active; 'I' for Inactive)
REMARK    1  A    between atoms: C_1  and  C_2
REMARK    2  A    between atoms: C_2  and  C_3
REMARK    3  A    between atoms: C_2  and  C_4
REMARK    4  A    between atoms: C_2  and  C_5
REMARK    5  A    between atoms: C_5  and  C_6
REMARK    6  A    between atoms: C_9  and  C_10
REMARK    7  A    between atoms: C_10  and  C_11
REMARK    8  A    between atoms: C_11  and  C_12
REMARK    9  A    between atoms: C_15  and  C_16
REMARK   10  A    between atoms: C_22  and  C_23
REMARK   11  A    between atoms: C_23  and  O_25
REMARK   12  A    between atoms: N_28  and  C_29
REMARK   13  A    between atoms: C_29  and  C_30
REMARK   14  A    between atoms: C_30  and  O_32
REMARK                            x       y       z     vdW  Elec       q    Type
REMARK                         _______ _______ _______ _____ _____    ______ ____
ROOT
ATOM      1  C   UNL     1       0.114  10.377  19.475  0.00  0.00    +0.000 C 
ENDROOT
BRANCH   1   2
ATOM      2  C   UNL     1       1.107   9.309  19.122  0.00  0.00    +0.000 A 
ATOM      3  C   UNL     1       1.647   9.258  17.836  0.00  0.00    +0.000 A 
ATOM      4  C   UNL     1       2.517   8.231  17.477  0.00  0.00    +0.000 A 
ATOM      5  C   UNL     1       2.833   7.196  18.368  0.00  0.00    +0.000 A 
ATOM      6  C   UNL     1       2.340   7.308  19.681  0.00  0.00    +0.000 A 
ATOM      7  C   UNL     1       1.499   8.357  20.061  0.00  0.00    +0.000 A 
BRANCH   5   8
ATOM      8  C   UNL     1       3.655   6.030  17.952  0.00  0.00    +0.000 A 
ATOM      9  C   UNL     1       5.019   6.248  17.644  0.00  0.00    +0.000 A 
ATOM     10  C   UNL     1       5.875   5.217  17.255  0.00  0.00    +0.000 A 
ATOM     11  C   UNL     1       5.379   3.929  17.123  0.00  0.00    +0.000 A 
ATOM     12  C   UNL     1       4.040   3.684  17.407  0.00  0.00    +0.000 A 
ATOM     13  F   UNL     1       3.587   2.433  17.240  0.00  0.00    +0.000 F 
ATOM     14  C   UNL     1       3.174   4.701  17.834  0.00  0.00    +0.000 A 
BRANCH  14  15
ATOM     15  C   UNL     1       1.793   4.288  18.217  0.00  0.00    +0.000 C 
ATOM     16  O   UNL     1       1.455   4.009  19.353  0.00  0.00    +0.000 OA
BRANCH  15  17
ATOM     17  O   UNL     1       0.906   4.297  17.193  0.00  0.00    +0.000 OA
ATOM     18  H   UNL     1       0.177   4.942  17.276  0.00  0.00    +0.000 HD
ENDBRANCH  15  17
ENDBRANCH  14  15
ENDBRANCH   5   8
ENDBRANCH   1   2
BRANCH   1  19
ATOM     19  C   UNL     1       0.708  11.448  20.410  0.00  0.00    +0.000 C 
BRANCH  19  23
ATOM     20  C   UNL     1      -1.527  12.607  23.088  0.00  0.00    +0.000 A 
ATOM     21  C   UNL     1      -1.496  11.236  23.224  0.00  0.00    +0.000 A 
ATOM     22  N   UNL     1      -0.680  10.671  22.304  0.00  0.00    +0.000 NA
ATOM     23  C   UNL     1      -0.195  11.656  21.581  0.00  0.00    +0.000 A 
ATOM     24  N   UNL     1      -0.661  12.873  22.041  0.00  0.00    +0.000 N 
BRANCH  20  25
ATOM     25  C   UNL     1      -2.345  13.605  23.845  0.00  0.00    +0.000 C 
BRANCH  25  27
ATOM     26  C   UNL     1      -4.586  14.820  23.899  0.00  0.00    +0.000 C 
ATOM     27  C   UNL     1      -3.887  13.466  23.698  0.00  0.00    +0.000 C 
ATOM     28  C   UNL     1      -4.499  12.437  24.670  0.00  0.00    +0.000 C 
ATOM     29  C   UNL     1      -4.170  12.968  22.266  0.00  0.00    +0.000 C 
ENDBRANCH  25  27
ENDBRANCH  20  25
BRANCH  24  30
ATOM     30  C   UNL     1      -0.267  14.185  21.535  0.00  0.00    +0.000 C 
BRANCH  30  31
ATOM     31  C   UNL     1       0.825  14.895  22.292  0.00  0.00    +0.000 C 
ATOM     32  O   UNL     1       0.577  15.812  23.079  0.00  0.00    +0.000 OA
BRANCH  31  33
ATOM     33  O   UNL     1       2.096  14.495  22.090  0.00  0.00    +0.000 OA
ATOM     34  H   UNL     1       2.337  14.243  21.178  0.00  0.00    +0.000 HD
ENDBRANCH  31  33
ENDBRANCH  30  31
ENDBRANCH  24  30
ENDBRANCH  19  23
ENDBRANCH   1  19
TORSDOF 11
ENDMDL
MODEL 5
REMARK VINA RESULT:      -7.3      7.592     11.476
REMARK  Name = 
REMARK  14 active torsions:
REMARK  status: ('A' for Active; 'I' for Inactive)
REMARK    1  A    between atoms: C_1  and  C_2
REMARK    2  A    between atoms: C_2  and  C_3
REMARK    3  A    between atoms: C_2  and  C_4
REMARK    4  A    between atoms: C_2  and  C_5
REMARK    5  A    between atoms: C_5  and  C_6
REMARK    6  A    between atoms: C_9  and  C_10
REMARK    7  A    between atoms: C_10  and  C_11
REMARK    8  A    between atoms: C_11  and  C_12
REMARK    9  A    between atoms: C_15  and  C_16
REMARK   10  A    between atoms: C_22  and  C_23
REMARK   11  A    between atoms: C_23  and  O_25
REMARK   12  A    between atoms: N_28  and  C_29
REMARK   13  A    between atoms: C_29  and  C_30
REMARK   14  A    between atoms: C_30  and  O_32
REMARK                            x       y       z     vdW  Elec       q    Type
REMARK                         _______ _______ _______ _____ _____    ______ ____
ROOT
ATOM      1  C   UNL     1       0.490  10.774  18.996  0.00  0.00    +0.000 C 
ENDROOT
BRANCH   1   2
ATOM      2  C   UNL     1       1.176   9.442  18.910  0.00  0.00    +0.000 A 
ATOM      3  C   UNL     1       1.267   8.632  20.042  0.00  0.00    +0.000 A 
ATOM      4  C   UNL     1       1.961   7.425  19.992  0.00  0.00    +0.000 A 
ATOM      5  C   UNL     1       2.629   7.015  18.831  0.00  0.00    +0.000 A 
ATOM      6  C   UNL     1       2.461   7.807  17.680  0.00  0.00    +0.000 A 
ATOM      7  C   UNL     1       1.732   9.000  17.712  0.00  0.00    +0.000 A 
BRANCH   5   8
ATOM      8  C   UNL     1       3.478   5.795  18.806  0.00  0.00    +0.000 A 
ATOM      9  C   UNL     1       4.867   5.940  19.034  0.00  0.00    +0.000 A 
ATOM     10  C   UNL     1       5.744   4.855  19.042  0.00  0.00    +0.000 A 
ATOM     11  C   UNL     1       5.261   3.582  18.779  0.00  0.00    +0.000 A 
ATOM     12  C   UNL     1       3.902   3.407  18.539  0.00  0.00    +0.000 A 
ATOM     13  F   UNL     1       3.473   2.168  18.259  0.00  0.00    +0.000 F 
ATOM     14  C   UNL     1       3.000   4.481  18.563  0.00  0.00    +0.000 A 
BRANCH  14  15
ATOM     15  C   UNL     1       1.556   4.146  18.405  0.00  0.00    +0.000 C 
ATOM     16  O   UNL     1       0.984   4.077  17.333  0.00  0.00    +0.000 OA
BRANCH  15  17
ATOM     17  O   UNL     1       0.920   3.866  19.570  0.00  0.00    +0.000 OA
ATOM     18  H   UNL     1       1.312   4.270  20.368  0.00  0.00    +0.000 HD
ENDBRANCH  15  17
ENDBRANCH  14  15
ENDBRANCH   5   8
ENDBRANCH   1   2
BRANCH   1  19
ATOM     19  C   UNL     1      -0.735  10.747  19.931  0.00  0.00    +0.000 C 
BRANCH  19  23
ATOM     20  C   UNL     1      -0.998  13.493  22.360  0.00  0.00    +0.000 A 
ATOM     21  C   UNL     1      -0.690  14.108  21.165  0.00  0.00    +0.000 A 
ATOM     22  N   UNL     1      -0.584  13.205  20.162  0.00  0.00    +0.000 NA
ATOM     23  C   UNL     1      -0.815  12.026  20.697  0.00  0.00    +0.000 A 
ATOM     24  N   UNL     1      -1.106  12.149  22.043  0.00  0.00    +0.000 N 
BRANCH  20  25
ATOM     25  C   UNL     1      -1.135  14.102  23.718  0.00  0.00    +0.000 C 
BRANCH  25  27
ATOM     26  C   UNL     1      -2.392  16.284  23.317  0.00  0.00    +0.000 C 
ATOM     27  C   UNL     1      -2.448  14.896  23.974  0.00  0.00    +0.000 C 
ATOM     28  C   UNL     1      -2.774  15.063  25.472  0.00  0.00    +0.000 C 
ATOM     29  C   UNL     1      -3.602  14.092  23.341  0.00  0.00    +0.000 C 
ENDBRANCH  25  27
ENDBRANCH  20  25
BRANCH  24  30
ATOM     30  C   UNL     1      -1.496  11.062  22.935  0.00  0.00    +0.000 C 
BRANCH  30  31
ATOM     31  C   UNL     1      -0.522   9.921  23.067  0.00  0.00    +0.000 C 
ATOM     32  O   UNL     1       0.690  10.115  23.191  0.00  0.00    +0.000 OA
BRANCH  31  33
ATOM     33  O   UNL     1      -1.013   8.666  23.052  0.00  0.00    +0.000 OA
ATOM     34  H   UNL     1      -0.402   7.953  23.320  0.00  0.00    +0.000 HD
ENDBRANCH  31  33
ENDBRANCH  30  31
ENDBRANCH  24  30
ENDBRANCH  19  23
ENDBRANCH   1  19
TORSDOF 11
ENDMDL
MODEL 6
REMARK VINA RESULT:      -7.3      4.055     10.296
REMARK  Name = 
REMARK  14 active torsions:
REMARK  status: ('A' for Active; 'I' for Inactive)
REMARK    1  A    between atoms: C_1  and  C_2
REMARK    2  A    between atoms: C_2  and  C_3
REMARK    3  A    between atoms: C_2  and  C_4
REMARK    4  A    between atoms: C_2  and  C_5
REMARK    5  A    between atoms: C_5  and  C_6
REMARK    6  A    between atoms: C_9  and  C_10
REMARK    7  A    between atoms: C_10  and  C_11
REMARK    8  A    between atoms: C_11  and  C_12
REMARK    9  A    between atoms: C_15  and  C_16
REMARK   10  A    between atoms: C_22  and  C_23
REMARK   11  A    between atoms: C_23  and  O_25
REMARK   12  A    between atoms: N_28  and  C_29
REMARK   13  A    between atoms: C_29  and  C_30
REMARK   14  A    between atoms: C_30  and  O_32
REMARK                            x       y       z     vdW  Elec       q    Type
REMARK                         _______ _______ _______ _____ _____    ______ ____
ROOT
ATOM      1  C   UNL     1       8.208   7.878  17.487  0.00  0.00    +0.000 C 
ENDROOT
BRANCH   1   2
ATOM      2  C   UNL     1       7.016   7.014  17.779  0.00  0.00    +0.000 A 
ATOM      3  C   UNL     1       7.095   6.029  18.764  0.00  0.00    +0.000 A 
ATOM      4  C   UNL     1       6.018   5.176  18.997  0.00  0.00    +0.000 A 
ATOM      5  C   UNL     1       4.853   5.243  18.221  0.00  0.00    +0.000 A 
ATOM      6  C   UNL     1       4.764   6.292  17.287  0.00  0.00    +0.000 A 
ATOM      7  C   UNL     1       5.825   7.177  17.076  0.00  0.00    +0.000 A 
BRANCH   5   8
ATOM      8  C   UNL     1       3.753   4.256  18.376  0.00  0.00    +0.000 A 
ATOM      9  C   UNL     1       3.857   3.024  17.687  0.00  0.00    +0.000 A 
ATOM     10  C   UNL     1       2.882   2.030  17.777  0.00  0.00    +0.000 A 
ATOM     11  C   UNL     1       1.743   2.254  18.534  0.00  0.00    +0.000 A 
ATOM     12  C   UNL     1       1.604   3.460  19.213  0.00  0.00    +0.000 A 
ATOM     13  F   UNL     1       0.476   3.657  19.910  0.00  0.00    +0.000 F 
ATOM     14  C   UNL     1       2.590   4.457  19.164  0.00  0.00    +0.000 A 
BRANCH  14  15
ATOM     15  C   UNL     1       2.377   5.653  20.027  0.00  0.00    +0.000 C 
ATOM     16  O   UNL     1       2.125   6.765  19.601  0.00  0.00    +0.000 OA
BRANCH  15  17
ATOM     17  O   UNL     1       2.433   5.396  21.356  0.00  0.00    +0.000 OA
ATOM     18  H   UNL     1       1.764   4.766  21.689  0.00  0.00    +0.000 HD
ENDBRANCH  15  17
ENDBRANCH  14  15
ENDBRANCH   5   8
ENDBRANCH   1   2
BRANCH   1  19
ATOM     19  C   UNL     1       8.567   8.805  18.665  0.00  0.00    +0.000 C 
BRANCH  19  23
ATOM     20  C   UNL     1       8.937  12.379  17.893  0.00  0.00    +0.000 A 
ATOM     21  C   UNL     1       7.788  11.995  17.236  0.00  0.00    +0.000 A 
ATOM     22  N   UNL     1       7.513  10.687  17.454  0.00  0.00    +0.000 NA
ATOM     23  C   UNL     1       8.469  10.231  18.235  0.00  0.00    +0.000 A 
ATOM     24  N   UNL     1       9.355  11.241  18.560  0.00  0.00    +0.000 N 
BRANCH  20  25
ATOM     25  C   UNL     1       9.632  13.703  17.866  0.00  0.00    +0.000 C 
BRANCH  25  27
ATOM     26  C   UNL     1      10.095  15.819  19.211  0.00  0.00    +0.000 C 
ATOM     27  C   UNL     1       9.024  14.806  18.780  0.00  0.00    +0.000 C 
ATOM     28  C   UNL     1       8.334  14.240  20.036  0.00  0.00    +0.000 C 
ATOM     29  C   UNL     1       7.947  15.542  17.957  0.00  0.00    +0.000 C 
ENDBRANCH  25  27
ENDBRANCH  20  25
BRANCH  24  30
ATOM     30  C   UNL     1      10.488  11.121  19.473  0.00  0.00    +0.000 C 
BRANCH  30  31
ATOM     31  C   UNL     1      11.765  11.798  19.050  0.00  0.00    +0.000 C 
ATOM     32  O   UNL     1      12.289  12.679  19.736  0.00  0.00    +0.000 OA
BRANCH  31  33
ATOM     33  O   UNL     1      12.332  11.408  17.891  0.00  0.00    +0.000 OA
ATOM     34  H   UNL     1      12.203  10.475  17.632  0.00  0.00    +0.000 HD
ENDBRANCH  31  33
ENDBRANCH  30  31
ENDBRANCH  24  30
ENDBRANCH  19  23
ENDBRANCH   1  19
TORSDOF 11
ENDMDL
MODEL 7
REMARK VINA RESULT:      -7.3      7.663     11.540
REMARK  Name = 
REMARK  14 active torsions:
REMARK  status: ('A' for Active; 'I' for Inactive)
REMARK    1  A    between atoms: C_1  and  C_2
REMARK    2  A    between atoms: C_2  and  C_3
REMARK    3  A    between atoms: C_2  and  C_4
REMARK    4  A    between atoms: C_2  and  C_5
REMARK    5  A    between atoms: C_5  and  C_6
REMARK    6  A    between atoms: C_9  and  C_10
REMARK    7  A    between atoms: C_10  and  C_11
REMARK    8  A    between atoms: C_11  and  C_12
REMARK    9  A    between atoms: C_15  and  C_16
REMARK   10  A    between atoms: C_22  and  C_23
REMARK   11  A    between atoms: C_23  and  O_25
REMARK   12  A    between atoms: N_28  and  C_29
REMARK   13  A    between atoms: C_29  and  C_30
REMARK   14  A    between atoms: C_30  and  O_32
REMARK                            x       y       z     vdW  Elec       q    Type
REMARK                         _______ _______ _______ _____ _____    ______ ____
ROOT
ATOM      1  C   UNL     1       1.134  10.600  18.685  0.00  0.00    +0.000 C 
ENDROOT
BRANCH   1   2
ATOM      2  C   UNL     1       1.522   9.196  19.046  0.00  0.00    +0.000 A 
ATOM      3  C   UNL     1       2.036   8.343  18.068  0.00  0.00    +0.000 A 
ATOM      4  C   UNL     1       2.336   7.018  18.375  0.00  0.00    +0.000 A 
ATOM      5  C   UNL     1       2.084   6.488  19.648  0.00  0.00    +0.000 A 
ATOM      6  C   UNL     1       1.639   7.383  20.639  0.00  0.00    +0.000 A 
ATOM      7  C   UNL     1       1.374   8.724  20.348  0.00  0.00    +0.000 A 
BRANCH   5   8
ATOM      8  C   UNL     1       2.279   5.046  19.948  0.00  0.00    +0.000 A 
ATOM      9  C   UNL     1       1.196   4.324  20.503  0.00  0.00    +0.000 A 
ATOM     10  C   UNL     1       1.277   2.965  20.809  0.00  0.00    +0.000 A 
ATOM     11  C   UNL     1       2.469   2.288  20.604  0.00  0.00    +0.000 A 
ATOM     12  C   UNL     1       3.557   2.971  20.070  0.00  0.00    +0.000 A 
ATOM     13  F   UNL     1       4.703   2.293  19.914  0.00  0.00    +0.000 F 
ATOM     14  C   UNL     1       3.483   4.328  19.724  0.00  0.00    +0.000 A 
BRANCH  14  15
ATOM     15  C   UNL     1       4.679   4.915  19.055  0.00  0.00    +0.000 C 
ATOM     16  O   UNL     1       5.584   5.476  19.644  0.00  0.00    +0.000 OA
BRANCH  15  17
ATOM     17  O   UNL     1       4.712   4.728  17.713  0.00  0.00    +0.000 OA
ATOM     18  H   UNL     1       5.276   3.991  17.407  0.00  0.00    +0.000 HD
ENDBRANCH  15  17
ENDBRANCH  14  15
ENDBRANCH   5   8
ENDBRANCH   1   2
BRANCH   1  19
ATOM     19  C   UNL     1      -0.293  10.688  18.109  0.00  0.00    +0.000 C 
BRANCH  19  23
ATOM     20  C   UNL     1      -2.815  12.683  19.889  0.00  0.00    +0.000 A 
ATOM     21  C   UNL     1      -1.605  13.216  20.278  0.00  0.00    +0.000 A 
ATOM     22  N   UNL     1      -0.573  12.583  19.673  0.00  0.00    +0.000 NA
ATOM     23  C   UNL     1      -1.103  11.654  18.908  0.00  0.00    +0.000 A 
ATOM     24  N   UNL     1      -2.483  11.692  18.980  0.00  0.00    +0.000 N 
BRANCH  20  25
ATOM     25  C   UNL     1      -4.189  13.033  20.364  0.00  0.00    +0.000 C 
BRANCH  25  27
ATOM     26  C   UNL     1      -4.074  14.771  22.226  0.00  0.00    +0.000 C 
ATOM     27  C   UNL     1      -4.331  13.294  21.891  0.00  0.00    +0.000 C 
ATOM     28  C   UNL     1      -3.396  12.416  22.746  0.00  0.00    +0.000 C 
ATOM     29  C   UNL     1      -5.780  12.939  22.284  0.00  0.00    +0.000 C 
ENDBRANCH  25  27
ENDBRANCH  20  25
BRANCH  24  30
ATOM     30  C   UNL     1      -3.401  10.866  18.203  0.00  0.00    +0.000 C 
BRANCH  30  31
ATOM     31  C   UNL     1      -3.969  11.487  16.953  0.00  0.00    +0.000 C 
ATOM     32  O   UNL     1      -5.079  12.024  16.944  0.00  0.00    +0.000 OA
BRANCH  31  33
ATOM     33  O   UNL     1      -3.222  11.447  15.832  0.00  0.00    +0.000 OA
ATOM     34  H   UNL     1      -2.396  11.970  15.837  0.00  0.00    +0.000 HD
ENDBRANCH  31  33
ENDBRANCH  30  31
ENDBRANCH  24  30
ENDBRANCH  19  23
ENDBRANCH   1  19
TORSDOF 11
ENDMDL
MODEL 8
REMARK VINA RESULT:      -7.2      6.130      9.865
REMARK  Name = 
REMARK  14 active torsions:
REMARK  status: ('A' for Active; 'I' for Inactive)
REMARK    1  A    between atoms: C_1  and  C_2
REMARK    2  A    between atoms: C_2  and  C_3
REMARK    3  A    between atoms: C_2  and  C_4
REMARK    4  A    between atoms: C_2  and  C_5
REMARK    5  A    between atoms: C_5  and  C_6
REMARK    6  A    between atoms: C_9  and  C_10
REMARK    7  A    between atoms: C_10  and  C_11
REMARK    8  A    between atoms: C_11  and  C_12
REMARK    9  A    between atoms: C_15  and  C_16
REMARK   10  A    between atoms: C_22  and  C_23
REMARK   11  A    between atoms: C_23  and  O_25
REMARK   12  A    between atoms: N_28  and  C_29
REMARK   13  A    between atoms: C_29  and  C_30
REMARK   14  A    between atoms: C_30  and  O_32
REMARK                            x       y       z     vdW  Elec       q    Type
REMARK                         _______ _______ _______ _____ _____    ______ ____
ROOT
ATOM      1  C   UNL     1       0.945   8.013  21.213  0.00  0.00    +0.000 C 
ENDROOT
BRANCH   1   2
ATOM      2  C   UNL     1       1.858   7.353  20.221  0.00  0.00    +0.000 A 
ATOM      3  C   UNL     1       2.484   6.149  20.545  0.00  0.00    +0.000 A 
ATOM      4  C   UNL     1       3.386   5.562  19.659  0.00  0.00    +0.000 A 
ATOM      5  C   UNL     1       3.731   6.182  18.451  0.00  0.00    +0.000 A 
ATOM      6  C   UNL     1       3.031   7.354  18.109  0.00  0.00    +0.000 A 
ATOM      7  C   UNL     1       2.095   7.928  18.975  0.00  0.00    +0.000 A 
BRANCH   5   8
ATOM      8  C   UNL     1       4.786   5.630  17.562  0.00  0.00    +0.000 A 
ATOM      9  C   UNL     1       5.920   6.432  17.289  0.00  0.00    +0.000 A 
ATOM     10  C   UNL     1       6.968   5.999  16.476  0.00  0.00    +0.000 A 
ATOM     11  C   UNL     1       6.895   4.753  15.872  0.00  0.00    +0.000 A 
ATOM     12  C   UNL     1       5.787   3.945  16.109  0.00  0.00    +0.000 A 
ATOM     13  F   UNL     1       5.735   2.761  15.485  0.00  0.00    +0.000 F 
ATOM     14  C   UNL     1       4.742   4.350  16.952  0.00  0.00    +0.000 A 
BRANCH  14  15
ATOM     15  C   UNL     1       3.670   3.348  17.216  0.00  0.00    +0.000 C 
ATOM     16  O   UNL     1       2.545   3.415  16.756  0.00  0.00    +0.000 OA
BRANCH  15  17
ATOM     17  O   UNL     1       4.063   2.302  17.984  0.00  0.00    +0.000 OA
ATOM     18  H   UNL     1       3.485   1.516  17.947  0.00  0.00    +0.000 HD
ENDBRANCH  15  17
ENDBRANCH  14  15
ENDBRANCH   5   8
ENDBRANCH   1   2
BRANCH   1  19
ATOM     19  C   UNL     1       1.276   9.503  21.418  0.00  0.00    +0.000 C 
BRANCH  19  23
ATOM     20  C   UNL     1      -1.179  11.476  19.523  0.00  0.00    +0.000 A 
ATOM     21  C   UNL     1      -1.686  11.419  20.803  0.00  0.00    +0.000 A 
ATOM     22  N   UNL     1      -0.860  10.732  21.627  0.00  0.00    +0.000 NA
ATOM     23  C   UNL     1       0.161  10.347  20.894  0.00  0.00    +0.000 A 
ATOM     24  N   UNL     1       0.030  10.805  19.596  0.00  0.00    +0.000 N 
BRANCH  20  25
ATOM     25  C   UNL     1      -1.796  12.070  18.297  0.00  0.00    +0.000 C 
BRANCH  25  27
ATOM     26  C   UNL     1      -4.286  11.587  18.031  0.00  0.00    +0.000 C 
ATOM     27  C   UNL     1      -2.868  11.195  17.587  0.00  0.00    +0.000 C 
ATOM     28  C   UNL     1      -2.670   9.684  17.820  0.00  0.00    +0.000 C 
ATOM     29  C   UNL     1      -2.736  11.446  16.071  0.00  0.00    +0.000 C 
ENDBRANCH  25  27
ENDBRANCH  20  25
BRANCH  24  30
ATOM     30  C   UNL     1       1.013  10.641  18.529  0.00  0.00    +0.000 C 
BRANCH  30  31
ATOM     31  C   UNL     1       1.992  11.770  18.340  0.00  0.00    +0.000 C 
ATOM     32  O   UNL     1       2.205  12.599  19.229  0.00  0.00    +0.000 OA
BRANCH  31  33
ATOM     33  O   UNL     1       2.642  11.852  17.162  0.00  0.00    +0.000 OA
ATOM     34  H   UNL     1       2.700  12.738  16.754  0.00  0.00    +0.000 HD
ENDBRANCH  31  33
ENDBRANCH  30  31
ENDBRANCH  24  30
ENDBRANCH  19  23
ENDBRANCH   1  19
TORSDOF 11
ENDMDL
MODEL 9
REMARK VINA RESULT:      -7.2      6.937     10.648
REMARK  Name = 
REMARK  14 active torsions:
REMARK  status: ('A' for Active; 'I' for Inactive)
REMARK    1  A    between atoms: C_1  and  C_2
REMARK    2  A    between atoms: C_2  and  C_3
REMARK    3  A    between atoms: C_2  and  C_4
REMARK    4  A    between atoms: C_2  and  C_5
REMARK    5  A    between atoms: C_5  and  C_6
REMARK    6  A    between atoms: C_9  and  C_10
REMARK    7  A    between atoms: C_10  and  C_11
REMARK    8  A    between atoms: C_11  and  C_12
REMARK    9  A    between atoms: C_15  and  C_16
REMARK   10  A    between atoms: C_22  and  C_23
REMARK   11  A    between atoms: C_23  and  O_25
REMARK   12  A    between atoms: N_28  and  C_29
REMARK   13  A    between atoms: C_29  and  C_30
REMARK   14  A    between atoms: C_30  and  O_32
REMARK                            x       y       z     vdW  Elec       q    Type
REMARK                         _______ _______ _______ _____ _____    ______ ____
ROOT
ATOM      1  C   UNL     1       0.902   8.342  20.836  0.00  0.00    +0.000 C 
ENDROOT
BRANCH   1   2
ATOM      2  C   UNL     1       1.832   7.626  19.901  0.00  0.00    +0.000 A 
ATOM      3  C   UNL     1       2.408   6.414  20.285  0.00  0.00    +0.000 A 
ATOM      4  C   UNL     1       3.325   5.774  19.454  0.00  0.00    +0.000 A 
ATOM      5  C   UNL     1       3.736   6.347  18.242  0.00  0.00    +0.000 A 
ATOM      6  C   UNL     1       3.087   7.527  17.838  0.00  0.00    +0.000 A 
ATOM      7  C   UNL     1       2.136   8.155  18.649  0.00  0.00    +0.000 A 
BRANCH   5   8
ATOM      8  C   UNL     1       4.807   5.737  17.413  0.00  0.00    +0.000 A 
ATOM      9  C   UNL     1       5.943   6.522  17.101  0.00  0.00    +0.000 A 
ATOM     10  C   UNL     1       7.006   6.036  16.339  0.00  0.00    +0.000 A 
ATOM     11  C   UNL     1       6.947   4.750  15.825  0.00  0.00    +0.000 A 
ATOM     12  C   UNL     1       5.839   3.956  16.103  0.00  0.00    +0.000 A 
ATOM     13  F   UNL     1       5.802   2.729  15.565  0.00  0.00    +0.000 F 
ATOM     14  C   UNL     1       4.779   4.415  16.897  0.00  0.00    +0.000 A 
BRANCH  14  15
ATOM     15  C   UNL     1       3.706   3.430  17.216  0.00  0.00    +0.000 C 
ATOM     16  O   UNL     1       2.583   3.470  16.749  0.00  0.00    +0.000 OA
BRANCH  15  17
ATOM     17  O   UNL     1       4.097   2.431  18.044  0.00  0.00    +0.000 OA
ATOM     18  H   UNL     1       4.222   2.687  18.979  0.00  0.00    +0.000 HD
ENDBRANCH  15  17
ENDBRANCH  14  15
ENDBRANCH   5   8
ENDBRANCH   1   2
BRANCH   1  19
ATOM     19  C   UNL     1       0.664   9.807  20.422  0.00  0.00    +0.000 C 
BRANCH  19  23
ATOM     20  C   UNL     1      -1.097  12.115  22.677  0.00  0.00    +0.000 A 
ATOM     21  C   UNL     1      -1.224  10.877  23.271  0.00  0.00    +0.000 A 
ATOM     22  N   UNL     1      -0.593   9.921  22.549  0.00  0.00    +0.000 NA
ATOM     23  C   UNL     1      -0.070  10.526  21.505  0.00  0.00    +0.000 A 
ATOM     24  N   UNL     1      -0.325  11.884  21.551  0.00  0.00    +0.000 N 
BRANCH  20  25
ATOM     25  C   UNL     1      -1.694  13.420  23.097  0.00  0.00    +0.000 C 
BRANCH  25  27
ATOM     26  C   UNL     1      -3.733  12.707  21.743  0.00  0.00    +0.000 C 
ATOM     27  C   UNL     1      -3.235  13.544  22.932  0.00  0.00    +0.000 C 
ATOM     28  C   UNL     1      -3.712  14.999  22.755  0.00  0.00    +0.000 C 
ATOM     29  C   UNL     1      -3.881  13.004  24.225  0.00  0.00    +0.000 C 
ENDBRANCH  25  27
ENDBRANCH  20  25
BRANCH  24  30
ATOM     30  C   UNL     1       0.173  12.878  20.605  0.00  0.00    +0.000 C 
BRANCH  30  31
ATOM     31  C   UNL     1      -0.356  12.788  19.197  0.00  0.00    +0.000 C 
ATOM     32  O   UNL     1      -1.562  12.679  18.964  0.00  0.00    +0.000 OA
BRANCH  31  33
ATOM     33  O   UNL     1       0.533  12.835  18.185  0.00  0.00    +0.000 OA
ATOM     34  H   UNL     1       1.472  12.702  18.420  0.00  0.00    +0.000 HD
ENDBRANCH  31  33
ENDBRANCH  30  31
ENDBRANCH  24  30
ENDBRANCH  19  23
ENDBRANCH   1  19
TORSDOF 11
ENDMDL
