MODEL 1
REMARK VINA RESULT:      -6.0      0.000      0.000
REMARK  Name = 
REMARK  14 active torsions:
REMARK  status: ('A' for Active; 'I' for Inactive)
REMARK    1  A    between atoms: C_1  and  C_2
REMARK    2  A    between atoms: C_2  and  C_3
REMARK    3  A    between atoms: C_3  and  C_4
REMARK    4  A    between atoms: C_4  and  C_5
REMARK    5  A    between atoms: C_5  and  C_6
REMARK    6  A    between atoms: C_6  and  C_7
REMARK    7  A    between atoms: C_7  and  C_8
REMARK    8  A    between atoms: C_8  and  C_9
REMARK    9  A    between atoms: C_12  and  C_13
REMARK   10  A    between atoms: C_13  and  C_14
REMARK   11  A    between atoms: C_14  and  CA_15
REMARK   12  A    between atoms: CA_15  and  N_16
REMARK   13  A    between atoms: CA_15  and  C_17
REMARK   14  A    between atoms: C_17  and  O_18
REMARK                            x       y       z     vdW  Elec       q    Type
REMARK                         _______ _______ _______ _____ _____    ______ ____
ROOT
ATOM      1  C   UNL     1       2.891   5.660  19.762  0.00  0.00    +0.000 A 
ATOM      2  C   UNL     1       2.550   6.609  18.792  0.00  0.00    +0.000 A 
ATOM      3  C   UNL     1       3.476   6.987  17.828  0.00  0.00    +0.000 A 
ATOM      4  C   UNL     1       4.771   6.456  17.843  0.00  0.00    +0.000 A 
ATOM      5  C   UNL     1       5.111   5.501  18.806  0.00  0.00    +0.000 A 
ATOM      6  C   UNL     1       4.174   5.104  19.759  0.00  0.00    +0.000 A 
ENDROOT
BRANCH   1   7
ATOM      7  C   UNL     1       1.904   5.297  20.834  0.00  0.00    +0.000 C 
BRANCH   7   8
ATOM      8  C   UNL     1       2.275   4.005  21.567  0.00  0.00    +0.000 C 
BRANCH   8   9
ATOM      9  C   UNL     1       1.359   2.846  21.185  0.00  0.00    +0.000 C 
BRANCH   9  10
ATOM     10  C   UNL     1       0.520   3.150  19.943  0.00  0.00    +0.000 C 
BRANCH  10  11
ATOM     11  C   UNL     1       0.858   2.196  18.803  0.00  0.00    +0.000 C 
BRANCH  11  12
ATOM     12  C   UNL     1       2.323   1.766  18.877  0.00  0.00    +0.000 C 
BRANCH  12  14
ATOM     13  C   UNL     1       2.614   3.428  16.957  0.00  0.00    +0.000 C 
ATOM     14  C   UNL     1       3.131   2.175  17.646  0.00  0.00    +0.000 C 
ENDBRANCH  12  14
ENDBRANCH  11  12
ENDBRANCH  10  11
ENDBRANCH   9  10
ENDBRANCH   8   9
ENDBRANCH   7   8
ENDBRANCH   1   7
BRANCH   4  15
ATOM     15  C   UNL     1       5.789   6.946  16.848  0.00  0.00    +0.000 C 
BRANCH  15  16
ATOM     16  C   UNL     1       6.694   5.795  16.396  0.00  0.00    +0.000 C 
BRANCH  16  17
ATOM     17  CA  UNL     1       6.485   5.366  14.942  0.00  0.00    +0.000 C 
BRANCH  17  18
ATOM     18  N   UNL     1       7.748   5.262  14.196  0.00  0.00    +0.000 NA
ATOM     19  H1  UNL     1       8.448   5.875  14.619  0.00  0.00    +0.000 HD
ATOM     20  H2  UNL     1       7.629   5.595  13.240  0.00  0.00    +0.000 HD
ENDBRANCH  17  18
BRANCH  17  21
ATOM     21  C   UNL     1       5.744   4.008  14.918  0.00  0.00    +0.000 C 
BRANCH  21  22
ATOM     22  O   UNL     1       6.040   3.215  16.065  0.00  0.00    +0.000 OA
ATOM     23  H   UNL     1       5.511   3.575  16.800  0.00  0.00    +0.000 HD
ENDBRANCH  21  22
ENDBRANCH  17  21
ENDBRANCH  16  17
ENDBRANCH  15  16
ENDBRANCH   4  15
TORSDOF 13
ENDMDL
MODEL 2
REMARK VINA RESULT:      -6.0      1.836      3.476
REMARK  Name = 
REMARK  14 active torsions:
REMARK  status: ('A' for Active; 'I' for Inactive)
REMARK    1  A    between atoms: C_1  and  C_2
REMARK    2  A    between atoms: C_2  and  C_3
REMARK    3  A    between atoms: C_3  and  C_4
REMARK    4  A    between atoms: C_4  and  C_5
REMARK    5  A    between atoms: C_5  and  C_6
REMARK    6  A    between atoms: C_6  and  C_7
REMARK    7  A    between atoms: C_7  and  C_8
REMARK    8  A    between atoms: C_8  and  C_9
REMARK    9  A    between atoms: C_12  and  C_13
REMARK   10  A    between atoms: C_13  and  C_14
REMARK   11  A    between atoms: C_14  and  CA_15
REMARK   12  A    between atoms: CA_15  and  N_16
REMARK   13  A    between atoms: CA_15  and  C_17
REMARK   14  A    between atoms: C_17  and  O_18
REMARK                            x       y       z     vdW  Elec       q    Type
REMARK                         _______ _______ _______ _____ _____    ______ ____
ROOT
ATOM      1  C   UNL     1       2.620   2.658  18.252  0.00  0.00    +0.000 A 
ATOM      2  C   UNL     1       2.433   3.416  17.091  0.00  0.00    +0.000 A 
ATOM      3  C   UNL     1       3.517   4.027  16.473  0.00  0.00    +0.000 A 
ATOM      4  C   UNL     1       4.798   3.929  17.030  0.00  0.00    +0.000 A 
ATOM      5  C   UNL     1       4.988   3.165  18.184  0.00  0.00    +0.000 A 
ATOM      6  C   UNL     1       3.904   2.531  18.791  0.00  0.00    +0.000 A 
ENDROOT
BRANCH   1   7
ATOM      7  C   UNL     1       1.437   2.046  18.946  0.00  0.00    +0.000 C 
BRANCH   7   8
ATOM      8  C   UNL     1       0.713   3.034  19.863  0.00  0.00    +0.000 C 
BRANCH   8   9
ATOM      9  C   UNL     1       1.361   3.119  21.242  0.00  0.00    +0.000 C 
BRANCH   9  10
ATOM     10  C   UNL     1       2.221   4.373  21.405  0.00  0.00    +0.000 C 
BRANCH  10  11
ATOM     11  C   UNL     1       1.757   5.484  20.469  0.00  0.00    +0.000 C 
BRANCH  11  12
ATOM     12  C   UNL     1       2.936   6.046  19.674  0.00  0.00    +0.000 C 
BRANCH  12  14
ATOM     13  C   UNL     1       3.643   7.413  17.633  0.00  0.00    +0.000 C 
ATOM     14  C   UNL     1       2.504   6.974  18.539  0.00  0.00    +0.000 C 
ENDBRANCH  12  14
ENDBRANCH  11  12
ENDBRANCH  10  11
ENDBRANCH   9  10
ENDBRANCH   8   9
ENDBRANCH   7   8
ENDBRANCH   1   7
BRANCH   4  15
ATOM     15  C   UNL     1       5.944   4.674  16.398  0.00  0.00    +0.000 C 
BRANCH  15  16
ATOM     16  C   UNL     1       7.214   4.516  17.241  0.00  0.00    +0.000 C 
BRANCH  16  17
ATOM     17  CA  UNL     1       7.651   5.792  17.962  0.00  0.00    +0.000 C 
BRANCH  17  18
ATOM     18  N   UNL     1       7.256   7.012  17.244  0.00  0.00    +0.000 NA
ATOM     19  H1  UNL     1       8.033   7.336  16.663  0.00  0.00    +0.000 HD
ATOM     20  H2  UNL     1       7.064   7.769  17.898  0.00  0.00    +0.000 HD
ENDBRANCH  17  18
BRANCH  17  21
ATOM     21  C   UNL     1       7.044   5.799  19.387  0.00  0.00    +0.000 C 
BRANCH  21  22
ATOM     22  O   UNL     1       7.998   5.424  20.377  0.00  0.00    +0.000 OA
ATOM     23  H   UNL     1       8.852   5.807  20.105  0.00  0.00    +0.000 HD
ENDBRANCH  21  22
ENDBRANCH  17  21
ENDBRANCH  16  17
ENDBRANCH  15  16
ENDBRANCH   4  15
TORSDOF 13
ENDMDL
MODEL 3
REMARK VINA RESULT:      -5.8      1.715      3.280
REMARK  Name = 
REMARK  14 active torsions:
REMARK  status: ('A' for Active; 'I' for Inactive)
REMARK    1  A    between atoms: C_1  and  C_2
REMARK    2  A    between atoms: C_2  and  C_3
REMARK    3  A    between atoms: C_3  and  C_4
REMARK    4  A    between atoms: C_4  and  C_5
REMARK    5  A    between atoms: C_5  and  C_6
REMARK    6  A    between atoms: C_6  and  C_7
REMARK    7  A    between atoms: C_7  and  C_8
REMARK    8  A    between atoms: C_8  and  C_9
REMARK    9  A    between atoms: C_12  and  C_13
REMARK   10  A    between atoms: C_13  and  C_14
REMARK   11  A    between atoms: C_14  and  CA_15
REMARK   12  A    between atoms: CA_15  and  N_16
REMARK   13  A    between atoms: CA_15  and  C_17
REMARK   14  A    between atoms: C_17  and  O_18
REMARK                            x       y       z     vdW  Elec       q    Type
REMARK                         _______ _______ _______ _____ _____    ______ ____
ROOT
ATOM      1  C   UNL     1       3.696   3.038  18.512  0.00  0.00    +0.000 A 
ATOM      2  C   UNL     1       4.858   3.506  19.135  0.00  0.00    +0.000 A 
ATOM      3  C   UNL     1       5.790   4.240  18.414  0.00  0.00    +0.000 A 
ATOM      4  C   UNL     1       5.599   4.482  17.048  0.00  0.00    +0.000 A 
ATOM      5  C   UNL     1       4.434   4.024  16.426  0.00  0.00    +0.000 A 
ATOM      6  C   UNL     1       3.486   3.307  17.156  0.00  0.00    +0.000 A 
ENDROOT
BRANCH   1   7
ATOM      7  C   UNL     1       2.719   2.197  19.283  0.00  0.00    +0.000 C 
BRANCH   7   8
ATOM      8  C   UNL     1       1.320   2.816  19.338  0.00  0.00    +0.000 C 
BRANCH   8   9
ATOM      9  C   UNL     1       1.002   3.395  20.714  0.00  0.00    +0.000 C 
BRANCH   9  10
ATOM     10  C   UNL     1       1.999   4.475  21.136  0.00  0.00    +0.000 C 
BRANCH  10  11
ATOM     11  C   UNL     1       1.622   5.831  20.548  0.00  0.00    +0.000 C 
BRANCH  11  12
ATOM     12  C   UNL     1       2.791   6.419  19.758  0.00  0.00    +0.000 C 
BRANCH  12  14
ATOM     13  C   UNL     1       3.556   7.388  17.519  0.00  0.00    +0.000 C 
ATOM     14  C   UNL     1       2.436   6.724  18.303  0.00  0.00    +0.000 C 
ENDBRANCH  12  14
ENDBRANCH  11  12
ENDBRANCH  10  11
ENDBRANCH   9  10
ENDBRANCH   8   9
ENDBRANCH   7   8
ENDBRANCH   1   7
BRANCH   4  15
ATOM     15  C   UNL     1       6.664   5.200  16.262  0.00  0.00    +0.000 C 
BRANCH  15  16
ATOM     16  C   UNL     1       6.259   5.310  14.788  0.00  0.00    +0.000 C 
BRANCH  16  17
ATOM     17  CA  UNL     1       7.042   4.387  13.853  0.00  0.00    +0.000 C 
BRANCH  17  18
ATOM     18  N   UNL     1       6.189   3.382  13.203  0.00  0.00    +0.000 NA
ATOM     19  H1  UNL     1       5.679   2.853  13.914  0.00  0.00    +0.000 HD
ATOM     20  H2  UNL     1       6.755   2.699  12.701  0.00  0.00    +0.000 HD
ENDBRANCH  17  18
BRANCH  17  21
ATOM     21  C   UNL     1       7.757   5.246  12.781  0.00  0.00    +0.000 C 
BRANCH  21  22
ATOM     22  O   UNL     1       8.837   5.996  13.327  0.00  0.00    +0.000 OA
ATOM     23  H   UNL     1       8.534   6.920  13.391  0.00  0.00    +0.000 HD
ENDBRANCH  21  22
ENDBRANCH  17  21
ENDBRANCH  16  17
ENDBRANCH  15  16
ENDBRANCH   4  15
TORSDOF 13
ENDMDL
MODEL 4
REMARK VINA RESULT:      -5.7      1.489      2.185
REMARK  Name = 
REMARK  14 active torsions:
REMARK  status: ('A' for Active; 'I' for Inactive)
REMARK    1  A    between atoms: C_1  and  C_2
REMARK    2  A    between atoms: C_2  and  C_3
REMARK    3  A    between atoms: C_3  and  C_4
REMARK    4  A    between atoms: C_4  and  C_5
REMARK    5  A    between atoms: C_5  and  C_6
REMARK    6  A    between atoms: C_6  and  C_7
REMARK    7  A    between atoms: C_7  and  C_8
REMARK    8  A    between atoms: C_8  and  C_9
REMARK    9  A    between atoms: C_12  and  C_13
REMARK   10  A    between atoms: C_13  and  C_14
REMARK   11  A    between atoms: C_14  and  CA_15
REMARK   12  A    between atoms: CA_15  and  N_16
REMARK   13  A    between atoms: CA_15  and  C_17
REMARK   14  A    between atoms: C_17  and  O_18
REMARK                            x       y       z     vdW  Elec       q    Type
REMARK                         _______ _______ _______ _____ _____    ______ ____
ROOT
ATOM      1  C   UNL     1       3.418   5.823  18.969  0.00  0.00    +0.000 A 
ATOM      2  C   UNL     1       4.706   5.655  19.489  0.00  0.00    +0.000 A 
ATOM      3  C   UNL     1       5.718   5.131  18.694  0.00  0.00    +0.000 A 
ATOM      4  C   UNL     1       5.449   4.726  17.381  0.00  0.00    +0.000 A 
ATOM      5  C   UNL     1       4.166   4.902  16.857  0.00  0.00    +0.000 A 
ATOM      6  C   UNL     1       3.155   5.450  17.647  0.00  0.00    +0.000 A 
ENDROOT
BRANCH   1   7
ATOM      7  C   UNL     1       2.315   6.337  19.849  0.00  0.00    +0.000 C 
BRANCH   7   8
ATOM      8  C   UNL     1       1.895   5.329  20.921  0.00  0.00    +0.000 C 
BRANCH   8   9
ATOM      9  C   UNL     1       0.881   4.318  20.393  0.00  0.00    +0.000 C 
BRANCH   9  10
ATOM     10  C   UNL     1       1.282   2.875  20.697  0.00  0.00    +0.000 C 
BRANCH  10  11
ATOM     11  C   UNL     1       2.689   2.807  21.283  0.00  0.00    +0.000 C 
BRANCH  11  12
ATOM     12  C   UNL     1       3.686   2.316  20.233  0.00  0.00    +0.000 C 
BRANCH  12  14
ATOM     13  C   UNL     1       3.968   1.311  17.899  0.00  0.00    +0.000 C 
ATOM     14  C   UNL     1       3.026   1.959  18.902  0.00  0.00    +0.000 C 
ENDBRANCH  12  14
ENDBRANCH  11  12
ENDBRANCH  10  11
ENDBRANCH   9  10
ENDBRANCH   8   9
ENDBRANCH   7   8
ENDBRANCH   1   7
BRANCH   4  15
ATOM     15  C   UNL     1       6.535   4.076  16.565  0.00  0.00    +0.000 C 
BRANCH  15  16
ATOM     16  C   UNL     1       6.036   3.783  15.146  0.00  0.00    +0.000 C 
BRANCH  16  17
ATOM     17  CA  UNL     1       6.544   4.765  14.088  0.00  0.00    +0.000 C 
BRANCH  17  18
ATOM     18  N   UNL     1       7.744   5.494  14.522  0.00  0.00    +0.000 NA
ATOM     19  H1  UNL     1       7.732   6.439  14.134  0.00  0.00    +0.000 HD
ATOM     20  H2  UNL     1       8.586   5.053  14.153  0.00  0.00    +0.000 HD
ENDBRANCH  17  18
BRANCH  17  21
ATOM     21  C   UNL     1       6.841   3.989  12.782  0.00  0.00    +0.000 C 
BRANCH  21  22
ATOM     22  O   UNL     1       6.115   2.765  12.708  0.00  0.00    +0.000 OA
ATOM     23  H   UNL     1       5.169   2.998  12.731  0.00  0.00    +0.000 HD
ENDBRANCH  21  22
ENDBRANCH  17  21
ENDBRANCH  16  17
ENDBRANCH  15  16
ENDBRANCH   4  15
TORSDOF 13
ENDMDL
MODEL 5
REMARK VINA RESULT:      -5.7      1.347      1.965
REMARK  Name = 
REMARK  14 active torsions:
REMARK  status: ('A' for Active; 'I' for Inactive)
REMARK    1  A    between atoms: C_1  and  C_2
REMARK    2  A    between atoms: C_2  and  C_3
REMARK    3  A    between atoms: C_3  and  C_4
REMARK    4  A    between atoms: C_4  and  C_5
REMARK    5  A    between atoms: C_5  and  C_6
REMARK    6  A    between atoms: C_6  and  C_7
REMARK    7  A    between atoms: C_7  and  C_8
REMARK    8  A    between atoms: C_8  and  C_9
REMARK    9  A    between atoms: C_12  and  C_13
REMARK   10  A    between atoms: C_13  and  C_14
REMARK   11  A    between atoms: C_14  and  CA_15
REMARK   12  A    between atoms: CA_15  and  N_16
REMARK   13  A    between atoms: CA_15  and  C_17
REMARK   14  A    between atoms: C_17  and  O_18
REMARK                            x       y       z     vdW  Elec       q    Type
REMARK                         _______ _______ _______ _____ _____    ______ ____
ROOT
ATOM      1  C   UNL     1       2.884   5.523  19.806  0.00  0.00    +0.000 A 
ATOM      2  C   UNL     1       4.255   5.298  19.641  0.00  0.00    +0.000 A 
ATOM      3  C   UNL     1       4.915   5.793  18.523  0.00  0.00    +0.000 A 
ATOM      4  C   UNL     1       4.208   6.483  17.531  0.00  0.00    +0.000 A 
ATOM      5  C   UNL     1       2.840   6.717  17.699  0.00  0.00    +0.000 A 
ATOM      6  C   UNL     1       2.182   6.241  18.833  0.00  0.00    +0.000 A 
ENDROOT
BRANCH   1   7
ATOM      7  C   UNL     1       2.166   4.938  20.989  0.00  0.00    +0.000 C 
BRANCH   7   8
ATOM      8  C   UNL     1       0.886   4.197  20.596  0.00  0.00    +0.000 C 
BRANCH   8   9
ATOM      9  C   UNL     1       1.173   2.792  20.075  0.00  0.00    +0.000 C 
BRANCH   9  10
ATOM     10  C   UNL     1       0.946   2.671  18.568  0.00  0.00    +0.000 C 
BRANCH  10  11
ATOM     11  C   UNL     1       2.272   2.604  17.816  0.00  0.00    +0.000 C 
BRANCH  11  12
ATOM     12  C   UNL     1       3.177   1.527  18.416  0.00  0.00    +0.000 C 
BRANCH  12  14
ATOM     13  C   UNL     1       4.653   1.764  20.491  0.00  0.00    +0.000 C 
ATOM     14  C   UNL     1       4.462   2.094  19.019  0.00  0.00    +0.000 C 
ENDBRANCH  12  14
ENDBRANCH  11  12
ENDBRANCH  10  11
ENDBRANCH   9  10
ENDBRANCH   8   9
ENDBRANCH   7   8
ENDBRANCH   1   7
BRANCH   4  15
ATOM     15  C   UNL     1       4.921   6.931  16.283  0.00  0.00    +0.000 C 
BRANCH  15  16
ATOM     16  C   UNL     1       5.379   5.720  15.464  0.00  0.00    +0.000 C 
BRANCH  16  17
ATOM     17  CA  UNL     1       6.888   5.465  15.512  0.00  0.00    +0.000 C 
BRANCH  17  18
ATOM     18  N   UNL     1       7.610   6.488  16.281  0.00  0.00    +0.000 NA
ATOM     19  H1  UNL     1       7.701   6.187  17.253  0.00  0.00    +0.000 HD
ATOM     20  H2  UNL     1       7.081   7.359  16.309  0.00  0.00    +0.000 HD
ENDBRANCH  17  18
BRANCH  17  21
ATOM     21  C   UNL     1       7.144   4.066  16.122  0.00  0.00    +0.000 C 
BRANCH  21  22
ATOM     22  O   UNL     1       8.008   4.125  17.254  0.00  0.00    +0.000 OA
ATOM     23  H   UNL     1       7.899   3.285  17.735  0.00  0.00    +0.000 HD
ENDBRANCH  21  22
ENDBRANCH  17  21
ENDBRANCH  16  17
ENDBRANCH  15  16
ENDBRANCH   4  15
TORSDOF 13
ENDMDL
MODEL 6
REMARK VINA RESULT:      -5.7      3.431      6.732
REMARK  Name = 
REMARK  14 active torsions:
REMARK  status: ('A' for Active; 'I' for Inactive)
REMARK    1  A    between atoms: C_1  and  C_2
REMARK    2  A    between atoms: C_2  and  C_3
REMARK    3  A    between atoms: C_3  and  C_4
REMARK    4  A    between atoms: C_4  and  C_5
REMARK    5  A    between atoms: C_5  and  C_6
REMARK    6  A    between atoms: C_6  and  C_7
REMARK    7  A    between atoms: C_7  and  C_8
REMARK    8  A    between atoms: C_8  and  C_9
REMARK    9  A    between atoms: C_12  and  C_13
REMARK   10  A    between atoms: C_13  and  C_14
REMARK   11  A    between atoms: C_14  and  CA_15
REMARK   12  A    between atoms: CA_15  and  N_16
REMARK   13  A    between atoms: CA_15  and  C_17
REMARK   14  A    between atoms: C_17  and  O_18
REMARK                            x       y       z     vdW  Elec       q    Type
REMARK                         _______ _______ _______ _____ _____    ______ ____
ROOT
ATOM      1  C   UNL     1       5.860   4.889  16.150  0.00  0.00    +0.000 A 
ATOM      2  C   UNL     1       5.167   3.719  16.483  0.00  0.00    +0.000 A 
ATOM      3  C   UNL     1       3.965   3.792  17.176  0.00  0.00    +0.000 A 
ATOM      4  C   UNL     1       3.458   5.031  17.586  0.00  0.00    +0.000 A 
ATOM      5  C   UNL     1       4.144   6.201  17.247  0.00  0.00    +0.000 A 
ATOM      6  C   UNL     1       5.338   6.129  16.530  0.00  0.00    +0.000 A 
ENDROOT
BRANCH   1   7
ATOM      7  C   UNL     1       7.185   4.801  15.450  0.00  0.00    +0.000 C 
BRANCH   7   8
ATOM      8  C   UNL     1       7.055   4.870  13.927  0.00  0.00    +0.000 C 
BRANCH   8   9
ATOM      9  C   UNL     1       6.066   3.840  13.388  0.00  0.00    +0.000 C 
BRANCH   9  10
ATOM     10  C   UNL     1       6.502   3.261  12.042  0.00  0.00    +0.000 C 
BRANCH  10  11
ATOM     11  C   UNL     1       5.411   2.379  11.443  0.00  0.00    +0.000 C 
BRANCH  11  12
ATOM     12  C   UNL     1       4.048   3.063  11.548  0.00  0.00    +0.000 C 
BRANCH  12  14
ATOM     13  C   UNL     1       2.789   3.835   9.461  0.00  0.00    +0.000 C 
ATOM     14  C   UNL     1       3.847   4.160  10.503  0.00  0.00    +0.000 C 
ENDBRANCH  12  14
ENDBRANCH  11  12
ENDBRANCH  10  11
ENDBRANCH   9  10
ENDBRANCH   8   9
ENDBRANCH   7   8
ENDBRANCH   1   7
BRANCH   4  15
ATOM     15  C   UNL     1       2.203   5.085  18.416  0.00  0.00    +0.000 C 
BRANCH  15  16
ATOM     16  C   UNL     1       1.294   3.895  18.088  0.00  0.00    +0.000 C 
BRANCH  16  17
ATOM     17  CA  UNL     1       1.038   2.957  19.269  0.00  0.00    +0.000 C 
BRANCH  17  18
ATOM     18  N   UNL     1       1.446   1.573  18.992  0.00  0.00    +0.000 NA
ATOM     19  H1  UNL     1       0.774   0.926  19.409  0.00  0.00    +0.000 HD
ATOM     20  H2  UNL     1       2.341   1.367  19.433  0.00  0.00    +0.000 HD
ENDBRANCH  17  18
BRANCH  17  21
ATOM     21  C   UNL     1       1.792   3.492  20.511  0.00  0.00    +0.000 C 
BRANCH  21  22
ATOM     22  O   UNL     1       2.884   2.653  20.877  0.00  0.00    +0.000 OA
ATOM     23  H   UNL     1       3.170   2.936  21.765  0.00  0.00    +0.000 HD
ENDBRANCH  21  22
ENDBRANCH  17  21
ENDBRANCH  16  17
ENDBRANCH  15  16
ENDBRANCH   4  15
TORSDOF 13
ENDMDL
MODEL 7
REMARK VINA RESULT:      -5.6      1.700      3.250
REMARK  Name = 
REMARK  14 active torsions:
REMARK  status: ('A' for Active; 'I' for Inactive)
REMARK    1  A    between atoms: C_1  and  C_2
REMARK    2  A    between atoms: C_2  and  C_3
REMARK    3  A    between atoms: C_3  and  C_4
REMARK    4  A    between atoms: C_4  and  C_5
REMARK    5  A    between atoms: C_5  and  C_6
REMARK    6  A    between atoms: C_6  and  C_7
REMARK    7  A    between atoms: C_7  and  C_8
REMARK    8  A    between atoms: C_8  and  C_9
REMARK    9  A    between atoms: C_12  and  C_13
REMARK   10  A    between atoms: C_13  and  C_14
REMARK   11  A    between atoms: C_14  and  CA_15
REMARK   12  A    between atoms: CA_15  and  N_16
REMARK   13  A    between atoms: CA_15  and  C_17
REMARK   14  A    between atoms: C_17  and  O_18
REMARK                            x       y       z     vdW  Elec       q    Type
REMARK                         _______ _______ _______ _____ _____    ______ ____
ROOT
ATOM      1  C   UNL     1       3.290   2.818  18.565  0.00  0.00    +0.000 A 
ATOM      2  C   UNL     1       3.051   3.153  17.228  0.00  0.00    +0.000 A 
ATOM      3  C   UNL     1       3.987   3.888  16.513  0.00  0.00    +0.000 A 
ATOM      4  C   UNL     1       5.159   4.338  17.134  0.00  0.00    +0.000 A 
ATOM      5  C   UNL     1       5.404   3.997  18.467  0.00  0.00    +0.000 A 
ATOM      6  C   UNL     1       4.474   3.238  19.178  0.00  0.00    +0.000 A 
ENDROOT
BRANCH   1   7
ATOM      7  C   UNL     1       2.249   2.071  19.349  0.00  0.00    +0.000 C 
BRANCH   7   8
ATOM      8  C   UNL     1       1.989   2.688  20.725  0.00  0.00    +0.000 C 
BRANCH   8   9
ATOM      9  C   UNL     1       1.038   3.879  20.651  0.00  0.00    +0.000 C 
BRANCH   9  10
ATOM     10  C   UNL     1       1.771   5.217  20.740  0.00  0.00    +0.000 C 
BRANCH  10  11
ATOM     11  C   UNL     1       1.762   5.939  19.396  0.00  0.00    +0.000 C 
BRANCH  11  12
ATOM     12  C   UNL     1       3.051   6.738  19.205  0.00  0.00    +0.000 C 
BRANCH  12  14
ATOM     13  C   UNL     1       2.214   8.690  17.781  0.00  0.00    +0.000 C 
ATOM     14  C   UNL     1       3.111   7.465  17.862  0.00  0.00    +0.000 C 
ENDBRANCH  12  14
ENDBRANCH  11  12
ENDBRANCH  10  11
ENDBRANCH   9  10
ENDBRANCH   8   9
ENDBRANCH   7   8
ENDBRANCH   1   7
BRANCH   4  15
ATOM     15  C   UNL     1       6.119   5.211  16.370  0.00  0.00    +0.000 C 
BRANCH  15  16
ATOM     16  C   UNL     1       5.799   5.175  14.872  0.00  0.00    +0.000 C 
BRANCH  16  17
ATOM     17  CA  UNL     1       6.710   4.253  14.059  0.00  0.00    +0.000 C 
BRANCH  17  18
ATOM     18  N   UNL     1       5.962   3.229  13.317  0.00  0.00    +0.000 NA
ATOM     19  H1  UNL     1       6.539   2.864  12.556  0.00  0.00    +0.000 HD
ATOM     20  H2  UNL     1       5.140   3.635  12.871  0.00  0.00    +0.000 HD
ENDBRANCH  17  18
BRANCH  17  21
ATOM     21  C   UNL     1       7.547   5.109  13.078  0.00  0.00    +0.000 C 
BRANCH  21  22
ATOM     22  O   UNL     1       8.565   5.849  13.746  0.00  0.00    +0.000 OA
ATOM     23  H   UNL     1       8.114   6.504  14.310  0.00  0.00    +0.000 HD
ENDBRANCH  21  22
ENDBRANCH  17  21
ENDBRANCH  16  17
ENDBRANCH  15  16
ENDBRANCH   4  15
TORSDOF 13
ENDMDL
MODEL 8
REMARK VINA RESULT:      -5.6      4.296      7.889
REMARK  Name = 
REMARK  14 active torsions:
REMARK  status: ('A' for Active; 'I' for Inactive)
REMARK    1  A    between atoms: C_1  and  C_2
REMARK    2  A    between atoms: C_2  and  C_3
REMARK    3  A    between atoms: C_3  and  C_4
REMARK    4  A    between atoms: C_4  and  C_5
REMARK    5  A    between atoms: C_5  and  C_6
REMARK    6  A    between atoms: C_6  and  C_7
REMARK    7  A    between atoms: C_7  and  C_8
REMARK    8  A    between atoms: C_8  and  C_9
REMARK    9  A    between atoms: C_12  and  C_13
REMARK   10  A    between atoms: C_13  and  C_14
REMARK   11  A    between atoms: C_14  and  CA_15
REMARK   12  A    between atoms: CA_15  and  N_16
REMARK   13  A    between atoms: CA_15  and  C_17
REMARK   14  A    between atoms: C_17  and  O_18
REMARK                            x       y       z     vdW  Elec       q    Type
REMARK                         _______ _______ _______ _____ _____    ______ ____
ROOT
ATOM      1  C   UNL     1       6.063   6.300  17.778  0.00  0.00    +0.000 A 
ATOM      2  C   UNL     1       4.859   6.673  17.170  0.00  0.00    +0.000 A 
ATOM      3  C   UNL     1       3.656   6.148  17.623  0.00  0.00    +0.000 A 
ATOM      4  C   UNL     1       3.638   5.210  18.663  0.00  0.00    +0.000 A 
ATOM      5  C   UNL     1       4.839   4.844  19.277  0.00  0.00    +0.000 A 
ATOM      6  C   UNL     1       6.045   5.389  18.838  0.00  0.00    +0.000 A 
ENDROOT
BRANCH   1   7
ATOM      7  C   UNL     1       7.365   6.828  17.247  0.00  0.00    +0.000 C 
BRANCH   7   8
ATOM      8  C   UNL     1       8.133   7.657  18.279  0.00  0.00    +0.000 C 
BRANCH   8   9
ATOM      9  C   UNL     1       8.099   9.148  17.958  0.00  0.00    +0.000 C 
BRANCH   9  10
ATOM     10  C   UNL     1       9.027   9.961  18.862  0.00  0.00    +0.000 C 
BRANCH  10  11
ATOM     11  C   UNL     1       9.756  11.042  18.072  0.00  0.00    +0.000 C 
BRANCH  11  12
ATOM     12  C   UNL     1      10.985  11.533  18.838  0.00  0.00    +0.000 C 
BRANCH  12  14
ATOM     13  C   UNL     1      11.162  13.178  16.888  0.00  0.00    +0.000 C 
ATOM     14  C   UNL     1      11.887  12.440  18.002  0.00  0.00    +0.000 C 
ENDBRANCH  12  14
ENDBRANCH  11  12
ENDBRANCH  10  11
ENDBRANCH   9  10
ENDBRANCH   8   9
ENDBRANCH   7   8
ENDBRANCH   1   7
BRANCH   4  15
ATOM     15  C   UNL     1       2.334   4.584  19.079  0.00  0.00    +0.000 C 
BRANCH  15  16
ATOM     16  C   UNL     1       2.587   3.286  19.854  0.00  0.00    +0.000 C 
BRANCH  16  17
ATOM     17  CA  UNL     1       2.206   2.016  19.091  0.00  0.00    +0.000 C 
BRANCH  17  18
ATOM     18  N   UNL     1       0.913   2.136  18.402  0.00  0.00    +0.000 NA
ATOM     19  H1  UNL     1       1.027   1.899  17.414  0.00  0.00    +0.000 HD
ATOM     20  H2  UNL     1       0.584   3.100  18.420  0.00  0.00    +0.000 HD
ENDBRANCH  17  18
BRANCH  17  21
ATOM     21  C   UNL     1       3.321   1.689  18.068  0.00  0.00    +0.000 C 
BRANCH  21  22
ATOM     22  O   UNL     1       4.256   0.743  18.579  0.00  0.00    +0.000 OA
ATOM     23  H   UNL     1       3.749  -0.056  18.813  0.00  0.00    +0.000 HD
ENDBRANCH  21  22
ENDBRANCH  17  21
ENDBRANCH  16  17
ENDBRANCH  15  16
ENDBRANCH   4  15
TORSDOF 13
ENDMDL
MODEL 9
REMARK VINA RESULT:      -5.5      3.650      6.827
REMARK  Name = 
REMARK  14 active torsions:
REMARK  status: ('A' for Active; 'I' for Inactive)
REMARK    1  A    between atoms: C_1  and  C_2
REMARK    2  A    between atoms: C_2  and  C_3
REMARK    3  A    between atoms: C_3  and  C_4
REMARK    4  A    between atoms: C_4  and  C_5
REMARK    5  A    between atoms: C_5  and  C_6
REMARK    6  A    between atoms: C_6  and  C_7
REMARK    7  A    between atoms: C_7  and  C_8
REMARK    8  A    between atoms: C_8  and  C_9
REMARK    9  A    between atoms: C_12  and  C_13
REMARK   10  A    between atoms: C_13  and  C_14
REMARK   11  A    between atoms: C_14  and  CA_15
REMARK   12  A    between atoms: CA_15  and  N_16
REMARK   13  A    between atoms: CA_15  and  C_17
REMARK   14  A    between atoms: C_17  and  O_18
REMARK                            x       y       z     vdW  Elec       q    Type
REMARK                         _______ _______ _______ _____ _____    ______ ____
ROOT
ATOM      1  C   UNL     1       5.478   4.180  16.451  0.00  0.00    +0.000 A 
ATOM      2  C   UNL     1       4.431   3.401  16.957  0.00  0.00    +0.000 A 
ATOM      3  C   UNL     1       3.651   3.875  18.003  0.00  0.00    +0.000 A 
ATOM      4  C   UNL     1       3.930   5.115  18.591  0.00  0.00    +0.000 A 
ATOM      5  C   UNL     1       4.969   5.898  18.080  0.00  0.00    +0.000 A 
ATOM      6  C   UNL     1       5.738   5.433  17.014  0.00  0.00    +0.000 A 
ENDROOT
BRANCH   1   7
ATOM      7  C   UNL     1       6.353   3.639  15.357  0.00  0.00    +0.000 C 
BRANCH   7   8
ATOM      8  C   UNL     1       6.690   4.689  14.295  0.00  0.00    +0.000 C 
BRANCH   8   9
ATOM      9  C   UNL     1       5.871   4.499  13.021  0.00  0.00    +0.000 C 
BRANCH   9  10
ATOM     10  C   UNL     1       6.377   3.333  12.171  0.00  0.00    +0.000 C 
BRANCH  10  11
ATOM     11  C   UNL     1       5.217   2.511  11.619  0.00  0.00    +0.000 C 
BRANCH  11  12
ATOM     12  C   UNL     1       3.973   3.383  11.447  0.00  0.00    +0.000 C 
BRANCH  12  14
ATOM     13  C   UNL     1       2.754   4.475   9.483  0.00  0.00    +0.000 C 
ATOM     14  C   UNL     1       3.288   3.190  10.095  0.00  0.00    +0.000 C 
ENDBRANCH  12  14
ENDBRANCH  11  12
ENDBRANCH  10  11
ENDBRANCH   9  10
ENDBRANCH   8   9
ENDBRANCH   7   8
ENDBRANCH   1   7
BRANCH   4  15
ATOM     15  C   UNL     1       3.132   5.571  19.783  0.00  0.00    +0.000 C 
BRANCH  15  16
ATOM     16  C   UNL     1       1.672   5.123  19.654  0.00  0.00    +0.000 C 
BRANCH  16  17
ATOM     17  CA  UNL     1       1.202   4.188  20.770  0.00  0.00    +0.000 C 
BRANCH  17  18
ATOM     18  N   UNL     1       0.680   2.913  20.259  0.00  0.00    +0.000 NA
ATOM     19  H1  UNL     1       0.574   2.250  21.030  0.00  0.00    +0.000 HD
ATOM     20  H2  UNL     1       1.342   2.485  19.614  0.00  0.00    +0.000 HD
ENDBRANCH  17  18
BRANCH  17  21
ATOM     21  C   UNL     1       2.381   3.926  21.738  0.00  0.00    +0.000 C 
BRANCH  21  22
ATOM     22  O   UNL     1       2.549   2.538  22.014  0.00  0.00    +0.000 OA
ATOM     23  H   UNL     1       2.985   2.147  21.235  0.00  0.00    +0.000 HD
ENDBRANCH  21  22
ENDBRANCH  17  21
ENDBRANCH  16  17
ENDBRANCH  15  16
ENDBRANCH   4  15
TORSDOF 13
ENDMDL
