MODEL 1
REMARK VINA RESULT:      -7.7      0.000      0.000
REMARK  Name = 
REMARK  4 active torsions:
REMARK  status: ('A' for Active; 'I' for Inactive)
REMARK    1  A    between atoms: C_1  and  C_2
REMARK    2  A    between atoms: N_5  and  C_6
REMARK    3  A    between atoms: C_6  and  C_7
REMARK    4  A    between atoms: C_22  and  C_23
REMARK                            x       y       z     vdW  Elec       q    Type
REMARK                         _______ _______ _______ _____ _____    ______ ____
ROOT
ATOM      1  C   UNL     1       7.387   7.056  17.734  0.00  0.00    +0.000 C 
ATOM      2  C   UNL     1       6.241   6.310  17.061  0.00  0.00    +0.000 C 
ATOM      3  N   UNL     1       4.936   6.961  17.388  0.00  0.00    +0.000 NA
ATOM      4  C   UNL     1       4.326   6.145  18.201  0.00  0.00    +0.000 C 
ATOM      5  N   UNL     1       3.036   6.272  18.699  0.00  0.00    +0.000 N 
ATOM      6  C   UNL     1       2.573   5.247  19.478  0.00  0.00    +0.000 A 
ATOM      7  N   UNL     1       1.323   5.045  19.983  0.00  0.00    +0.000 N 
ATOM      8  C   UNL     1       1.342   3.824  20.611  0.00  0.00    +0.000 A 
ATOM      9  N   UNL     1       2.529   3.262  20.564  0.00  0.00    +0.000 NA
ATOM     10  C   UNL     1       3.308   4.141  19.853  0.00  0.00    +0.000 A 
ATOM     11  C   UNL     1       4.666   3.960  19.365  0.00  0.00    +0.000 C 
ATOM     12  O   UNL     1       5.354   2.963  19.576  0.00  0.00    +0.000 OA
ATOM     13  N   UNL     1       5.067   5.006  18.534  0.00  0.00    +0.000 N 
ATOM     14  C   UNL     1       6.092   4.870  17.545  0.00  0.00    +0.000 C 
ATOM     15  C   UNL     1       5.548   3.992  16.402  0.00  0.00    +0.000 C 
ATOM     16  H   UNL     1       0.521   5.651  19.894  0.00  0.00    +0.000 HD
ENDROOT
BRANCH   5  17
ATOM     17  C   UNL     1       2.106   7.149  17.974  0.00  0.00    +0.000 C 
BRANCH  17  18
ATOM     18  C   UNL     1       1.746   8.404  18.738  0.00  0.00    +0.000 A 
ATOM     19  C   UNL     1       1.461   8.373  20.111  0.00  0.00    +0.000 A 
ATOM     20  C   UNL     1       1.082   9.538  20.781  0.00  0.00    +0.000 A 
ATOM     21  C   UNL     1       1.017  10.745  20.090  0.00  0.00    +0.000 A 
ATOM     22 CL   UNL     1       0.475  12.165  20.893  0.00  0.00    +0.000 Cl
ATOM     23  C   UNL     1       1.375  10.807  18.745  0.00  0.00    +0.000 A 
ATOM     24  C   UNL     1       1.748   9.642  18.072  0.00  0.00    +0.000 A 
ENDBRANCH  17  18
ENDBRANCH   5  17
TORSDOF 2
ENDMDL
MODEL 2
REMARK VINA RESULT:      -7.5      0.171      1.022
REMARK  Name = 
REMARK  4 active torsions:
REMARK  status: ('A' for Active; 'I' for Inactive)
REMARK    1  A    between atoms: C_1  and  C_2
REMARK    2  A    between atoms: N_5  and  C_6
REMARK    3  A    between atoms: C_6  and  C_7
REMARK    4  A    between atoms: C_22  and  C_23
REMARK                            x       y       z     vdW  Elec       q    Type
REMARK                         _______ _______ _______ _____ _____    ______ ____
ROOT
ATOM      1  C   UNL     1       7.407   7.157  17.611  0.00  0.00    +0.000 C 
ATOM      2  C   UNL     1       6.259   6.389  16.967  0.00  0.00    +0.000 C 
ATOM      3  N   UNL     1       4.954   7.046  17.281  0.00  0.00    +0.000 NA
ATOM      4  C   UNL     1       4.351   6.253  18.122  0.00  0.00    +0.000 C 
ATOM      5  N   UNL     1       3.063   6.391  18.623  0.00  0.00    +0.000 N 
ATOM      6  C   UNL     1       2.607   5.388  19.433  0.00  0.00    +0.000 A 
ATOM      7  N   UNL     1       1.361   5.198  19.952  0.00  0.00    +0.000 N 
ATOM      8  C   UNL     1       1.386   3.996  20.615  0.00  0.00    +0.000 A 
ATOM      9  N   UNL     1       2.574   3.436  20.578  0.00  0.00    +0.000 NA
ATOM     10  C   UNL     1       3.347   4.296  19.837  0.00  0.00    +0.000 A 
ATOM     11  C   UNL     1       4.703   4.103  19.347  0.00  0.00    +0.000 C 
ATOM     12  O   UNL     1       5.395   3.115  19.583  0.00  0.00    +0.000 OA
ATOM     13  N   UNL     1       5.096   5.126  18.484  0.00  0.00    +0.000 N 
ATOM     14  C   UNL     1       6.116   4.964  17.493  0.00  0.00    +0.000 C 
ATOM     15  C   UNL     1       5.569   4.051  16.379  0.00  0.00    +0.000 C 
ATOM     16  H   UNL     1       0.556   5.799  19.849  0.00  0.00    +0.000 HD
ENDROOT
BRANCH   5  17
ATOM     17  C   UNL     1       2.127   7.244  17.878  0.00  0.00    +0.000 C 
BRANCH  17  18
ATOM     18  C   UNL     1       1.761   8.516  18.609  0.00  0.00    +0.000 A 
ATOM     19  C   UNL     1       1.757   9.761  17.963  0.00  0.00    +0.000 A 
ATOM     20  C   UNL     1       1.464  10.927  18.674  0.00  0.00    +0.000 A 
ATOM     21  C   UNL     1       1.143  10.850  20.026  0.00  0.00    +0.000 A 
ATOM     22 CL   UNL     1       0.859  12.290  20.923  0.00  0.00    +0.000 Cl
ATOM     23  C   UNL     1       1.064   9.614  20.664  0.00  0.00    +0.000 A 
ATOM     24  C   UNL     1       1.363   8.449  19.955  0.00  0.00    +0.000 A 
ENDBRANCH  17  18
ENDBRANCH   5  17
TORSDOF 2
ENDMDL
MODEL 3
REMARK VINA RESULT:      -7.4      1.443      3.804
REMARK  Name = 
REMARK  4 active torsions:
REMARK  status: ('A' for Active; 'I' for Inactive)
REMARK    1  A    between atoms: C_1  and  C_2
REMARK    2  A    between atoms: N_5  and  C_6
REMARK    3  A    between atoms: C_6  and  C_7
REMARK    4  A    between atoms: C_22  and  C_23
REMARK                            x       y       z     vdW  Elec       q    Type
REMARK                         _______ _______ _______ _____ _____    ______ ____
ROOT
ATOM      1  C   UNL     1       0.578   2.044  18.448  0.00  0.00    +0.000 C 
ATOM      2  C   UNL     1       1.029   3.262  19.246  0.00  0.00    +0.000 C 
ATOM      3  N   UNL     1       1.427   4.368  18.322  0.00  0.00    +0.000 NA
ATOM      4  C   UNL     1       2.725   4.453  18.411  0.00  0.00    +0.000 C 
ATOM      5  N   UNL     1       3.542   5.404  17.813  0.00  0.00    +0.000 N 
ATOM      6  C   UNL     1       4.875   5.347  18.113  0.00  0.00    +0.000 A 
ATOM      7  N   UNL     1       5.872   6.215  17.781  0.00  0.00    +0.000 N 
ATOM      8  C   UNL     1       7.011   5.769  18.404  0.00  0.00    +0.000 A 
ATOM      9  N   UNL     1       6.804   4.659  19.076  0.00  0.00    +0.000 NA
ATOM     10  C   UNL     1       5.470   4.386  18.906  0.00  0.00    +0.000 A 
ATOM     11  C   UNL     1       4.663   3.363  19.554  0.00  0.00    +0.000 C 
ATOM     12  O   UNL     1       5.099   2.530  20.345  0.00  0.00    +0.000 OA
ATOM     13  N   UNL     1       3.307   3.502  19.256  0.00  0.00    +0.000 N 
ATOM     14  C   UNL     1       2.266   3.000  20.099  0.00  0.00    +0.000 C 
ATOM     15  C   UNL     1       2.213   3.868  21.371  0.00  0.00    +0.000 C 
ATOM     16  H   UNL     1       5.795   7.048  17.215  0.00  0.00    +0.000 HD
ENDROOT
BRANCH   5  17
ATOM     17  C   UNL     1       2.920   6.660  17.373  0.00  0.00    +0.000 C 
BRANCH  17  18
ATOM     18  C   UNL     1       2.312   7.458  18.505  0.00  0.00    +0.000 A 
ATOM     19  C   UNL     1       2.333   6.992  19.828  0.00  0.00    +0.000 A 
ATOM     20  C   UNL     1       1.720   7.725  20.846  0.00  0.00    +0.000 A 
ATOM     21  C   UNL     1       1.112   8.943  20.553  0.00  0.00    +0.000 A 
ATOM     22 CL   UNL     1       0.289   9.809  21.789  0.00  0.00    +0.000 Cl
ATOM     23  C   UNL     1       1.153   9.458  19.259  0.00  0.00    +0.000 A 
ATOM     24  C   UNL     1       1.760   8.723  18.239  0.00  0.00    +0.000 A 
ENDBRANCH  17  18
ENDBRANCH   5  17
TORSDOF 2
ENDMDL
MODEL 4
REMARK VINA RESULT:      -7.1      1.417      3.906
REMARK  Name = 
REMARK  4 active torsions:
REMARK  status: ('A' for Active; 'I' for Inactive)
REMARK    1  A    between atoms: C_1  and  C_2
REMARK    2  A    between atoms: N_5  and  C_6
REMARK    3  A    between atoms: C_6  and  C_7
REMARK    4  A    between atoms: C_22  and  C_23
REMARK                            x       y       z     vdW  Elec       q    Type
REMARK                         _______ _______ _______ _____ _____    ______ ____
ROOT
ATOM      1  C   UNL     1       0.604   2.110  18.477  0.00  0.00    +0.000 C 
ATOM      2  C   UNL     1       1.042   3.340  19.262  0.00  0.00    +0.000 C 
ATOM      3  N   UNL     1       1.453   4.433  18.328  0.00  0.00    +0.000 NA
ATOM      4  C   UNL     1       2.749   4.521  18.434  0.00  0.00    +0.000 C 
ATOM      5  N   UNL     1       3.574   5.463  17.833  0.00  0.00    +0.000 N 
ATOM      6  C   UNL     1       4.903   5.412  18.153  0.00  0.00    +0.000 A 
ATOM      7  N   UNL     1       5.903   6.277  17.823  0.00  0.00    +0.000 N 
ATOM      8  C   UNL     1       7.034   5.841  18.469  0.00  0.00    +0.000 A 
ATOM      9  N   UNL     1       6.818   4.742  19.154  0.00  0.00    +0.000 NA
ATOM     10  C   UNL     1       5.487   4.465  18.969  0.00  0.00    +0.000 A 
ATOM     11  C   UNL     1       4.671   3.451  19.620  0.00  0.00    +0.000 C 
ATOM     12  O   UNL     1       5.097   2.630  20.430  0.00  0.00    +0.000 OA
ATOM     13  N   UNL     1       3.320   3.583  19.301  0.00  0.00    +0.000 N 
ATOM     14  C   UNL     1       2.267   3.093  20.137  0.00  0.00    +0.000 C 
ATOM     15  C   UNL     1       2.195   3.980  21.395  0.00  0.00    +0.000 C 
ATOM     16  H   UNL     1       5.834   7.101  17.243  0.00  0.00    +0.000 HD
ENDROOT
BRANCH   5  17
ATOM     17  C   UNL     1       2.958   6.712  17.365  0.00  0.00    +0.000 C 
BRANCH  17  18
ATOM     18  C   UNL     1       2.317   7.518  18.474  0.00  0.00    +0.000 A 
ATOM     19  C   UNL     1       1.663   8.732  18.217  0.00  0.00    +0.000 A 
ATOM     20  C   UNL     1       1.124   9.481  19.265  0.00  0.00    +0.000 A 
ATOM     21  C   UNL     1       1.208   9.005  20.571  0.00  0.00    +0.000 A 
ATOM     22 CL   UNL     1       0.615   9.961  21.871  0.00  0.00    +0.000 Cl
ATOM     23  C   UNL     1       1.783   7.763  20.833  0.00  0.00    +0.000 A 
ATOM     24  C   UNL     1       2.327   7.017  19.787  0.00  0.00    +0.000 A 
ENDBRANCH  17  18
ENDBRANCH   5  17
TORSDOF 2
ENDMDL
MODEL 5
REMARK VINA RESULT:      -7.0      3.532      6.177
REMARK  Name = 
REMARK  4 active torsions:
REMARK  status: ('A' for Active; 'I' for Inactive)
REMARK    1  A    between atoms: C_1  and  C_2
REMARK    2  A    between atoms: N_5  and  C_6
REMARK    3  A    between atoms: C_6  and  C_7
REMARK    4  A    between atoms: C_22  and  C_23
REMARK                            x       y       z     vdW  Elec       q    Type
REMARK                         _______ _______ _______ _____ _____    ______ ____
ROOT
ATOM      1  C   UNL     1       4.613   1.687  21.196  0.00  0.00    +0.000 C 
ATOM      2  C   UNL     1       4.472   1.998  19.711  0.00  0.00    +0.000 C 
ATOM      3  N   UNL     1       5.387   3.116  19.326  0.00  0.00    +0.000 NA
ATOM      4  C   UNL     1       4.616   4.143  19.102  0.00  0.00    +0.000 C 
ATOM      5  N   UNL     1       5.002   5.387  18.620  0.00  0.00    +0.000 N 
ATOM      6  C   UNL     1       4.005   6.293  18.384  0.00  0.00    +0.000 A 
ATOM      7  N   UNL     1       4.076   7.521  17.798  0.00  0.00    +0.000 N 
ATOM      8  C   UNL     1       2.789   7.991  17.704  0.00  0.00    +0.000 A 
ATOM      9  N   UNL     1       1.919   7.155  18.223  0.00  0.00    +0.000 NA
ATOM     10  C   UNL     1       2.666   6.086  18.649  0.00  0.00    +0.000 A 
ATOM     11  C   UNL     1       2.206   4.804  19.160  0.00  0.00    +0.000 C 
ATOM     12  O   UNL     1       1.027   4.507  19.335  0.00  0.00    +0.000 OA
ATOM     13  N   UNL     1       3.257   3.902  19.330  0.00  0.00    +0.000 N 
ATOM     14  C   UNL     1       3.078   2.482  19.325  0.00  0.00    +0.000 C 
ATOM     15  C   UNL     1       2.755   2.041  17.884  0.00  0.00    +0.000 C 
ATOM     16  H   UNL     1       4.904   7.993  17.464  0.00  0.00    +0.000 HD
ENDROOT
BRANCH   5  17
ATOM     17  C   UNL     1       6.286   5.478  17.912  0.00  0.00    +0.000 C 
BRANCH  17  18
ATOM     18  C   UNL     1       6.218   4.997  16.479  0.00  0.00    +0.000 A 
ATOM     19  C   UNL     1       5.091   4.328  15.981  0.00  0.00    +0.000 A 
ATOM     20  C   UNL     1       5.074   3.850  14.669  0.00  0.00    +0.000 A 
ATOM     21  C   UNL     1       6.171   4.068  13.839  0.00  0.00    +0.000 A 
ATOM     22 CL   UNL     1       6.185   3.413  12.249  0.00  0.00    +0.000 Cl
ATOM     23  C   UNL     1       7.265   4.800  14.294  0.00  0.00    +0.000 A 
ATOM     24  C   UNL     1       7.285   5.272  15.607  0.00  0.00    +0.000 A 
ENDBRANCH  17  18
ENDBRANCH   5  17
TORSDOF 2
ENDMDL
MODEL 6
REMARK VINA RESULT:      -7.0      1.627      3.956
REMARK  Name = 
REMARK  4 active torsions:
REMARK  status: ('A' for Active; 'I' for Inactive)
REMARK    1  A    between atoms: C_1  and  C_2
REMARK    2  A    between atoms: N_5  and  C_6
REMARK    3  A    between atoms: C_6  and  C_7
REMARK    4  A    between atoms: C_22  and  C_23
REMARK                            x       y       z     vdW  Elec       q    Type
REMARK                         _______ _______ _______ _____ _____    ______ ____
ROOT
ATOM      1  C   UNL     1       0.610   2.812  20.487  0.00  0.00    +0.000 C 
ATOM      2  C   UNL     1       2.071   3.214  20.643  0.00  0.00    +0.000 C 
ATOM      3  N   UNL     1       2.254   4.653  20.279  0.00  0.00    +0.000 NA
ATOM      4  C   UNL     1       2.897   4.652  19.144  0.00  0.00    +0.000 C 
ATOM      5  N   UNL     1       3.384   5.757  18.459  0.00  0.00    +0.000 N 
ATOM      6  C   UNL     1       4.101   5.510  17.322  0.00  0.00    +0.000 A 
ATOM      7  N   UNL     1       4.797   6.380  16.535  0.00  0.00    +0.000 N 
ATOM      8  C   UNL     1       5.426   5.628  15.574  0.00  0.00    +0.000 A 
ATOM      9  N   UNL     1       5.145   4.349  15.684  0.00  0.00    +0.000 NA
ATOM     10  C   UNL     1       4.320   4.262  16.777  0.00  0.00    +0.000 A 
ATOM     11  C   UNL     1       3.828   3.068  17.450  0.00  0.00    +0.000 C 
ATOM     12  O   UNL     1       4.057   1.918  17.082  0.00  0.00    +0.000 OA
ATOM     13  N   UNL     1       3.151   3.376  18.630  0.00  0.00    +0.000 N 
ATOM     14  C   UNL     1       3.010   2.452  19.714  0.00  0.00    +0.000 C 
ATOM     15  C   UNL     1       4.385   2.284  20.388  0.00  0.00    +0.000 C 
ATOM     16  H   UNL     1       4.870   7.381  16.645  0.00  0.00    +0.000 HD
ENDROOT
BRANCH   5  17
ATOM     17  C   UNL     1       3.574   7.002  19.217  0.00  0.00    +0.000 C 
BRANCH  17  18
ATOM     18  C   UNL     1       2.405   7.957  19.108  0.00  0.00    +0.000 A 
ATOM     19  C   UNL     1       2.038   8.531  17.882  0.00  0.00    +0.000 A 
ATOM     20  C   UNL     1       0.986   9.448  17.817  0.00  0.00    +0.000 A 
ATOM     21  C   UNL     1       0.278   9.771  18.972  0.00  0.00    +0.000 A 
ATOM     22 CL   UNL     1      -0.965  10.958  18.910  0.00  0.00    +0.000 Cl
ATOM     23  C   UNL     1       0.579   9.149  20.181  0.00  0.00    +0.000 A 
ATOM     24  C   UNL     1       1.633   8.237  20.248  0.00  0.00    +0.000 A 
ENDBRANCH  17  18
ENDBRANCH   5  17
TORSDOF 2
ENDMDL
MODEL 7
REMARK VINA RESULT:      -6.9      3.584      6.188
REMARK  Name = 
REMARK  4 active torsions:
REMARK  status: ('A' for Active; 'I' for Inactive)
REMARK    1  A    between atoms: C_1  and  C_2
REMARK    2  A    between atoms: N_5  and  C_6
REMARK    3  A    between atoms: C_6  and  C_7
REMARK    4  A    between atoms: C_22  and  C_23
REMARK                            x       y       z     vdW  Elec       q    Type
REMARK                         _______ _______ _______ _____ _____    ______ ____
ROOT
ATOM      1  C   UNL     1       1.714   8.365  17.523  0.00  0.00    +0.000 C 
ATOM      2  C   UNL     1       2.614   7.719  18.569  0.00  0.00    +0.000 C 
ATOM      3  N   UNL     1       3.698   6.932  17.905  0.00  0.00    +0.000 NA
ATOM      4  C   UNL     1       3.404   5.679  18.111  0.00  0.00    +0.000 C 
ATOM      5  N   UNL     1       4.172   4.573  17.770  0.00  0.00    +0.000 N 
ATOM      6  C   UNL     1       3.699   3.351  18.159  0.00  0.00    +0.000 A 
ATOM      7  N   UNL     1       4.298   2.128  18.078  0.00  0.00    +0.000 N 
ATOM      8  C   UNL     1       3.458   1.234  18.693  0.00  0.00    +0.000 A 
ATOM      9  N   UNL     1       2.357   1.806  19.125  0.00  0.00    +0.000 NA
ATOM     10  C   UNL     1       2.497   3.132  18.801  0.00  0.00    +0.000 A 
ATOM     11  C   UNL     1       1.650   4.253  19.178  0.00  0.00    +0.000 C 
ATOM     12  O   UNL     1       0.613   4.153  19.830  0.00  0.00    +0.000 OA
ATOM     13  N   UNL     1       2.206   5.477  18.805  0.00  0.00    +0.000 N 
ATOM     14  C   UNL     1       1.885   6.712  19.453  0.00  0.00    +0.000 C 
ATOM     15  C   UNL     1       2.518   6.699  20.858  0.00  0.00    +0.000 C 
ATOM     16  H   UNL     1       5.198   1.913  17.674  0.00  0.00    +0.000 HD
ENDROOT
BRANCH   5  17
ATOM     17  C   UNL     1       5.606   4.786  17.527  0.00  0.00    +0.000 C 
BRANCH  17  18
ATOM     18  C   UNL     1       5.989   4.685  16.067  0.00  0.00    +0.000 A 
ATOM     19  C   UNL     1       5.153   4.061  15.129  0.00  0.00    +0.000 A 
ATOM     20  C   UNL     1       5.553   3.937  13.797  0.00  0.00    +0.000 A 
ATOM     21  C   UNL     1       6.775   4.466  13.389  0.00  0.00    +0.000 A 
ATOM     22 CL   UNL     1       7.306   4.247  11.768  0.00  0.00    +0.000 Cl
ATOM     23  C   UNL     1       7.580   5.160  14.291  0.00  0.00    +0.000 A 
ATOM     24  C   UNL     1       7.183   5.278  15.624  0.00  0.00    +0.000 A 
ENDBRANCH  17  18
ENDBRANCH   5  17
TORSDOF 2
ENDMDL
MODEL 8
REMARK VINA RESULT:      -6.9      3.545      6.195
REMARK  Name = 
REMARK  4 active torsions:
REMARK  status: ('A' for Active; 'I' for Inactive)
REMARK    1  A    between atoms: C_1  and  C_2
REMARK    2  A    between atoms: N_5  and  C_6
REMARK    3  A    between atoms: C_6  and  C_7
REMARK    4  A    between atoms: C_22  and  C_23
REMARK                            x       y       z     vdW  Elec       q    Type
REMARK                         _______ _______ _______ _____ _____    ______ ____
ROOT
ATOM      1  C   UNL     1       1.632   8.373  17.602  0.00  0.00    +0.000 C 
ATOM      2  C   UNL     1       2.527   7.725  18.651  0.00  0.00    +0.000 C 
ATOM      3  N   UNL     1       3.643   6.980  17.992  0.00  0.00    +0.000 NA
ATOM      4  C   UNL     1       3.376   5.716  18.163  0.00  0.00    +0.000 C 
ATOM      5  N   UNL     1       4.178   4.637  17.813  0.00  0.00    +0.000 N 
ATOM      6  C   UNL     1       3.727   3.395  18.164  0.00  0.00    +0.000 A 
ATOM      7  N   UNL     1       4.357   2.190  18.066  0.00  0.00    +0.000 N 
ATOM      8  C   UNL     1       3.527   1.261  18.644  0.00  0.00    +0.000 A 
ATOM      9  N   UNL     1       2.404   1.796  19.067  0.00  0.00    +0.000 NA
ATOM     10  C   UNL     1       2.519   3.133  18.776  0.00  0.00    +0.000 A 
ATOM     11  C   UNL     1       1.636   4.224  19.161  0.00  0.00    +0.000 C 
ATOM     12  O   UNL     1       0.589   4.083  19.789  0.00  0.00    +0.000 OA
ATOM     13  N   UNL     1       2.169   5.469  18.827  0.00  0.00    +0.000 N 
ATOM     14  C   UNL     1       1.806   6.680  19.498  0.00  0.00    +0.000 C 
ATOM     15  C   UNL     1       2.411   6.650  20.914  0.00  0.00    +0.000 C 
ATOM     16  H   UNL     1       5.270   2.006  17.676  0.00  0.00    +0.000 HD
ENDROOT
BRANCH   5  17
ATOM     17  C   UNL     1       5.610   4.890  17.604  0.00  0.00    +0.000 C 
BRANCH  17  18
ATOM     18  C   UNL     1       6.045   4.726  16.164  0.00  0.00    +0.000 A 
ATOM     19  C   UNL     1       7.322   5.114  15.733  0.00  0.00    +0.000 A 
ATOM     20  C   UNL     1       7.681   4.999  14.388  0.00  0.00    +0.000 A 
ATOM     21  C   UNL     1       6.776   4.465  13.474  0.00  0.00    +0.000 A 
ATOM     22 CL   UNL     1       7.186   4.394  11.806  0.00  0.00    +0.000 Cl
ATOM     23  C   UNL     1       5.534   4.001  13.900  0.00  0.00    +0.000 A 
ATOM     24  C   UNL     1       5.172   4.122  15.243  0.00  0.00    +0.000 A 
ENDBRANCH  17  18
ENDBRANCH   5  17
TORSDOF 2
ENDMDL
MODEL 9
REMARK VINA RESULT:      -6.8      1.613      3.828
REMARK  Name = 
REMARK  4 active torsions:
REMARK  status: ('A' for Active; 'I' for Inactive)
REMARK    1  A    between atoms: C_1  and  C_2
REMARK    2  A    between atoms: N_5  and  C_6
REMARK    3  A    between atoms: C_6  and  C_7
REMARK    4  A    between atoms: C_22  and  C_23
REMARK                            x       y       z     vdW  Elec       q    Type
REMARK                         _______ _______ _______ _____ _____    ______ ____
ROOT
ATOM      1  C   UNL     1       0.464   2.355  18.899  0.00  0.00    +0.000 C 
ATOM      2  C   UNL     1       1.752   2.782  19.591  0.00  0.00    +0.000 C 
ATOM      3  N   UNL     1       1.804   4.271  19.719  0.00  0.00    +0.000 NA
ATOM      4  C   UNL     1       2.715   4.668  18.875  0.00  0.00    +0.000 C 
ATOM      5  N   UNL     1       3.191   5.961  18.708  0.00  0.00    +0.000 N 
ATOM      6  C   UNL     1       4.213   6.131  17.815  0.00  0.00    +0.000 A 
ATOM      7  N   UNL     1       4.951   7.246  17.550  0.00  0.00    +0.000 N 
ATOM      8  C   UNL     1       5.919   6.877  16.649  0.00  0.00    +0.000 A 
ATOM      9  N   UNL     1       5.817   5.613  16.305  0.00  0.00    +0.000 NA
ATOM     10  C   UNL     1       4.756   5.134  17.031  0.00  0.00    +0.000 A 
ATOM     11  C   UNL     1       4.292   3.760  17.161  0.00  0.00    +0.000 C 
ATOM     12  O   UNL     1       4.783   2.801  16.570  0.00  0.00    +0.000 OA
ATOM     13  N   UNL     1       3.289   3.637  18.122  0.00  0.00    +0.000 N 
ATOM     14  C   UNL     1       3.009   2.413  18.808  0.00  0.00    +0.000 C 
ATOM     15  C   UNL     1       4.166   2.130  19.786  0.00  0.00    +0.000 C 
ATOM     16  H   UNL     1       4.838   8.165  17.954  0.00  0.00    +0.000 HD
ENDROOT
BRANCH   5  17
ATOM     17  C   UNL     1       2.983   6.914  19.807  0.00  0.00    +0.000 C 
BRANCH  17  18
ATOM     18  C   UNL     1       1.994   8.010  19.472  0.00  0.00    +0.000 A 
ATOM     19  C   UNL     1       1.210   8.620  20.462  0.00  0.00    +0.000 A 
ATOM     20  C   UNL     1       0.269   9.594  20.119  0.00  0.00    +0.000 A 
ATOM     21  C   UNL     1       0.132   9.985  18.790  0.00  0.00    +0.000 A 
ATOM     22 CL   UNL     1      -1.078  11.127  18.354  0.00  0.00    +0.000 Cl
ATOM     23  C   UNL     1       0.959   9.447  17.806  0.00  0.00    +0.000 A 
ATOM     24  C   UNL     1       1.895   8.469  18.148  0.00  0.00    +0.000 A 
ENDBRANCH  17  18
ENDBRANCH   5  17
TORSDOF 2
ENDMDL
