MODEL 1
REMARK VINA RESULT:      -7.6      0.000      0.000
REMARK  Name = 
REMARK  2 active torsions:
REMARK  status: ('A' for Active; 'I' for Inactive)
REMARK    1  A    between atoms: N_11  and  C_12
REMARK    2  A    between atoms: C_12  and  C_13
REMARK                            x       y       z     vdW  Elec       q    Type
REMARK                         _______ _______ _______ _____ _____    ______ ____
ROOT
ATOM      1  N   UNL     1       8.628   9.199  17.402  0.00  0.00    +0.000 N 
ATOM      2  C   UNL     1       7.927   8.056  17.735  0.00  0.00    +0.000 A 
ATOM      3  N   UNL     1       8.387   7.312  18.741  0.00  0.00    +0.000 NA
ATOM      4  C   UNL     1       7.682   6.217  19.060  0.00  0.00    +0.000 A 
ATOM      5  N   UNL     1       8.242   5.419  20.060  0.00  0.00    +0.000 N 
ATOM      6  C   UNL     1       6.513   5.856  18.413  0.00  0.00    +0.000 A 
ATOM      7  C   UNL     1       6.132   6.692  17.379  0.00  0.00    +0.000 A 
ATOM      8  N   UNL     1       6.815   7.807  17.045  0.00  0.00    +0.000 NA
ATOM      9  C   UNL     1       4.899   6.390  16.577  0.00  0.00    +0.000 C 
ATOM     10  C   UNL     1       4.503   4.915  16.680  0.00  0.00    +0.000 C 
ATOM     11  N   UNL     1       4.419   4.515  18.096  0.00  0.00    +0.000 NA
ATOM     12  C   UNL     1       5.767   4.586  18.710  0.00  0.00    +0.000 C 
ATOM     13  H   UNL     1       9.146   9.531  18.202  0.00  0.00    +0.000 HD
ATOM     14  H   UNL     1       8.008   9.850  16.941  0.00  0.00    +0.000 HD
ATOM     15  H   UNL     1       9.077   5.902  20.386  0.00  0.00    +0.000 HD
ATOM     16  H   UNL     1       7.596   5.249  20.822  0.00  0.00    +0.000 HD
ENDROOT
BRANCH  11  17
ATOM     17  C   UNL     1       3.876   3.153  18.264  0.00  0.00    +0.000 C 
BRANCH  17  18
ATOM     18  C   UNL     1       2.970   3.002  19.459  0.00  0.00    +0.000 A 
ATOM     19  C   UNL     1       1.584   3.161  19.365  0.00  0.00    +0.000 A 
ATOM     20  C   UNL     1       0.787   2.943  20.486  0.00  0.00    +0.000 A 
ATOM     21  C   UNL     1       1.405   2.579  21.671  0.00  0.00    +0.000 A 
ATOM     22  N   UNL     1       2.741   2.440  21.809  0.00  0.00    +0.000 NA
ATOM     23  C   UNL     1       3.489   2.656  20.705  0.00  0.00    +0.000 A 
ENDBRANCH  17  18
ENDBRANCH  11  17
TORSDOF 2
ENDMDL
MODEL 2
REMARK VINA RESULT:      -7.5      0.714      1.126
REMARK  Name = 
REMARK  2 active torsions:
REMARK  status: ('A' for Active; 'I' for Inactive)
REMARK    1  A    between atoms: N_11  and  C_12
REMARK    2  A    between atoms: C_12  and  C_13
REMARK                            x       y       z     vdW  Elec       q    Type
REMARK                         _______ _______ _______ _____ _____    ______ ____
ROOT
ATOM      1  N   UNL     1       8.550   9.173  17.306  0.00  0.00    +0.000 N 
ATOM      2  C   UNL     1       7.870   8.016  17.635  0.00  0.00    +0.000 A 
ATOM      3  N   UNL     1       8.305   7.311  18.679  0.00  0.00    +0.000 NA
ATOM      4  C   UNL     1       7.620   6.200  18.991  0.00  0.00    +0.000 A 
ATOM      5  N   UNL     1       8.156   5.445  20.036  0.00  0.00    +0.000 N 
ATOM      6  C   UNL     1       6.495   5.787  18.300  0.00  0.00    +0.000 A 
ATOM      7  C   UNL     1       6.137   6.586  17.229  0.00  0.00    +0.000 A 
ATOM      8  N   UNL     1       6.800   7.714  16.900  0.00  0.00    +0.000 NA
ATOM      9  C   UNL     1       4.954   6.226  16.378  0.00  0.00    +0.000 C 
ATOM     10  C   UNL     1       4.600   4.742  16.499  0.00  0.00    +0.000 C 
ATOM     11  N   UNL     1       4.462   4.372  17.919  0.00  0.00    +0.000 NA
ATOM     12  C   UNL     1       5.776   4.501  18.593  0.00  0.00    +0.000 C 
ATOM     13  H   UNL     1       9.019   9.540  18.122  0.00  0.00    +0.000 HD
ATOM     14  H   UNL     1       7.931   9.793  16.802  0.00  0.00    +0.000 HD
ATOM     15  H   UNL     1       8.960   5.962  20.388  0.00  0.00    +0.000 HD
ATOM     16  H   UNL     1       7.482   5.271  20.771  0.00  0.00    +0.000 HD
ENDROOT
BRANCH  11  17
ATOM     17  C   UNL     1       3.954   2.997  18.094  0.00  0.00    +0.000 C 
BRANCH  17  18
ATOM     18  C   UNL     1       2.989   2.846  19.243  0.00  0.00    +0.000 A 
ATOM     19  C   UNL     1       3.422   2.595  20.548  0.00  0.00    +0.000 A 
ATOM     20  C   UNL     1       2.494   2.533  21.583  0.00  0.00    +0.000 A 
ATOM     21  C   UNL     1       1.155   2.716  21.278  0.00  0.00    +0.000 A 
ATOM     22  N   UNL     1       0.694   2.935  20.028  0.00  0.00    +0.000 NA
ATOM     23  C   UNL     1       1.618   2.992  19.043  0.00  0.00    +0.000 A 
ENDBRANCH  17  18
ENDBRANCH  11  17
TORSDOF 2
ENDMDL
MODEL 3
REMARK VINA RESULT:      -7.4      2.712      6.707
REMARK  Name = 
REMARK  2 active torsions:
REMARK  status: ('A' for Active; 'I' for Inactive)
REMARK    1  A    between atoms: N_11  and  C_12
REMARK    2  A    between atoms: C_12  and  C_13
REMARK                            x       y       z     vdW  Elec       q    Type
REMARK                         _______ _______ _______ _____ _____    ______ ____
ROOT
ATOM      1  N   UNL     1       0.782   2.956  21.187  0.00  0.00    +0.000 N 
ATOM      2  C   UNL     1       1.921   3.169  20.436  0.00  0.00    +0.000 A 
ATOM      3  N   UNL     1       2.983   2.401  20.679  0.00  0.00    +0.000 NA
ATOM      4  C   UNL     1       4.073   2.612  19.926  0.00  0.00    +0.000 A 
ATOM      5  N   UNL     1       5.190   1.847  20.268  0.00  0.00    +0.000 N 
ATOM      6  C   UNL     1       4.123   3.558  18.917  0.00  0.00    +0.000 A 
ATOM      7  C   UNL     1       2.970   4.306  18.757  0.00  0.00    +0.000 A 
ATOM      8  N   UNL     1       1.856   4.106  19.491  0.00  0.00    +0.000 NA
ATOM      9  C   UNL     1       2.909   5.388  17.717  0.00  0.00    +0.000 C 
ATOM     10  C   UNL     1       4.306   5.864  17.313  0.00  0.00    +0.000 C 
ATOM     11  N   UNL     1       5.142   4.709  16.938  0.00  0.00    +0.000 NA
ATOM     12  C   UNL     1       5.366   3.856  18.129  0.00  0.00    +0.000 C 
ATOM     13  H   UNL     1       0.766   2.005  21.527  0.00  0.00    +0.000 HD
ATOM     14  H   UNL     1      -0.024   3.284  20.674  0.00  0.00    +0.000 HD
ATOM     15  H   UNL     1       4.898   1.221  21.017  0.00  0.00    +0.000 HD
ATOM     16  H   UNL     1       5.557   1.328  19.480  0.00  0.00    +0.000 HD
ENDROOT
BRANCH  11  17
ATOM     17  C   UNL     1       6.444   5.118  16.375  0.00  0.00    +0.000 C 
BRANCH  17  18
ATOM     18  C   UNL     1       6.617   4.761  14.921  0.00  0.00    +0.000 A 
ATOM     19  C   UNL     1       5.822   3.798  14.293  0.00  0.00    +0.000 A 
ATOM     20  C   UNL     1       5.977   3.556  12.931  0.00  0.00    +0.000 A 
ATOM     21  C   UNL     1       6.932   4.283  12.239  0.00  0.00    +0.000 A 
ATOM     22  N   UNL     1       7.737   5.203  12.813  0.00  0.00    +0.000 NA
ATOM     23  C   UNL     1       7.563   5.418  14.136  0.00  0.00    +0.000 A 
ENDBRANCH  17  18
ENDBRANCH  11  17
TORSDOF 2
ENDMDL
MODEL 4
REMARK VINA RESULT:      -7.4      3.011      6.982
REMARK  Name = 
REMARK  2 active torsions:
REMARK  status: ('A' for Active; 'I' for Inactive)
REMARK    1  A    between atoms: N_11  and  C_12
REMARK    2  A    between atoms: C_12  and  C_13
REMARK                            x       y       z     vdW  Elec       q    Type
REMARK                         _______ _______ _______ _____ _____    ______ ____
ROOT
ATOM      1  N   UNL     1       0.320   3.236  20.185  0.00  0.00    +0.000 N 
ATOM      2  C   UNL     1       1.497   3.280  19.463  0.00  0.00    +0.000 A 
ATOM      3  N   UNL     1       2.119   2.129  19.212  0.00  0.00    +0.000 NA
ATOM      4  C   UNL     1       3.251   2.192  18.494  0.00  0.00    +0.000 A 
ATOM      5  N   UNL     1       3.917   0.976  18.325  0.00  0.00    +0.000 N 
ATOM      6  C   UNL     1       3.766   3.376  17.999  0.00  0.00    +0.000 A 
ATOM      7  C   UNL     1       3.047   4.512  18.327  0.00  0.00    +0.000 A 
ATOM      8  N   UNL     1       1.900   4.476  19.036  0.00  0.00    +0.000 NA
ATOM      9  C   UNL     1       3.522   5.864  17.878  0.00  0.00    +0.000 C 
ATOM     10  C   UNL     1       5.016   5.859  17.547  0.00  0.00    +0.000 C 
ATOM     11  N   UNL     1       5.318   4.766  16.606  0.00  0.00    +0.000 NA
ATOM     12  C   UNL     1       5.076   3.462  17.269  0.00  0.00    +0.000 C 
ATOM     13  H   UNL     1      -0.117   2.332  20.077  0.00  0.00    +0.000 HD
ATOM     14  H   UNL     1      -0.234   4.053  19.971  0.00  0.00    +0.000 HD
ATOM     15  H   UNL     1       3.335   0.261  18.758  0.00  0.00    +0.000 HD
ATOM     16  H   UNL     1       4.092   0.765  17.350  0.00  0.00    +0.000 HD
ENDROOT
BRANCH  11  17
ATOM     17  C   UNL     1       6.711   4.816  16.117  0.00  0.00    +0.000 C 
BRANCH  17  18
ATOM     18  C   UNL     1       6.841   4.610  14.629  0.00  0.00    +0.000 A 
ATOM     19  C   UNL     1       6.076   3.664  13.941  0.00  0.00    +0.000 A 
ATOM     20  C   UNL     1       6.186   3.563  12.556  0.00  0.00    +0.000 A 
ATOM     21  C   UNL     1       7.067   4.409  11.903  0.00  0.00    +0.000 A 
ATOM     22  N   UNL     1       7.841   5.318  12.533  0.00  0.00    +0.000 NA
ATOM     23  C   UNL     1       7.712   5.395  13.876  0.00  0.00    +0.000 A 
ENDBRANCH  17  18
ENDBRANCH  11  17
TORSDOF 2
ENDMDL
MODEL 5
REMARK VINA RESULT:      -7.3      3.105      7.016
REMARK  Name = 
REMARK  2 active torsions:
REMARK  status: ('A' for Active; 'I' for Inactive)
REMARK    1  A    between atoms: N_11  and  C_12
REMARK    2  A    between atoms: C_12  and  C_13
REMARK                            x       y       z     vdW  Elec       q    Type
REMARK                         _______ _______ _______ _____ _____    ______ ____
ROOT
ATOM      1  N   UNL     1       0.330   3.076  20.210  0.00  0.00    +0.000 N 
ATOM      2  C   UNL     1       1.490   3.167  19.467  0.00  0.00    +0.000 A 
ATOM      3  N   UNL     1       2.154   2.042  19.204  0.00  0.00    +0.000 NA
ATOM      4  C   UNL     1       3.269   2.150  18.466  0.00  0.00    +0.000 A 
ATOM      5  N   UNL     1       3.981   0.962  18.285  0.00  0.00    +0.000 N 
ATOM      6  C   UNL     1       3.727   3.355  17.962  0.00  0.00    +0.000 A 
ATOM      7  C   UNL     1       2.968   4.460  18.303  0.00  0.00    +0.000 A 
ATOM      8  N   UNL     1       1.837   4.378  19.033  0.00  0.00    +0.000 NA
ATOM      9  C   UNL     1       3.380   5.830  17.845  0.00  0.00    +0.000 C 
ATOM     10  C   UNL     1       4.866   5.885  17.487  0.00  0.00    +0.000 C 
ATOM     11  N   UNL     1       5.196   4.805  16.540  0.00  0.00    +0.000 NA
ATOM     12  C   UNL     1       5.018   3.493  17.208  0.00  0.00    +0.000 C 
ATOM     13  H   UNL     1      -0.072   2.155  20.110  0.00  0.00    +0.000 HD
ATOM     14  H   UNL     1      -0.261   3.870  20.007  0.00  0.00    +0.000 HD
ATOM     15  H   UNL     1       3.436   0.225  18.728  0.00  0.00    +0.000 HD
ATOM     16  H   UNL     1       4.146   0.759  17.307  0.00  0.00    +0.000 HD
ENDROOT
BRANCH  11  17
ATOM     17  C   UNL     1       6.575   4.911  16.026  0.00  0.00    +0.000 C 
BRANCH  17  18
ATOM     18  C   UNL     1       6.692   4.671  14.542  0.00  0.00    +0.000 A 
ATOM     19  C   UNL     1       7.629   5.343  13.752  0.00  0.00    +0.000 A 
ATOM     20  C   UNL     1       7.741   5.034  12.399  0.00  0.00    +0.000 A 
ATOM     21  C   UNL     1       6.902   4.064  11.876  0.00  0.00    +0.000 A 
ATOM     22  N   UNL     1       5.967   3.411  12.598  0.00  0.00    +0.000 NA
ATOM     23  C   UNL     1       5.882   3.730  13.908  0.00  0.00    +0.000 A 
ENDBRANCH  17  18
ENDBRANCH  11  17
TORSDOF 2
ENDMDL
MODEL 6
REMARK VINA RESULT:      -7.3      2.477      6.409
REMARK  Name = 
REMARK  2 active torsions:
REMARK  status: ('A' for Active; 'I' for Inactive)
REMARK    1  A    between atoms: N_11  and  C_12
REMARK    2  A    between atoms: C_12  and  C_13
REMARK                            x       y       z     vdW  Elec       q    Type
REMARK                         _______ _______ _______ _____ _____    ______ ____
ROOT
ATOM      1  N   UNL     1       1.061   2.423  22.442  0.00  0.00    +0.000 N 
ATOM      2  C   UNL     1       1.882   2.998  21.492  0.00  0.00    +0.000 A 
ATOM      3  N   UNL     1       2.960   2.319  21.104  0.00  0.00    +0.000 NA
ATOM      4  C   UNL     1       3.735   2.888  20.167  0.00  0.00    +0.000 A 
ATOM      5  N   UNL     1       4.899   2.185  19.850  0.00  0.00    +0.000 N 
ATOM      6  C   UNL     1       3.446   4.111  19.590  0.00  0.00    +0.000 A 
ATOM      7  C   UNL     1       2.309   4.735  20.073  0.00  0.00    +0.000 A 
ATOM      8  N   UNL     1       1.506   4.180  21.005  0.00  0.00    +0.000 NA
ATOM      9  C   UNL     1       1.907   6.084  19.551  0.00  0.00    +0.000 C 
ATOM     10  C   UNL     1       3.088   6.822  18.917  0.00  0.00    +0.000 C 
ATOM     11  N   UNL     1       3.745   5.957  17.921  0.00  0.00    +0.000 NA
ATOM     12  C   UNL     1       4.353   4.791  18.605  0.00  0.00    +0.000 C 
ATOM     13  H   UNL     1       1.157   1.418  22.417  0.00  0.00    +0.000 HD
ATOM     14  H   UNL     1       0.131   2.807  22.358  0.00  0.00    +0.000 HD
ATOM     15  H   UNL     1       4.873   1.319  20.386  0.00  0.00    +0.000 HD
ATOM     16  H   UNL     1       4.978   1.999  18.858  0.00  0.00    +0.000 HD
ENDROOT
BRANCH  11  17
ATOM     17  C   UNL     1       4.783   6.673  17.154  0.00  0.00    +0.000 C 
BRANCH  17  18
ATOM     18  C   UNL     1       5.529   5.799  16.177  0.00  0.00    +0.000 A 
ATOM     19  C   UNL     1       4.889   5.171  15.105  0.00  0.00    +0.000 A 
ATOM     20  C   UNL     1       5.637   4.431  14.193  0.00  0.00    +0.000 A 
ATOM     21  C   UNL     1       7.005   4.335  14.388  0.00  0.00    +0.000 A 
ATOM     22  N   UNL     1       7.656   4.904  15.425  0.00  0.00    +0.000 NA
ATOM     23  C   UNL     1       6.906   5.618  16.293  0.00  0.00    +0.000 A 
ENDBRANCH  17  18
ENDBRANCH  11  17
TORSDOF 2
ENDMDL
MODEL 7
REMARK VINA RESULT:      -7.1      2.226      2.632
REMARK  Name = 
REMARK  2 active torsions:
REMARK  status: ('A' for Active; 'I' for Inactive)
REMARK    1  A    between atoms: N_11  and  C_12
REMARK    2  A    between atoms: C_12  and  C_13
REMARK                            x       y       z     vdW  Elec       q    Type
REMARK                         _______ _______ _______ _____ _____    ______ ____
ROOT
ATOM      1  N   UNL     1       7.381   5.574  14.828  0.00  0.00    +0.000 N 
ATOM      2  C   UNL     1       6.532   5.555  15.917  0.00  0.00    +0.000 A 
ATOM      3  N   UNL     1       6.753   4.646  16.866  0.00  0.00    +0.000 NA
ATOM      4  C   UNL     1       5.928   4.656  17.924  0.00  0.00    +0.000 A 
ATOM      5  N   UNL     1       6.140   3.636  18.854  0.00  0.00    +0.000 N 
ATOM      6  C   UNL     1       4.897   5.567  18.068  0.00  0.00    +0.000 A 
ATOM      7  C   UNL     1       4.750   6.458  17.021  0.00  0.00    +0.000 A 
ATOM      8  N   UNL     1       5.573   6.479  15.952  0.00  0.00    +0.000 NA
ATOM      9  C   UNL     1       3.646   7.476  17.043  0.00  0.00    +0.000 C 
ATOM     10  C   UNL     1       2.513   7.063  17.986  0.00  0.00    +0.000 C 
ATOM     11  N   UNL     1       3.060   6.732  19.314  0.00  0.00    +0.000 NA
ATOM     12  C   UNL     1       3.918   5.528  19.207  0.00  0.00    +0.000 C 
ATOM     13  H   UNL     1       8.276   5.183  15.082  0.00  0.00    +0.000 HD
ATOM     14  H   UNL     1       7.373   6.496  14.413  0.00  0.00    +0.000 HD
ATOM     15  H   UNL     1       6.957   3.116  18.536  0.00  0.00    +0.000 HD
ATOM     16  H   UNL     1       6.274   3.993  19.792  0.00  0.00    +0.000 HD
ENDROOT
BRANCH  11  17
ATOM     17  C   UNL     1       2.001   6.492  20.313  0.00  0.00    +0.000 C 
BRANCH  17  18
ATOM     18  C   UNL     1       1.745   5.032  20.591  0.00  0.00    +0.000 A 
ATOM     19  C   UNL     1       0.959   4.243  19.746  0.00  0.00    +0.000 A 
ATOM     20  C   UNL     1       0.811   2.884  20.011  0.00  0.00    +0.000 A 
ATOM     21  C   UNL     1       1.450   2.358  21.122  0.00  0.00    +0.000 A 
ATOM     22  N   UNL     1       2.195   3.091  21.976  0.00  0.00    +0.000 NA
ATOM     23  C   UNL     1       2.322   4.406  21.693  0.00  0.00    +0.000 A 
ENDBRANCH  17  18
ENDBRANCH  11  17
TORSDOF 2
ENDMDL
MODEL 8
REMARK VINA RESULT:      -7.1      0.928      1.051
REMARK  Name = 
REMARK  2 active torsions:
REMARK  status: ('A' for Active; 'I' for Inactive)
REMARK    1  A    between atoms: N_11  and  C_12
REMARK    2  A    between atoms: C_12  and  C_13
REMARK                            x       y       z     vdW  Elec       q    Type
REMARK                         _______ _______ _______ _____ _____    ______ ____
ROOT
ATOM      1  N   UNL     1       8.830   9.498  17.778  0.00  0.00    +0.000 N 
ATOM      2  C   UNL     1       8.126   8.319  17.929  0.00  0.00    +0.000 A 
ATOM      3  N   UNL     1       8.516   7.476  18.885  0.00  0.00    +0.000 NA
ATOM      4  C   UNL     1       7.808   6.346  19.026  0.00  0.00    +0.000 A 
ATOM      5  N   UNL     1       8.300   5.451  19.980  0.00  0.00    +0.000 N 
ATOM      6  C   UNL     1       6.703   6.045  18.250  0.00  0.00    +0.000 A 
ATOM      7  C   UNL     1       6.392   6.983  17.282  0.00  0.00    +0.000 A 
ATOM      8  N   UNL     1       7.079   8.133  17.126  0.00  0.00    +0.000 NA
ATOM      9  C   UNL     1       5.235   6.756  16.353  0.00  0.00    +0.000 C 
ATOM     10  C   UNL     1       4.860   5.274  16.266  0.00  0.00    +0.000 C 
ATOM     11  N   UNL     1       4.668   4.725  17.620  0.00  0.00    +0.000 NA
ATOM     12  C   UNL     1       5.960   4.743  18.348  0.00  0.00    +0.000 C 
ATOM     13  H   UNL     1       9.275   9.748  18.649  0.00  0.00    +0.000 HD
ATOM     14  H   UNL     1       8.237  10.188  17.339  0.00  0.00    +0.000 HD
ATOM     15  H   UNL     1       9.097   5.905  20.423  0.00  0.00    +0.000 HD
ATOM     16  H   UNL     1       7.598   5.194  20.663  0.00  0.00    +0.000 HD
ENDROOT
BRANCH  11  17
ATOM     17  C   UNL     1       4.138   3.347  17.597  0.00  0.00    +0.000 C 
BRANCH  17  18
ATOM     18  C   UNL     1       2.890   3.160  18.421  0.00  0.00    +0.000 A 
ATOM     19  C   UNL     1       1.895   2.245  18.065  0.00  0.00    +0.000 A 
ATOM     20  C   UNL     1       0.795   2.063  18.899  0.00  0.00    +0.000 A 
ATOM     21  C   UNL     1       0.721   2.811  20.062  0.00  0.00    +0.000 A 
ATOM     22  N   UNL     1       1.647   3.723  20.428  0.00  0.00    +0.000 NA
ATOM     23  C   UNL     1       2.704   3.877  19.602  0.00  0.00    +0.000 A 
ENDBRANCH  17  18
ENDBRANCH  11  17
TORSDOF 2
ENDMDL
MODEL 9
REMARK VINA RESULT:      -7.0      1.377      6.354
REMARK  Name = 
REMARK  2 active torsions:
REMARK  status: ('A' for Active; 'I' for Inactive)
REMARK    1  A    between atoms: N_11  and  C_12
REMARK    2  A    between atoms: C_12  and  C_13
REMARK                            x       y       z     vdW  Elec       q    Type
REMARK                         _______ _______ _______ _____ _____    ______ ____
ROOT
ATOM      1  N   UNL     1       1.021   2.573  22.428  0.00  0.00    +0.000 N 
ATOM      2  C   UNL     1       1.940   2.843  21.433  0.00  0.00    +0.000 A 
ATOM      3  N   UNL     1       3.080   2.152  21.430  0.00  0.00    +0.000 NA
ATOM      4  C   UNL     1       3.951   2.417  20.445  0.00  0.00    +0.000 A 
ATOM      5  N   UNL     1       5.167   1.734  20.526  0.00  0.00    +0.000 N 
ATOM      6  C   UNL     1       3.704   3.342  19.447  0.00  0.00    +0.000 A 
ATOM      7  C   UNL     1       2.496   4.009  19.551  0.00  0.00    +0.000 A 
ATOM      8  N   UNL     1       1.596   3.754  20.523  0.00  0.00    +0.000 NA
ATOM      9  C   UNL     1       2.125   5.063  18.547  0.00  0.00    +0.000 C 
ATOM     10  C   UNL     1       3.356   5.620  17.829  0.00  0.00    +0.000 C 
ATOM     11  N   UNL     1       4.161   4.514  17.280  0.00  0.00    +0.000 NA
ATOM     12  C   UNL     1       4.710   3.704  18.392  0.00  0.00    +0.000 C 
ATOM     13  H   UNL     1       1.149   1.630  22.768  0.00  0.00    +0.000 HD
ATOM     14  H   UNL     1       0.098   2.836  22.111  0.00  0.00    +0.000 HD
ATOM     15  H   UNL     1       5.097   1.107  21.326  0.00  0.00    +0.000 HD
ATOM     16  H   UNL     1       5.378   1.224  19.678  0.00  0.00    +0.000 HD
ENDROOT
BRANCH  11  17
ATOM     17  C   UNL     1       5.269   4.995  16.430  0.00  0.00    +0.000 C 
BRANCH  17  18
ATOM     18  C   UNL     1       6.262   5.864  17.159  0.00  0.00    +0.000 A 
ATOM     19  C   UNL     1       7.036   5.379  18.218  0.00  0.00    +0.000 A 
ATOM     20  C   UNL     1       7.987   6.204  18.811  0.00  0.00    +0.000 A 
ATOM     21  C   UNL     1       8.128   7.496  18.331  0.00  0.00    +0.000 A 
ATOM     22  N   UNL     1       7.383   8.010  17.330  0.00  0.00    +0.000 NA
ATOM     23  C   UNL     1       6.469   7.186  16.771  0.00  0.00    +0.000 A 
ENDBRANCH  17  18
ENDBRANCH  11  17
TORSDOF 2
ENDMDL
