MODEL 1
REMARK VINA RESULT:      -6.7      0.000      0.000
REMARK  Name = 
REMARK  7 active torsions:
REMARK  status: ('A' for Active; 'I' for Inactive)
REMARK    1  A    between atoms: C_1  and  C_2
REMARK    2  A    between atoms: N_4  and  C_5
REMARK    3  A    between atoms: C_8  and  O_9
REMARK    4  A    between atoms: O_9  and  C_10
REMARK    5  A    between atoms: C_13  and  S_14
REMARK    6  A    between atoms: S_14  and  C_16
REMARK    7  A    between atoms: C_16  and  C_17
REMARK                            x       y       z     vdW  Elec       q    Type
REMARK                         _______ _______ _______ _____ _____    ______ ____
ROOT
ATOM      1  O   UNL     1       0.768  10.503  18.712  0.00  0.00    +0.000 OA
ENDROOT
BRANCH   1   5
ATOM      2  C   UNL     1       2.158   6.801  20.067  0.00  0.00    +0.000 A 
ATOM      3  C   UNL     1       2.373   7.235  18.757  0.00  0.00    +0.000 A 
ATOM      4  C   UNL     1       1.889   8.476  18.333  0.00  0.00    +0.000 A 
ATOM      5  C   UNL     1       1.188   9.295  19.215  0.00  0.00    +0.000 A 
ATOM      6  C   UNL     1       1.012   8.891  20.538  0.00  0.00    +0.000 A 
ATOM      7  C   UNL     1       1.461   7.632  20.951  0.00  0.00    +0.000 A 
BRANCH   2  11
ATOM      8  C   UNL     1       2.606   3.278  21.332  0.00  0.00    +0.000 C 
ATOM      9  C   UNL     1       1.842   4.407  20.690  0.00  0.00    +0.000 C 
ATOM     10  O   UNL     1       0.675   4.256  20.354  0.00  0.00    +0.000 OA
ATOM     11  N   UNL     1       2.603   5.555  20.554  0.00  0.00    +0.000 N 
ATOM     12  H   UNL     1       3.593   5.473  20.743  0.00  0.00    +0.000 HD
ENDBRANCH   2  11
ENDBRANCH   1   5
BRANCH   1  13
ATOM     13  C   UNL     1      -0.574  10.748  18.545  0.00  0.00    +0.000 A 
ATOM     14  C   UNL     1      -1.094  11.801  19.295  0.00  0.00    +0.000 A 
ATOM     15  C   UNL     1      -2.445  12.140  19.185  0.00  0.00    +0.000 A 
ATOM     16  C   UNL     1      -3.293  11.433  18.322  0.00  0.00    +0.000 A 
ATOM     17  C   UNL     1      -2.757  10.403  17.543  0.00  0.00    +0.000 A 
ATOM     18  C   UNL     1      -1.400  10.077  17.639  0.00  0.00    +0.000 A 
BRANCH  16  19
ATOM     19  S   UNL     1      -5.005  11.988  18.213  0.00  0.00    +0.000 S 
ATOM     20  O   UNL     1      -5.298  12.206  16.687  0.00  0.00    +0.000 OA
BRANCH  19  21
ATOM     21  C   UNL     1      -5.926  10.515  18.753  0.00  0.00    +0.000 C 
BRANCH  21  22
ATOM     22  C   UNL     1      -7.188  10.976  19.417  0.00  0.00    +0.000 C 
ATOM     23  C   UNL     1      -7.167  11.675  20.748  0.00  0.00    +0.000 C 
ATOM     24  S   UNL     1      -7.788  10.066  20.757  0.00  0.00    +0.000 S 
ENDBRANCH  21  22
ENDBRANCH  19  21
ENDBRANCH  16  19
ENDBRANCH   1  13
TORSDOF 6
ENDMDL
MODEL 2
REMARK VINA RESULT:      -6.5      4.515      9.199
REMARK  Name = 
REMARK  7 active torsions:
REMARK  status: ('A' for Active; 'I' for Inactive)
REMARK    1  A    between atoms: C_1  and  C_2
REMARK    2  A    between atoms: N_4  and  C_5
REMARK    3  A    between atoms: C_8  and  O_9
REMARK    4  A    between atoms: O_9  and  C_10
REMARK    5  A    between atoms: C_13  and  S_14
REMARK    6  A    between atoms: S_14  and  C_16
REMARK    7  A    between atoms: C_16  and  C_17
REMARK                            x       y       z     vdW  Elec       q    Type
REMARK                         _______ _______ _______ _____ _____    ______ ____
ROOT
ATOM      1  O   UNL     1       0.685  10.688  18.493  0.00  0.00    +0.000 OA
ENDROOT
BRANCH   1   5
ATOM      2  C   UNL     1      -3.459  11.233  18.553  0.00  0.00    +0.000 A 
ATOM      3  C   UNL     1      -2.601  12.013  19.332  0.00  0.00    +0.000 A 
ATOM      4  C   UNL     1      -1.220  11.801  19.295  0.00  0.00    +0.000 A 
ATOM      5  C   UNL     1      -0.684  10.809  18.477  0.00  0.00    +0.000 A 
ATOM      6  C   UNL     1      -1.529  10.059  17.659  0.00  0.00    +0.000 A 
ATOM      7  C   UNL     1      -2.915  10.244  17.728  0.00  0.00    +0.000 A 
BRANCH   2  11
ATOM      8  C   UNL     1      -7.087  12.042  17.927  0.00  0.00    +0.000 C 
ATOM      9  C   UNL     1      -5.629  11.956  17.560  0.00  0.00    +0.000 C 
ATOM     10  O   UNL     1      -5.235  12.372  16.478  0.00  0.00    +0.000 OA
ATOM     11  N   UNL     1      -4.861  11.383  18.558  0.00  0.00    +0.000 N 
ATOM     12  H   UNL     1      -5.357  10.955  19.328  0.00  0.00    +0.000 HD
ENDBRANCH   2  11
ENDBRANCH   1   5
BRANCH   1  13
ATOM     13  C   UNL     1       1.263   9.479  18.800  0.00  0.00    +0.000 A 
ATOM     14  C   UNL     1       2.050   8.914  17.799  0.00  0.00    +0.000 A 
ATOM     15  C   UNL     1       2.696   7.694  18.019  0.00  0.00    +0.000 A 
ATOM     16  C   UNL     1       2.563   7.024  19.243  0.00  0.00    +0.000 A 
ATOM     17  C   UNL     1       1.804   7.615  20.257  0.00  0.00    +0.000 A 
ATOM     18  C   UNL     1       1.175   8.846  20.043  0.00  0.00    +0.000 A 
BRANCH  16  19
ATOM     19  S   UNL     1       3.481   5.485  19.442  0.00  0.00    +0.000 S 
ATOM     20  O   UNL     1       2.417   4.332  19.402  0.00  0.00    +0.000 OA
BRANCH  19  21
ATOM     21  C   UNL     1       4.446   5.406  17.901  0.00  0.00    +0.000 C 
BRANCH  21  22
ATOM     22  C   UNL     1       5.851   5.823  18.214  0.00  0.00    +0.000 C 
ATOM     23  C   UNL     1       6.769   6.357  17.150  0.00  0.00    +0.000 C 
ATOM     24  S   UNL     1       7.141   4.778  17.734  0.00  0.00    +0.000 S 
ENDBRANCH  21  22
ENDBRANCH  19  21
ENDBRANCH  16  19
ENDBRANCH   1  13
TORSDOF 6
ENDMDL
MODEL 3
REMARK VINA RESULT:      -6.5      4.290      8.560
REMARK  Name = 
REMARK  7 active torsions:
REMARK  status: ('A' for Active; 'I' for Inactive)
REMARK    1  A    between atoms: C_1  and  C_2
REMARK    2  A    between atoms: N_4  and  C_5
REMARK    3  A    between atoms: C_8  and  O_9
REMARK    4  A    between atoms: O_9  and  C_10
REMARK    5  A    between atoms: C_13  and  S_14
REMARK    6  A    between atoms: S_14  and  C_16
REMARK    7  A    between atoms: C_16  and  C_17
REMARK                            x       y       z     vdW  Elec       q    Type
REMARK                         _______ _______ _______ _____ _____    ______ ____
ROOT
ATOM      1  O   UNL     1       1.082  10.040  19.800  0.00  0.00    +0.000 OA
ENDROOT
BRANCH   1   5
ATOM      2  C   UNL     1      -2.432  11.564  18.127  0.00  0.00    +0.000 A 
ATOM      3  C   UNL     1      -1.805  12.178  19.213  0.00  0.00    +0.000 A 
ATOM      4  C   UNL     1      -0.634  11.640  19.754  0.00  0.00    +0.000 A 
ATOM      5  C   UNL     1      -0.078  10.483  19.213  0.00  0.00    +0.000 A 
ATOM      6  C   UNL     1      -0.671   9.891  18.098  0.00  0.00    +0.000 A 
ATOM      7  C   UNL     1      -1.865  10.406  17.582  0.00  0.00    +0.000 A 
BRANCH   2  11
ATOM      8  C   UNL     1      -5.959  12.441  17.126  0.00  0.00    +0.000 C 
ATOM      9  C   UNL     1      -4.904  11.886  18.047  0.00  0.00    +0.000 C 
ATOM     10  O   UNL     1      -5.218  11.361  19.107  0.00  0.00    +0.000 OA
ATOM     11  N   UNL     1      -3.623  12.044  17.546  0.00  0.00    +0.000 N 
ATOM     12  H   UNL     1      -3.521  12.631  16.728  0.00  0.00    +0.000 HD
ENDBRANCH   2  11
ENDBRANCH   1   5
BRANCH   1  13
ATOM     13  C   UNL     1       1.674   8.879  19.361  0.00  0.00    +0.000 A 
ATOM     14  C   UNL     1       1.623   7.803  20.245  0.00  0.00    +0.000 A 
ATOM     15  C   UNL     1       2.181   6.574  19.887  0.00  0.00    +0.000 A 
ATOM     16  C   UNL     1       2.796   6.403  18.639  0.00  0.00    +0.000 A 
ATOM     17  C   UNL     1       2.809   7.474  17.740  0.00  0.00    +0.000 A 
ATOM     18  C   UNL     1       2.232   8.699  18.093  0.00  0.00    +0.000 A 
BRANCH  16  19
ATOM     19  S   UNL     1       3.434   4.761  18.254  0.00  0.00    +0.000 S 
ATOM     20  O   UNL     1       4.872   4.978  17.662  0.00  0.00    +0.000 OA
BRANCH  19  21
ATOM     21  C   UNL     1       3.617   4.019  19.904  0.00  0.00    +0.000 C 
BRANCH  21  22
ATOM     22  C   UNL     1       2.709   2.829  19.979  0.00  0.00    +0.000 C 
ATOM     23  C   UNL     1       1.283   2.895  19.510  0.00  0.00    +0.000 C 
ATOM     24  S   UNL     1       1.505   2.793  21.217  0.00  0.00    +0.000 S 
ENDBRANCH  21  22
ENDBRANCH  19  21
ENDBRANCH  16  19
ENDBRANCH   1  13
TORSDOF 6
ENDMDL
MODEL 4
REMARK VINA RESULT:      -6.5      4.141      8.612
REMARK  Name = 
REMARK  7 active torsions:
REMARK  status: ('A' for Active; 'I' for Inactive)
REMARK    1  A    between atoms: C_1  and  C_2
REMARK    2  A    between atoms: N_4  and  C_5
REMARK    3  A    between atoms: C_8  and  O_9
REMARK    4  A    between atoms: O_9  and  C_10
REMARK    5  A    between atoms: C_13  and  S_14
REMARK    6  A    between atoms: S_14  and  C_16
REMARK    7  A    between atoms: C_16  and  C_17
REMARK                            x       y       z     vdW  Elec       q    Type
REMARK                         _______ _______ _______ _____ _____    ______ ____
ROOT
ATOM      1  O   UNL     1       0.718  11.027  18.616  0.00  0.00    +0.000 OA
ENDROOT
BRANCH   1   5
ATOM      2  C   UNL     1      -3.452  11.320  18.630  0.00  0.00    +0.000 A 
ATOM      3  C   UNL     1      -2.779  10.407  17.815  0.00  0.00    +0.000 A 
ATOM      4  C   UNL     1      -1.383  10.338  17.829  0.00  0.00    +0.000 A 
ATOM      5  C   UNL     1      -0.647  11.181  18.658  0.00  0.00    +0.000 A 
ATOM      6  C   UNL     1      -1.313  12.062  19.510  0.00  0.00    +0.000 A 
ATOM      7  C   UNL     1      -2.708  12.159  19.467  0.00  0.00    +0.000 A 
BRANCH   2  11
ATOM      8  C   UNL     1      -7.101  12.051  18.027  0.00  0.00    +0.000 C 
ATOM      9  C   UNL     1      -5.648  11.962  17.638  0.00  0.00    +0.000 C 
ATOM     10  O   UNL     1      -5.278  12.324  16.528  0.00  0.00    +0.000 OA
ATOM     11  N   UNL     1      -4.855  11.453  18.651  0.00  0.00    +0.000 N 
ATOM     12  H   UNL     1      -5.332  11.062  19.453  0.00  0.00    +0.000 HD
ENDBRANCH   2  11
ENDBRANCH   1   5
BRANCH   1  13
ATOM     13  C   UNL     1       1.275   9.785  18.810  0.00  0.00    +0.000 A 
ATOM     14  C   UNL     1       1.079   9.225  20.070  0.00  0.00    +0.000 A 
ATOM     15  C   UNL     1       1.591   7.958  20.361  0.00  0.00    +0.000 A 
ATOM     16  C   UNL     1       2.306   7.235  19.396  0.00  0.00    +0.000 A 
ATOM     17  C   UNL     1       2.465   7.786  18.121  0.00  0.00    +0.000 A 
ATOM     18  C   UNL     1       1.934   9.046  17.824  0.00  0.00    +0.000 A 
BRANCH  16  19
ATOM     19  S   UNL     1       2.876   5.588  19.857  0.00  0.00    +0.000 S 
ATOM     20  O   UNL     1       2.039   5.172  21.118  0.00  0.00    +0.000 OA
BRANCH  19  21
ATOM     21  C   UNL     1       2.312   4.575  18.456  0.00  0.00    +0.000 C 
BRANCH  21  22
ATOM     22  C   UNL     1       2.274   3.145  18.904  0.00  0.00    +0.000 C 
ATOM     23  C   UNL     1       3.475   2.480  19.516  0.00  0.00    +0.000 C 
ATOM     24  S   UNL     1       3.061   1.959  17.925  0.00  0.00    +0.000 S 
ENDBRANCH  21  22
ENDBRANCH  19  21
ENDBRANCH  16  19
ENDBRANCH   1  13
TORSDOF 6
ENDMDL
MODEL 5
REMARK VINA RESULT:      -6.4      4.089      8.667
REMARK  Name = 
REMARK  7 active torsions:
REMARK  status: ('A' for Active; 'I' for Inactive)
REMARK    1  A    between atoms: C_1  and  C_2
REMARK    2  A    between atoms: N_4  and  C_5
REMARK    3  A    between atoms: C_8  and  O_9
REMARK    4  A    between atoms: O_9  and  C_10
REMARK    5  A    between atoms: C_13  and  S_14
REMARK    6  A    between atoms: S_14  and  C_16
REMARK    7  A    between atoms: C_16  and  C_17
REMARK                            x       y       z     vdW  Elec       q    Type
REMARK                         _______ _______ _______ _____ _____    ______ ____
ROOT
ATOM      1  O   UNL     1       1.351  10.256  18.545  0.00  0.00    +0.000 OA
ENDROOT
BRANCH   1   5
ATOM      2  C   UNL     1      -2.587  11.626  18.257  0.00  0.00    +0.000 A 
ATOM      3  C   UNL     1      -1.574  12.406  18.820  0.00  0.00    +0.000 A 
ATOM      4  C   UNL     1      -0.268  11.916  18.908  0.00  0.00    +0.000 A 
ATOM      5  C   UNL     1       0.038  10.642  18.432  0.00  0.00    +0.000 A 
ATOM      6  C   UNL     1      -0.958   9.877  17.825  0.00  0.00    +0.000 A 
ATOM      7  C   UNL     1      -2.273  10.351  17.774  0.00  0.00    +0.000 A 
BRANCH   2  11
ATOM      8  C   UNL     1      -6.113  12.512  17.262  0.00  0.00    +0.000 C 
ATOM      9  C   UNL     1      -4.777  11.839  17.085  0.00  0.00    +0.000 C 
ATOM     10  O   UNL     1      -4.537  11.192  16.074  0.00  0.00    +0.000 OA
ATOM     11  N   UNL     1      -3.927  12.052  18.155  0.00  0.00    +0.000 N 
ATOM     12  H   UNL     1      -4.327  12.483  18.978  0.00  0.00    +0.000 HD
ENDBRANCH   2  11
ENDBRANCH   1   5
BRANCH   1  13
ATOM     13  C   UNL     1       1.659   8.990  18.984  0.00  0.00    +0.000 A 
ATOM     14  C   UNL     1       1.266   8.689  20.287  0.00  0.00    +0.000 A 
ATOM     15  C   UNL     1       1.518   7.423  20.821  0.00  0.00    +0.000 A 
ATOM     16  C   UNL     1       2.165   6.440  20.059  0.00  0.00    +0.000 A 
ATOM     17  C   UNL     1       2.522   6.735  18.740  0.00  0.00    +0.000 A 
ATOM     18  C   UNL     1       2.251   7.997  18.199  0.00  0.00    +0.000 A 
BRANCH  16  19
ATOM     19  S   UNL     1       2.392   4.823  20.824  0.00  0.00    +0.000 S 
ATOM     20  O   UNL     1       1.000   4.102  20.743  0.00  0.00    +0.000 OA
BRANCH  19  21
ATOM     21  C   UNL     1       3.517   3.997  19.659  0.00  0.00    +0.000 C 
BRANCH  21  22
ATOM     22  C   UNL     1       2.697   3.109  18.774  0.00  0.00    +0.000 C 
ATOM     23  C   UNL     1       3.289   1.901  18.103  0.00  0.00    +0.000 C 
ATOM     24  S   UNL     1       2.917   3.226  17.064  0.00  0.00    +0.000 S 
ENDBRANCH  21  22
ENDBRANCH  19  21
ENDBRANCH  16  19
ENDBRANCH   1  13
TORSDOF 6
ENDMDL
MODEL 6
REMARK VINA RESULT:      -6.4      4.626      9.073
REMARK  Name = 
REMARK  7 active torsions:
REMARK  status: ('A' for Active; 'I' for Inactive)
REMARK    1  A    between atoms: C_1  and  C_2
REMARK    2  A    between atoms: N_4  and  C_5
REMARK    3  A    between atoms: C_8  and  O_9
REMARK    4  A    between atoms: O_9  and  C_10
REMARK    5  A    between atoms: C_13  and  S_14
REMARK    6  A    between atoms: S_14  and  C_16
REMARK    7  A    between atoms: C_16  and  C_17
REMARK                            x       y       z     vdW  Elec       q    Type
REMARK                         _______ _______ _______ _____ _____    ______ ____
ROOT
ATOM      1  O   UNL     1       1.062   9.941  19.993  0.00  0.00    +0.000 OA
ENDROOT
BRANCH   1   5
ATOM      2  C   UNL     1      -2.393  11.526  18.253  0.00  0.00    +0.000 A 
ATOM      3  C   UNL     1      -1.869  12.031  19.446  0.00  0.00    +0.000 A 
ATOM      4  C   UNL     1      -0.716  11.474  20.005  0.00  0.00    +0.000 A 
ATOM      5  C   UNL     1      -0.074  10.409  19.377  0.00  0.00    +0.000 A 
ATOM      6  C   UNL     1      -0.563   9.931  18.161  0.00  0.00    +0.000 A 
ATOM      7  C   UNL     1      -1.740  10.462  17.622  0.00  0.00    +0.000 A 
BRANCH   2  11
ATOM      8  C   UNL     1      -5.877  12.377  17.091  0.00  0.00    +0.000 C 
ATOM      9  C   UNL     1      -4.865  11.748  18.013  0.00  0.00    +0.000 C 
ATOM     10  O   UNL     1      -5.229  11.069  18.965  0.00  0.00    +0.000 OA
ATOM     11  N   UNL     1      -3.561  12.029  17.646  0.00  0.00    +0.000 N 
ATOM     12  H   UNL     1      -3.430  12.727  16.925  0.00  0.00    +0.000 HD
ENDBRANCH   2  11
ENDBRANCH   1   5
BRANCH   1  13
ATOM     13  C   UNL     1       1.566   8.707  19.657  0.00  0.00    +0.000 A 
ATOM     14  C   UNL     1       1.395   7.704  20.608  0.00  0.00    +0.000 A 
ATOM     15  C   UNL     1       1.857   6.411  20.355  0.00  0.00    +0.000 A 
ATOM     16  C   UNL     1       2.497   6.103  19.146  0.00  0.00    +0.000 A 
ATOM     17  C   UNL     1       2.632   7.104  18.179  0.00  0.00    +0.000 A 
ATOM     18  C   UNL     1       2.149   8.394  18.426  0.00  0.00    +0.000 A 
BRANCH  16  19
ATOM     19  S   UNL     1       3.006   4.391  18.898  0.00  0.00    +0.000 S 
ATOM     20  O   UNL     1       1.821   3.686  18.149  0.00  0.00    +0.000 OA
BRANCH  19  21
ATOM     21  C   UNL     1       4.384   4.562  17.723  0.00  0.00    +0.000 C 
BRANCH  21  22
ATOM     22  C   UNL     1       5.662   4.329  18.471  0.00  0.00    +0.000 C 
ATOM     23  C   UNL     1       6.413   5.458  19.119  0.00  0.00    +0.000 C 
ATOM     24  S   UNL     1       7.149   4.779  17.715  0.00  0.00    +0.000 S 
ENDBRANCH  21  22
ENDBRANCH  19  21
ENDBRANCH  16  19
ENDBRANCH   1  13
TORSDOF 6
ENDMDL
MODEL 7
REMARK VINA RESULT:      -6.4      3.379      5.335
REMARK  Name = 
REMARK  7 active torsions:
REMARK  status: ('A' for Active; 'I' for Inactive)
REMARK    1  A    between atoms: C_1  and  C_2
REMARK    2  A    between atoms: N_4  and  C_5
REMARK    3  A    between atoms: C_8  and  O_9
REMARK    4  A    between atoms: O_9  and  C_10
REMARK    5  A    between atoms: C_13  and  S_14
REMARK    6  A    between atoms: S_14  and  C_16
REMARK    7  A    between atoms: C_16  and  C_17
REMARK                            x       y       z     vdW  Elec       q    Type
REMARK                         _______ _______ _______ _____ _____    ______ ____
ROOT
ATOM      1  O   UNL     1       2.146   6.063  20.491  0.00  0.00    +0.000 OA
ENDROOT
BRANCH   1   5
ATOM      2  C   UNL     1       4.280   4.526  17.243  0.00  0.00    +0.000 A 
ATOM      3  C   UNL     1       2.890   4.421  17.328  0.00  0.00    +0.000 A 
ATOM      4  C   UNL     1       2.206   4.940  18.431  0.00  0.00    +0.000 A 
ATOM      5  C   UNL     1       2.906   5.569  19.459  0.00  0.00    +0.000 A 
ATOM      6  C   UNL     1       4.289   5.721  19.358  0.00  0.00    +0.000 A 
ATOM      7  C   UNL     1       4.977   5.166  18.273  0.00  0.00    +0.000 A 
BRANCH   2  11
ATOM      8  C   UNL     1       6.260   3.864  14.104  0.00  0.00    +0.000 C 
ATOM      9  C   UNL     1       5.607   4.738  15.142  0.00  0.00    +0.000 C 
ATOM     10  O   UNL     1       5.617   5.957  15.024  0.00  0.00    +0.000 OA
ATOM     11  N   UNL     1       5.032   4.009  16.168  0.00  0.00    +0.000 N 
ATOM     12  H   UNL     1       5.239   3.019  16.197  0.00  0.00    +0.000 HD
ENDBRANCH   2  11
ENDBRANCH   1   5
BRANCH   1  13
ATOM     13  C   UNL     1       1.658   7.347  20.432  0.00  0.00    +0.000 A 
ATOM     14  C   UNL     1       1.938   8.047  19.260  0.00  0.00    +0.000 A 
ATOM     15  C   UNL     1       1.473   9.353  19.095  0.00  0.00    +0.000 A 
ATOM     16  C   UNL     1       0.720   9.978  20.100  0.00  0.00    +0.000 A 
ATOM     17  C   UNL     1       0.409   9.257  21.257  0.00  0.00    +0.000 A 
ATOM     18  C   UNL     1       0.858   7.941  21.412  0.00  0.00    +0.000 A 
BRANCH  16  19
ATOM     19  S   UNL     1       0.121  11.645  19.763  0.00  0.00    +0.000 S 
ATOM     20  O   UNL     1       0.869  12.125  18.470  0.00  0.00    +0.000 OA
BRANCH  19  21
ATOM     21  C   UNL     1      -1.619  11.351  19.323  0.00  0.00    +0.000 C 
BRANCH  21  22
ATOM     22  C   UNL     1      -1.648  10.604  18.024  0.00  0.00    +0.000 C 
ATOM     23  C   UNL     1      -2.345  11.158  16.813  0.00  0.00    +0.000 C 
ATOM     24  S   UNL     1      -3.114   9.811  17.567  0.00  0.00    +0.000 S 
ENDBRANCH  21  22
ENDBRANCH  19  21
ENDBRANCH  16  19
ENDBRANCH   1  13
TORSDOF 6
ENDMDL
MODEL 8
REMARK VINA RESULT:      -6.4      4.226      8.673
REMARK  Name = 
REMARK  7 active torsions:
REMARK  status: ('A' for Active; 'I' for Inactive)
REMARK    1  A    between atoms: C_1  and  C_2
REMARK    2  A    between atoms: N_4  and  C_5
REMARK    3  A    between atoms: C_8  and  O_9
REMARK    4  A    between atoms: O_9  and  C_10
REMARK    5  A    between atoms: C_13  and  S_14
REMARK    6  A    between atoms: S_14  and  C_16
REMARK    7  A    between atoms: C_16  and  C_17
REMARK                            x       y       z     vdW  Elec       q    Type
REMARK                         _______ _______ _______ _____ _____    ______ ____
ROOT
ATOM      1  O   UNL     1       1.176  10.481  18.762  0.00  0.00    +0.000 OA
ENDROOT
BRANCH   1   5
ATOM      2  C   UNL     1      -2.833  11.528  18.208  0.00  0.00    +0.000 A 
ATOM      3  C   UNL     1      -2.237  10.484  17.496  0.00  0.00    +0.000 A 
ATOM      4  C   UNL     1      -0.892  10.163  17.700  0.00  0.00    +0.000 A 
ATOM      5  C   UNL     1      -0.130  10.882  18.618  0.00  0.00    +0.000 A 
ATOM      6  C   UNL     1      -0.730  11.893  19.369  0.00  0.00    +0.000 A 
ATOM      7  C   UNL     1      -2.065  12.241  19.136  0.00  0.00    +0.000 A 
BRANCH   2  11
ATOM      8  C   UNL     1      -6.573  11.814  17.843  0.00  0.00    +0.000 C 
ATOM      9  C   UNL     1      -5.290  11.108  18.195  0.00  0.00    +0.000 C 
ATOM     10  O   UNL     1      -5.305   9.942  18.569  0.00  0.00    +0.000 OA
ATOM     11  N   UNL     1      -4.177  11.914  18.038  0.00  0.00    +0.000 N 
ATOM     12  H   UNL     1      -4.345  12.897  17.866  0.00  0.00    +0.000 HD
ENDBRANCH   2  11
ENDBRANCH   1   5
BRANCH   1  13
ATOM     13  C   UNL     1       1.460   9.196  19.161  0.00  0.00    +0.000 A 
ATOM     14  C   UNL     1       2.141   8.411  18.234  0.00  0.00    +0.000 A 
ATOM     15  C   UNL     1       2.491   7.096  18.550  0.00  0.00    +0.000 A 
ATOM     16  C   UNL     1       2.164   6.548  19.798  0.00  0.00    +0.000 A 
ATOM     17  C   UNL     1       1.515   7.353  20.739  0.00  0.00    +0.000 A 
ATOM     18  C   UNL     1       1.184   8.677  20.429  0.00  0.00    +0.000 A 
BRANCH  16  19
ATOM     19  S   UNL     1       2.710   4.861  20.124  0.00  0.00    +0.000 S 
ATOM     20  O   UNL     1       1.636   4.230  21.078  0.00  0.00    +0.000 OA
BRANCH  19  21
ATOM     21  C   UNL     1       2.538   4.075  18.493  0.00  0.00    +0.000 C 
BRANCH  21  22
ATOM     22  C   UNL     1       3.882   3.549  18.089  0.00  0.00    +0.000 C 
ATOM     23  C   UNL     1       5.151   4.264  18.458  0.00  0.00    +0.000 C 
ATOM     24  S   UNL     1       4.712   4.332  16.791  0.00  0.00    +0.000 S 
ENDBRANCH  21  22
ENDBRANCH  19  21
ENDBRANCH  16  19
ENDBRANCH   1  13
TORSDOF 6
ENDMDL
MODEL 9
REMARK VINA RESULT:      -6.4      4.500      8.864
REMARK  Name = 
REMARK  7 active torsions:
REMARK  status: ('A' for Active; 'I' for Inactive)
REMARK    1  A    between atoms: C_1  and  C_2
REMARK    2  A    between atoms: N_4  and  C_5
REMARK    3  A    between atoms: C_8  and  O_9
REMARK    4  A    between atoms: O_9  and  C_10
REMARK    5  A    between atoms: C_13  and  S_14
REMARK    6  A    between atoms: S_14  and  C_16
REMARK    7  A    between atoms: C_16  and  C_17
REMARK                            x       y       z     vdW  Elec       q    Type
REMARK                         _______ _______ _______ _____ _____    ______ ____
ROOT
ATOM      1  O   UNL     1       0.539   9.959  20.123  0.00  0.00    +0.000 OA
ENDROOT
BRANCH   1   5
ATOM      2  C   UNL     1      -2.843  11.603  18.299  0.00  0.00    +0.000 A 
ATOM      3  C   UNL     1      -2.201  12.233  19.367  0.00  0.00    +0.000 A 
ATOM      4  C   UNL     1      -1.076  11.654  19.960  0.00  0.00    +0.000 A 
ATOM      5  C   UNL     1      -0.581  10.440  19.489  0.00  0.00    +0.000 A 
ATOM      6  C   UNL     1      -1.187   9.828  18.392  0.00  0.00    +0.000 A 
ATOM      7  C   UNL     1      -2.337  10.388  17.825  0.00  0.00    +0.000 A 
BRANCH   2  11
ATOM      8  C   UNL     1      -6.292  12.609  17.156  0.00  0.00    +0.000 C 
ATOM      9  C   UNL     1      -5.295  12.025  18.123  0.00  0.00    +0.000 C 
ATOM     10  O   UNL     1      -5.669  11.527  19.177  0.00  0.00    +0.000 OA
ATOM     11  N   UNL     1      -3.991  12.123  17.668  0.00  0.00    +0.000 N 
ATOM     12  H   UNL     1      -3.835  12.695  16.848  0.00  0.00    +0.000 HD
ENDBRANCH   2  11
ENDBRANCH   1   5
BRANCH   1  13
ATOM     13  C   UNL     1       1.356   9.057  19.482  0.00  0.00    +0.000 A 
ATOM     14  C   UNL     1       1.632   7.886  20.185  0.00  0.00    +0.000 A 
ATOM     15  C   UNL     1       2.439   6.899  19.613  0.00  0.00    +0.000 A 
ATOM     16  C   UNL     1       2.981   7.070  18.332  0.00  0.00    +0.000 A 
ATOM     17  C   UNL     1       2.669   8.230  17.616  0.00  0.00    +0.000 A 
ATOM     18  C   UNL     1       1.844   9.209  18.181  0.00  0.00    +0.000 A 
BRANCH  16  19
ATOM     19  S   UNL     1       3.963   5.713  17.666  0.00  0.00    +0.000 S 
ATOM     20  O   UNL     1       5.083   6.373  16.788  0.00  0.00    +0.000 OA
BRANCH  19  21
ATOM     21  C   UNL     1       4.751   5.035  19.158  0.00  0.00    +0.000 C 
BRANCH  21  22
ATOM     22  C   UNL     1       4.517   3.555  19.175  0.00  0.00    +0.000 C 
ATOM     23  C   UNL     1       3.374   2.931  18.423  0.00  0.00    +0.000 C 
ATOM     24  S   UNL     1       3.223   2.941  20.141  0.00  0.00    +0.000 S 
ENDBRANCH  21  22
ENDBRANCH  19  21
ENDBRANCH  16  19
ENDBRANCH   1  13
TORSDOF 6
ENDMDL
