MODEL 1
REMARK VINA RESULT:      -6.3      0.000      0.000
REMARK  Name = 
REMARK  7 active torsions:
REMARK  status: ('A' for Active; 'I' for Inactive)
REMARK    1  A    between atoms: C_1  and  O_2
REMARK    2  A    between atoms: O_2  and  C_3
REMARK    3  A    between atoms: C_3  and  C_4
REMARK    4  A    between atoms: C_4  and  S_5
REMARK    5  A    between atoms: S_5  and  N_8
REMARK    6  A    between atoms: N_8  and  C_9
REMARK    7  A    between atoms: C_12  and  C_13
REMARK                            x       y       z     vdW  Elec       q    Type
REMARK                         _______ _______ _______ _____ _____    ______ ____
ROOT
ATOM      1  N   UNL     1       5.896   6.141  18.044  0.00  0.00    +0.000 N 
ATOM      2  H   UNL     1       5.664   7.142  17.963  0.00  0.00    +0.000 HD
ENDROOT
BRANCH   1   3
ATOM      3  C   UNL     1       4.758   5.293  18.156  0.00  0.00    +0.000 A 
ATOM      4  C   UNL     1       3.502   5.834  17.898  0.00  0.00    +0.000 A 
ATOM      5  C   UNL     1       2.366   5.030  17.994  0.00  0.00    +0.000 A 
ATOM      6  C   UNL     1       2.481   3.685  18.371  0.00  0.00    +0.000 A 
ATOM      7  C   UNL     1       3.748   3.158  18.651  0.00  0.00    +0.000 A 
ATOM      8 CL   UNL     1       3.968   1.509  19.126  0.00  0.00    +0.000 Cl
ATOM      9  C   UNL     1       4.888   3.962  18.549  0.00  0.00    +0.000 A 
BRANCH   6  10
ATOM     10  C   UNL     1       1.289   2.887  18.453  0.00  0.00    +0.000 C 
ATOM     11  N   UNL     1       0.309   2.273  18.517  0.00  0.00    +0.000 NA
ENDBRANCH   6  10
ENDBRANCH   1   3
BRANCH   1  12
ATOM     12  S   UNL     1       7.022   5.723  16.846  0.00  0.00    +0.000 S 
ATOM     13  O   UNL     1       7.734   4.543  17.291  0.00  0.00    +0.000 OA
ATOM     14  O   UNL     1       7.733   6.925  16.461  0.00  0.00    +0.000 OA
BRANCH  12  15
ATOM     15  C   UNL     1       5.946   5.252  15.499  0.00  0.00    +0.000 C 
BRANCH  15  16
ATOM     16  C   UNL     1       6.717   4.586  14.373  0.00  0.00    +0.000 C 
BRANCH  16  18
ATOM     17  C   UNL     1       6.327   3.476  12.309  0.00  0.00    +0.000 C 
ATOM     18  O   UNL     1       5.821   3.774  13.605  0.00  0.00    +0.000 OA
ENDBRANCH  16  18
ENDBRANCH  15  16
ENDBRANCH  12  15
ENDBRANCH   1  12
TORSDOF 6
ENDMDL
MODEL 2
REMARK VINA RESULT:      -6.2      2.117      2.392
REMARK  Name = 
REMARK  7 active torsions:
REMARK  status: ('A' for Active; 'I' for Inactive)
REMARK    1  A    between atoms: C_1  and  O_2
REMARK    2  A    between atoms: O_2  and  C_3
REMARK    3  A    between atoms: C_3  and  C_4
REMARK    4  A    between atoms: C_4  and  S_5
REMARK    5  A    between atoms: S_5  and  N_8
REMARK    6  A    between atoms: N_8  and  C_9
REMARK    7  A    between atoms: C_12  and  C_13
REMARK                            x       y       z     vdW  Elec       q    Type
REMARK                         _______ _______ _______ _____ _____    ______ ____
ROOT
ATOM      1  N   UNL     1       4.600   5.084  16.719  0.00  0.00    +0.000 N 
ATOM      2  H   UNL     1       4.666   4.410  15.941  0.00  0.00    +0.000 HD
ENDROOT
BRANCH   1   3
ATOM      3  C   UNL     1       3.933   4.573  17.868  0.00  0.00    +0.000 A 
ATOM      4  C   UNL     1       4.048   3.215  18.151  0.00  0.00    +0.000 A 
ATOM      5  C   UNL     1       3.410   2.683  19.272  0.00  0.00    +0.000 A 
ATOM      6  C   UNL     1       2.635   3.504  20.103  0.00  0.00    +0.000 A 
ATOM      7  C   UNL     1       2.508   4.865  19.794  0.00  0.00    +0.000 A 
ATOM      8 CL   UNL     1       1.567   5.939  20.770  0.00  0.00    +0.000 Cl
ATOM      9  C   UNL     1       3.153   5.400  18.674  0.00  0.00    +0.000 A 
BRANCH   6  10
ATOM     10  C   UNL     1       1.999   2.921  21.251  0.00  0.00    +0.000 C 
ATOM     11  N   UNL     1       1.467   2.481  22.181  0.00  0.00    +0.000 NA
ENDBRANCH   6  10
ENDBRANCH   1   3
BRANCH   1  12
ATOM     12  S   UNL     1       6.122   5.783  16.990  0.00  0.00    +0.000 S 
ATOM     13  O   UNL     1       6.416   5.682  18.405  0.00  0.00    +0.000 OA
ATOM     14  O   UNL     1       6.155   7.060  16.308  0.00  0.00    +0.000 OA
BRANCH  12  15
ATOM     15  C   UNL     1       7.193   4.652  16.115  0.00  0.00    +0.000 C 
BRANCH  15  16
ATOM     16  C   UNL     1       7.001   4.747  14.612  0.00  0.00    +0.000 C 
BRANCH  16  18
ATOM     17  C   UNL     1       6.050   3.555  12.791  0.00  0.00    +0.000 C 
ATOM     18  O   UNL     1       6.040   3.769  14.197  0.00  0.00    +0.000 OA
ENDBRANCH  16  18
ENDBRANCH  15  16
ENDBRANCH  12  15
ENDBRANCH   1  12
TORSDOF 6
ENDMDL
MODEL 3
REMARK VINA RESULT:      -6.1      0.825      1.022
REMARK  Name = 
REMARK  7 active torsions:
REMARK  status: ('A' for Active; 'I' for Inactive)
REMARK    1  A    between atoms: C_1  and  O_2
REMARK    2  A    between atoms: O_2  and  C_3
REMARK    3  A    between atoms: C_3  and  C_4
REMARK    4  A    between atoms: C_4  and  S_5
REMARK    5  A    between atoms: S_5  and  N_8
REMARK    6  A    between atoms: N_8  and  C_9
REMARK    7  A    between atoms: C_12  and  C_13
REMARK                            x       y       z     vdW  Elec       q    Type
REMARK                         _______ _______ _______ _____ _____    ______ ____
ROOT
ATOM      1  N   UNL     1       6.025   5.819  18.017  0.00  0.00    +0.000 N 
ATOM      2  H   UNL     1       6.036   6.675  18.591  0.00  0.00    +0.000 HD
ENDROOT
BRANCH   1   3
ATOM      3  C   UNL     1       4.826   5.060  18.139  0.00  0.00    +0.000 A 
ATOM      4  C   UNL     1       3.614   5.742  18.179  0.00  0.00    +0.000 A 
ATOM      5  C   UNL     1       2.420   5.028  18.294  0.00  0.00    +0.000 A 
ATOM      6  C   UNL     1       2.437   3.630  18.391  0.00  0.00    +0.000 A 
ATOM      7  C   UNL     1       3.665   2.957  18.372  0.00  0.00    +0.000 A 
ATOM      8 CL   UNL     1       3.766   1.234  18.490  0.00  0.00    +0.000 Cl
ATOM      9  C   UNL     1       4.862   3.672  18.251  0.00  0.00    +0.000 A 
BRANCH   6  10
ATOM     10  C   UNL     1       1.187   2.930  18.501  0.00  0.00    +0.000 C 
ATOM     11  N   UNL     1       0.196   2.336  18.579  0.00  0.00    +0.000 NA
ENDBRANCH   6  10
ENDBRANCH   1   3
BRANCH   1  12
ATOM     12  S   UNL     1       6.512   6.193  16.436  0.00  0.00    +0.000 S 
ATOM     13  O   UNL     1       7.747   6.946  16.513  0.00  0.00    +0.000 OA
ATOM     14  O   UNL     1       5.362   6.711  15.724  0.00  0.00    +0.000 OA
BRANCH  12  15
ATOM     15  C   UNL     1       6.887   4.570  15.788  0.00  0.00    +0.000 C 
BRANCH  15  16
ATOM     16  C   UNL     1       5.945   4.185  14.661  0.00  0.00    +0.000 C 
BRANCH  16  18
ATOM     17  C   UNL     1       5.999   3.406  12.418  0.00  0.00    +0.000 C 
ATOM     18  O   UNL     1       6.676   4.141  13.430  0.00  0.00    +0.000 OA
ENDBRANCH  16  18
ENDBRANCH  15  16
ENDBRANCH  12  15
ENDBRANCH   1  12
TORSDOF 6
ENDMDL
MODEL 4
REMARK VINA RESULT:      -6.1      2.629      3.760
REMARK  Name = 
REMARK  7 active torsions:
REMARK  status: ('A' for Active; 'I' for Inactive)
REMARK    1  A    between atoms: C_1  and  O_2
REMARK    2  A    between atoms: O_2  and  C_3
REMARK    3  A    between atoms: C_3  and  C_4
REMARK    4  A    between atoms: C_4  and  S_5
REMARK    5  A    between atoms: S_5  and  N_8
REMARK    6  A    between atoms: N_8  and  C_9
REMARK    7  A    between atoms: C_12  and  C_13
REMARK                            x       y       z     vdW  Elec       q    Type
REMARK                         _______ _______ _______ _____ _____    ______ ____
ROOT
ATOM      1  N   UNL     1       6.604   4.642  17.919  0.00  0.00    +0.000 N 
ATOM      2  H   UNL     1       7.155   4.684  18.789  0.00  0.00    +0.000 HD
ENDROOT
BRANCH   1   3
ATOM      3  C   UNL     1       5.271   4.176  18.105  0.00  0.00    +0.000 A 
ATOM      4  C   UNL     1       4.595   3.650  17.007  0.00  0.00    +0.000 A 
ATOM      5  C   UNL     1       3.289   3.181  17.155  0.00  0.00    +0.000 A 
ATOM      6  C   UNL     1       2.647   3.256  18.399  0.00  0.00    +0.000 A 
ATOM      7  C   UNL     1       3.330   3.808  19.490  0.00  0.00    +0.000 A 
ATOM      8 CL   UNL     1       2.601   3.936  21.054  0.00  0.00    +0.000 Cl
ATOM      9  C   UNL     1       4.641   4.273  19.344  0.00  0.00    +0.000 A 
BRANCH   6  10
ATOM     10  C   UNL     1       1.305   2.756  18.513  0.00  0.00    +0.000 C 
ATOM     11  N   UNL     1       0.211   2.385  18.595  0.00  0.00    +0.000 NA
ENDBRANCH   6  10
ENDBRANCH   1   3
BRANCH   1  12
ATOM     12  S   UNL     1       6.771   6.102  17.071  0.00  0.00    +0.000 S 
ATOM     13  O   UNL     1       5.478   6.753  17.040  0.00  0.00    +0.000 OA
ATOM     14  O   UNL     1       7.501   5.829  15.851  0.00  0.00    +0.000 OA
BRANCH  12  15
ATOM     15  C   UNL     1       7.837   7.027  18.167  0.00  0.00    +0.000 C 
BRANCH  15  16
ATOM     16  C   UNL     1       7.923   8.488  17.763  0.00  0.00    +0.000 C 
BRANCH  16  18
ATOM     17  C   UNL     1       9.023  10.526  18.292  0.00  0.00    +0.000 C 
ATOM     18  O   UNL     1       8.774   9.182  18.684  0.00  0.00    +0.000 OA
ENDBRANCH  16  18
ENDBRANCH  15  16
ENDBRANCH  12  15
ENDBRANCH   1  12
TORSDOF 6
ENDMDL
MODEL 5
REMARK VINA RESULT:      -6.1      4.061      5.543
REMARK  Name = 
REMARK  7 active torsions:
REMARK  status: ('A' for Active; 'I' for Inactive)
REMARK    1  A    between atoms: C_1  and  O_2
REMARK    2  A    between atoms: O_2  and  C_3
REMARK    3  A    between atoms: C_3  and  C_4
REMARK    4  A    between atoms: C_4  and  S_5
REMARK    5  A    between atoms: S_5  and  N_8
REMARK    6  A    between atoms: N_8  and  C_9
REMARK    7  A    between atoms: C_12  and  C_13
REMARK                            x       y       z     vdW  Elec       q    Type
REMARK                         _______ _______ _______ _____ _____    ______ ____
ROOT
ATOM      1  N   UNL     1       2.638   4.719  21.176  0.00  0.00    +0.000 N 
ATOM      2  H   UNL     1       3.219   4.881  22.012  0.00  0.00    +0.000 HD
ENDROOT
BRANCH   1   3
ATOM      3  C   UNL     1       3.238   5.163  19.963  0.00  0.00    +0.000 A 
ATOM      4  C   UNL     1       2.484   5.954  19.103  0.00  0.00    +0.000 A 
ATOM      5  C   UNL     1       3.042   6.409  17.907  0.00  0.00    +0.000 A 
ATOM      6  C   UNL     1       4.354   6.055  17.559  0.00  0.00    +0.000 A 
ATOM      7  C   UNL     1       5.095   5.240  18.423  0.00  0.00    +0.000 A 
ATOM      8 CL   UNL     1       6.717   4.760  18.060  0.00  0.00    +0.000 Cl
ATOM      9  C   UNL     1       4.537   4.788  19.624  0.00  0.00    +0.000 A 
BRANCH   6  10
ATOM     10  C   UNL     1       4.897   6.549  16.325  0.00  0.00    +0.000 C 
ATOM     11  N   UNL     1       5.303   6.960  15.320  0.00  0.00    +0.000 NA
ENDBRANCH   6  10
ENDBRANCH   1   3
BRANCH   1  12
ATOM     12  S   UNL     1       2.067   3.122  21.184  0.00  0.00    +0.000 S 
ATOM     13  O   UNL     1       1.491   2.857  22.486  0.00  0.00    +0.000 OA
ATOM     14  O   UNL     1       3.107   2.273  20.639  0.00  0.00    +0.000 OA
BRANCH  12  15
ATOM     15  C   UNL     1       0.738   3.214  19.992  0.00  0.00    +0.000 C 
BRANCH  15  16
ATOM     16  C   UNL     1       0.964   2.270  18.826  0.00  0.00    +0.000 C 
BRANCH  16  18
ATOM     17  C   UNL     1       2.703   2.611  17.244  0.00  0.00    +0.000 C 
ATOM     18  O   UNL     1       1.417   3.020  17.693  0.00  0.00    +0.000 OA
ENDBRANCH  16  18
ENDBRANCH  15  16
ENDBRANCH  12  15
ENDBRANCH   1  12
TORSDOF 6
ENDMDL
MODEL 6
REMARK VINA RESULT:      -6.0      3.767      6.225
REMARK  Name = 
REMARK  7 active torsions:
REMARK  status: ('A' for Active; 'I' for Inactive)
REMARK    1  A    between atoms: C_1  and  O_2
REMARK    2  A    between atoms: O_2  and  C_3
REMARK    3  A    between atoms: C_3  and  C_4
REMARK    4  A    between atoms: C_4  and  S_5
REMARK    5  A    between atoms: S_5  and  N_8
REMARK    6  A    between atoms: N_8  and  C_9
REMARK    7  A    between atoms: C_12  and  C_13
REMARK                            x       y       z     vdW  Elec       q    Type
REMARK                         _______ _______ _______ _____ _____    ______ ____
ROOT
ATOM      1  N   UNL     1       4.344   3.219  17.573  0.00  0.00    +0.000 N 
ATOM      2  H   UNL     1       4.359   2.706  16.679  0.00  0.00    +0.000 HD
ENDROOT
BRANCH   1   3
ATOM      3  C   UNL     1       5.164   4.384  17.581  0.00  0.00    +0.000 A 
ATOM      4  C   UNL     1       4.953   5.348  16.600  0.00  0.00    +0.000 A 
ATOM      5  C   UNL     1       5.736   6.503  16.582  0.00  0.00    +0.000 A 
ATOM      6  C   UNL     1       6.748   6.688  17.534  0.00  0.00    +0.000 A 
ATOM      7  C   UNL     1       6.965   5.699  18.503  0.00  0.00    +0.000 A 
ATOM      8 CL   UNL     1       8.197   5.855  19.707  0.00  0.00    +0.000 Cl
ATOM      9  C   UNL     1       6.177   4.544  18.525  0.00  0.00    +0.000 A 
BRANCH   6  10
ATOM     10  C   UNL     1       7.528   7.892  17.487  0.00  0.00    +0.000 C 
ATOM     11  N   UNL     1       8.138   8.876  17.422  0.00  0.00    +0.000 NA
ENDBRANCH   6  10
ENDBRANCH   1   3
BRANCH   1  12
ATOM     12  S   UNL     1       2.738   3.436  18.074  0.00  0.00    +0.000 S 
ATOM     13  O   UNL     1       1.870   3.013  16.995  0.00  0.00    +0.000 OA
ATOM     14  O   UNL     1       2.624   4.759  18.651  0.00  0.00    +0.000 OA
BRANCH  12  15
ATOM     15  C   UNL     1       2.614   2.237  19.394  0.00  0.00    +0.000 C 
BRANCH  15  16
ATOM     16  C   UNL     1       3.606   2.524  20.507  0.00  0.00    +0.000 C 
BRANCH  16  18
ATOM     17  C   UNL     1       1.549   2.806  21.660  0.00  0.00    +0.000 C 
ATOM     18  O   UNL     1       2.928   2.472  21.767  0.00  0.00    +0.000 OA
ENDBRANCH  16  18
ENDBRANCH  15  16
ENDBRANCH  12  15
ENDBRANCH   1  12
TORSDOF 6
ENDMDL
MODEL 7
REMARK VINA RESULT:      -6.0      1.529      1.839
REMARK  Name = 
REMARK  7 active torsions:
REMARK  status: ('A' for Active; 'I' for Inactive)
REMARK    1  A    between atoms: C_1  and  O_2
REMARK    2  A    between atoms: O_2  and  C_3
REMARK    3  A    between atoms: C_3  and  C_4
REMARK    4  A    between atoms: C_4  and  S_5
REMARK    5  A    between atoms: S_5  and  N_8
REMARK    6  A    between atoms: N_8  and  C_9
REMARK    7  A    between atoms: C_12  and  C_13
REMARK                            x       y       z     vdW  Elec       q    Type
REMARK                         _______ _______ _______ _____ _____    ______ ____
ROOT
ATOM      1  N   UNL     1       6.360   5.004  17.913  0.00  0.00    +0.000 N 
ATOM      2  H   UNL     1       6.763   5.546  18.693  0.00  0.00    +0.000 HD
ENDROOT
BRANCH   1   3
ATOM      3  C   UNL     1       5.062   4.485  18.184  0.00  0.00    +0.000 A 
ATOM      4  C   UNL     1       4.606   3.414  17.422  0.00  0.00    +0.000 A 
ATOM      5  C   UNL     1       3.340   2.879  17.663  0.00  0.00    +0.000 A 
ATOM      6  C   UNL     1       2.516   3.428  18.655  0.00  0.00    +0.000 A 
ATOM      7  C   UNL     1       2.977   4.521  19.400  0.00  0.00    +0.000 A 
ATOM      8 CL   UNL     1       2.016   5.254  20.637  0.00  0.00    +0.000 Cl
ATOM      9  C   UNL     1       4.249   5.054  19.162  0.00  0.00    +0.000 A 
BRANCH   6  10
ATOM     10  C   UNL     1       1.223   2.845  18.879  0.00  0.00    +0.000 C 
ATOM     11  N   UNL     1       0.173   2.377  19.024  0.00  0.00    +0.000 NA
ENDBRANCH   6  10
ENDBRANCH   1   3
BRANCH   1  12
ATOM     12  S   UNL     1       6.526   5.880  16.470  0.00  0.00    +0.000 S 
ATOM     13  O   UNL     1       7.624   6.811  16.634  0.00  0.00    +0.000 OA
ATOM     14  O   UNL     1       5.211   6.337  16.071  0.00  0.00    +0.000 OA
BRANCH  12  15
ATOM     15  C   UNL     1       7.043   4.600  15.336  0.00  0.00    +0.000 C 
BRANCH  15  16
ATOM     16  C   UNL     1       6.000   4.349  14.261  0.00  0.00    +0.000 C 
BRANCH  16  18
ATOM     17  C   UNL     1       5.912   3.211  12.178  0.00  0.00    +0.000 C 
ATOM     18  O   UNL     1       6.660   4.082  13.018  0.00  0.00    +0.000 OA
ENDBRANCH  16  18
ENDBRANCH  15  16
ENDBRANCH  12  15
ENDBRANCH   1  12
TORSDOF 6
ENDMDL
MODEL 8
REMARK VINA RESULT:      -6.0      2.668      3.808
REMARK  Name = 
REMARK  7 active torsions:
REMARK  status: ('A' for Active; 'I' for Inactive)
REMARK    1  A    between atoms: C_1  and  O_2
REMARK    2  A    between atoms: O_2  and  C_3
REMARK    3  A    between atoms: C_3  and  C_4
REMARK    4  A    between atoms: C_4  and  S_5
REMARK    5  A    between atoms: S_5  and  N_8
REMARK    6  A    between atoms: N_8  and  C_9
REMARK    7  A    between atoms: C_12  and  C_13
REMARK                            x       y       z     vdW  Elec       q    Type
REMARK                         _______ _______ _______ _____ _____    ______ ____
ROOT
ATOM      1  N   UNL     1       5.511   6.544  17.502  0.00  0.00    +0.000 N 
ATOM      2  H   UNL     1       5.384   7.066  16.622  0.00  0.00    +0.000 HD
ENDROOT
BRANCH   1   3
ATOM      3  C   UNL     1       4.438   5.658  17.805  0.00  0.00    +0.000 A 
ATOM      4  C   UNL     1       4.173   4.615  16.923  0.00  0.00    +0.000 A 
ATOM      5  C   UNL     1       3.131   3.726  17.192  0.00  0.00    +0.000 A 
ATOM      6  C   UNL     1       2.338   3.890  18.336  0.00  0.00    +0.000 A 
ATOM      7  C   UNL     1       2.600   4.958  19.204  0.00  0.00    +0.000 A 
ATOM      8 CL   UNL     1       1.662   5.227  20.632  0.00  0.00    +0.000 Cl
ATOM      9  C   UNL     1       3.648   5.846  18.937  0.00  0.00    +0.000 A 
BRANCH   6  10
ATOM     10  C   UNL     1       1.280   2.951  18.583  0.00  0.00    +0.000 C 
ATOM     11  N   UNL     1       0.450   2.171  18.796  0.00  0.00    +0.000 NA
ENDBRANCH   6  10
ENDBRANCH   1   3
BRANCH   1  12
ATOM     12  S   UNL     1       7.067   5.870  17.541  0.00  0.00    +0.000 S 
ATOM     13  O   UNL     1       7.536   5.744  16.176  0.00  0.00    +0.000 OA
ATOM     14  O   UNL     1       7.037   4.728  18.430  0.00  0.00    +0.000 OA
BRANCH  12  15
ATOM     15  C   UNL     1       7.998   7.174  18.334  0.00  0.00    +0.000 C 
BRANCH  15  16
ATOM     16  C   UNL     1       7.917   8.474  17.555  0.00  0.00    +0.000 C 
BRANCH  16  18
ATOM     17  C   UNL     1       9.265  10.280  18.306  0.00  0.00    +0.000 C 
ATOM     18  O   UNL     1       8.039   9.575  18.463  0.00  0.00    +0.000 OA
ENDBRANCH  16  18
ENDBRANCH  15  16
ENDBRANCH  12  15
ENDBRANCH   1  12
TORSDOF 6
ENDMDL
MODEL 9
REMARK VINA RESULT:      -6.0      3.842      5.956
REMARK  Name = 
REMARK  7 active torsions:
REMARK  status: ('A' for Active; 'I' for Inactive)
REMARK    1  A    between atoms: C_1  and  O_2
REMARK    2  A    between atoms: O_2  and  C_3
REMARK    3  A    between atoms: C_3  and  C_4
REMARK    4  A    between atoms: C_4  and  S_5
REMARK    5  A    between atoms: S_5  and  N_8
REMARK    6  A    between atoms: N_8  and  C_9
REMARK    7  A    between atoms: C_12  and  C_13
REMARK                            x       y       z     vdW  Elec       q    Type
REMARK                         _______ _______ _______ _____ _____    ______ ____
ROOT
ATOM      1  N   UNL     1       3.830   4.590  19.391  0.00  0.00    +0.000 N 
ATOM      2  H   UNL     1       3.663   3.600  19.623  0.00  0.00    +0.000 HD
ENDROOT
BRANCH   1   3
ATOM      3  C   UNL     1       4.682   4.782  18.266  0.00  0.00    +0.000 A 
ATOM      4  C   UNL     1       4.565   3.907  17.191  0.00  0.00    +0.000 A 
ATOM      5  C   UNL     1       5.382   4.069  16.071  0.00  0.00    +0.000 A 
ATOM      6  C   UNL     1       6.336   5.096  16.033  0.00  0.00    +0.000 A 
ATOM      7  C   UNL     1       6.460   5.956  17.132  0.00  0.00    +0.000 A 
ATOM      8 CL   UNL     1       7.615   7.243  17.159  0.00  0.00    +0.000 Cl
ATOM      9  C   UNL     1       5.637   5.798  18.252  0.00  0.00    +0.000 A 
BRANCH   6  10
ATOM     10  C   UNL     1       7.154   5.236  14.861  0.00  0.00    +0.000 C 
ATOM     11  N   UNL     1       7.840   5.332  13.933  0.00  0.00    +0.000 NA
ENDBRANCH   6  10
ENDBRANCH   1   3
BRANCH   1  12
ATOM     12  S   UNL     1       2.350   5.420  19.353  0.00  0.00    +0.000 S 
ATOM     13  O   UNL     1       1.708   5.135  18.087  0.00  0.00    +0.000 OA
ATOM     14  O   UNL     1       2.591   6.783  19.781  0.00  0.00    +0.000 OA
BRANCH  12  15
ATOM     15  C   UNL     1       1.441   4.581  20.643  0.00  0.00    +0.000 C 
BRANCH  15  16
ATOM     16  C   UNL     1       0.873   3.259  20.159  0.00  0.00    +0.000 C 
BRANCH  16  18
ATOM     17  C   UNL     1       1.930   1.685  18.729  0.00  0.00    +0.000 C 
ATOM     18  O   UNL     1       1.940   2.317  20.003  0.00  0.00    +0.000 OA
ENDBRANCH  16  18
ENDBRANCH  15  16
ENDBRANCH  12  15
ENDBRANCH   1  12
TORSDOF 6
ENDMDL
