MODEL 1
REMARK VINA RESULT:      -6.0      0.000      0.000
REMARK  Name = 
REMARK  2 active torsions:
REMARK  status: ('A' for Active; 'I' for Inactive)
REMARK    1  A    between atoms: C_1  and  C_2
REMARK    2  A    between atoms: C_7  and  N_8
REMARK                            x       y       z     vdW  Elec       q    Type
REMARK                         _______ _______ _______ _____ _____    ______ ____
ROOT
ATOM      1  N   UNL     1       4.356   3.157  18.251  0.00  0.00    +0.000 N 
ATOM      2  C   UNL     1       5.477   4.033  18.236  0.00  0.00    +0.000 C 
ATOM      3  N   UNL     1       5.855   4.716  19.243  0.00  0.00    +0.000 NA
ATOM      4  C   UNL     1       7.069   5.437  18.940  0.00  0.00    +0.000 C 
ATOM      5  C   UNL     1       7.414   5.026  17.496  0.00  0.00    +0.000 C 
ATOM      6  N   UNL     1       6.346   4.136  17.143  0.00  0.00    +0.000 N 
ATOM      7  H   UNL     1       4.384   2.364  17.594  0.00  0.00    +0.000 HD
ATOM      8  H   UNL     1       6.230   3.661  16.237  0.00  0.00    +0.000 HD
ENDROOT
BRANCH   1  15
ATOM      9  C   UNL     1       1.549   4.495  17.698  0.00  0.00    +0.000 C 
ATOM     10  C   UNL     1       2.008   3.819  18.961  0.00  0.00    +0.000 A 
ATOM     11  C   UNL     1       1.137   3.660  20.038  0.00  0.00    +0.000 A 
ATOM     12  S   UNL     1       1.907   2.788  21.247  0.00  0.00    +0.000 S 
ATOM     13  C   UNL     1       3.351   2.577  20.421  0.00  0.00    +0.000 A 
ATOM     14 CL   UNL     1       4.729   1.702  21.063  0.00  0.00    +0.000 Cl
ATOM     15  C   UNL     1       3.277   3.217  19.185  0.00  0.00    +0.000 A 
ENDBRANCH   1  15
TORSDOF 1
ENDMDL
MODEL 2
REMARK VINA RESULT:      -5.7      1.595      1.883
REMARK  Name = 
REMARK  2 active torsions:
REMARK  status: ('A' for Active; 'I' for Inactive)
REMARK    1  A    between atoms: C_1  and  C_2
REMARK    2  A    between atoms: C_7  and  N_8
REMARK                            x       y       z     vdW  Elec       q    Type
REMARK                         _______ _______ _______ _____ _____    ______ ____
ROOT
ATOM      1  N   UNL     1       4.620   3.992  19.410  0.00  0.00    +0.000 N 
ATOM      2  C   UNL     1       5.381   4.223  18.230  0.00  0.00    +0.000 C 
ATOM      3  N   UNL     1       4.865   4.513  17.102  0.00  0.00    +0.000 NA
ATOM      4  C   UNL     1       5.896   4.772  16.124  0.00  0.00    +0.000 C 
ATOM      5  C   UNL     1       7.216   4.618  16.903  0.00  0.00    +0.000 C 
ATOM      6  N   UNL     1       6.779   4.271  18.225  0.00  0.00    +0.000 N 
ATOM      7  H   UNL     1       5.089   4.194  20.305  0.00  0.00    +0.000 HD
ATOM      8  H   UNL     1       7.390   4.078  19.031  0.00  0.00    +0.000 HD
ENDROOT
BRANCH   1  15
ATOM      9  C   UNL     1       2.264   5.926  20.241  0.00  0.00    +0.000 C 
ATOM     10  C   UNL     1       2.162   4.485  19.820  0.00  0.00    +0.000 A 
ATOM     11  C   UNL     1       0.916   3.871  19.689  0.00  0.00    +0.000 A 
ATOM     12  S   UNL     1       1.129   2.310  19.113  0.00  0.00    +0.000 S 
ATOM     13  C   UNL     1       2.800   2.389  18.998  0.00  0.00    +0.000 A 
ATOM     14 CL   UNL     1       3.807   1.071  18.428  0.00  0.00    +0.000 Cl
ATOM     15  C   UNL     1       3.238   3.636  19.443  0.00  0.00    +0.000 A 
ENDBRANCH   1  15
TORSDOF 1
ENDMDL
MODEL 3
REMARK VINA RESULT:      -5.6      1.764      2.465
REMARK  Name = 
REMARK  2 active torsions:
REMARK  status: ('A' for Active; 'I' for Inactive)
REMARK    1  A    between atoms: C_1  and  C_2
REMARK    2  A    between atoms: C_7  and  N_8
REMARK                            x       y       z     vdW  Elec       q    Type
REMARK                         _______ _______ _______ _____ _____    ______ ____
ROOT
ATOM      1  N   UNL     1       4.171   2.931  17.948  0.00  0.00    +0.000 N 
ATOM      2  C   UNL     1       5.322   3.738  17.728  0.00  0.00    +0.000 C 
ATOM      3  N   UNL     1       5.928   4.371  18.652  0.00  0.00    +0.000 NA
ATOM      4  C   UNL     1       7.106   5.025  18.131  0.00  0.00    +0.000 C 
ATOM      5  C   UNL     1       7.142   4.630  16.642  0.00  0.00    +0.000 C 
ATOM      6  N   UNL     1       5.971   3.815  16.490  0.00  0.00    +0.000 N 
ATOM      7  H   UNL     1       4.022   2.155  17.287  0.00  0.00    +0.000 HD
ATOM      8  H   UNL     1       5.654   3.371  15.617  0.00  0.00    +0.000 HD
ENDROOT
BRANCH   1  15
ATOM      9  C   UNL     1       4.739   1.720  20.809  0.00  0.00    +0.000 C 
ATOM     10  C   UNL     1       3.526   2.491  20.365  0.00  0.00    +0.000 A 
ATOM     11  C   UNL     1       2.518   2.811  21.274  0.00  0.00    +0.000 A 
ATOM     12  S   UNL     1       1.362   3.753  20.505  0.00  0.00    +0.000 S 
ATOM     13  C   UNL     1       2.126   3.789  19.013  0.00  0.00    +0.000 A 
ATOM     14 CL   UNL     1       1.501   4.638  17.611  0.00  0.00    +0.000 Cl
ATOM     15  C   UNL     1       3.296   3.033  19.072  0.00  0.00    +0.000 A 
ENDBRANCH   1  15
TORSDOF 1
ENDMDL
MODEL 4
REMARK VINA RESULT:      -5.5      4.184      5.571
REMARK  Name = 
REMARK  2 active torsions:
REMARK  status: ('A' for Active; 'I' for Inactive)
REMARK    1  A    between atoms: C_1  and  C_2
REMARK    2  A    between atoms: C_7  and  N_8
REMARK                            x       y       z     vdW  Elec       q    Type
REMARK                         _______ _______ _______ _____ _____    ______ ____
ROOT
ATOM      1  N   UNL     1       2.619   6.054  20.591  0.00  0.00    +0.000 N 
ATOM      2  C   UNL     1       1.984   4.781  20.591  0.00  0.00    +0.000 C 
ATOM      3  N   UNL     1       1.263   4.350  19.634  0.00  0.00    +0.000 NA
ATOM      4  C   UNL     1       0.834   2.995  19.892  0.00  0.00    +0.000 C 
ATOM      5  C   UNL     1       1.486   2.632  21.240  0.00  0.00    +0.000 C 
ATOM      6  N   UNL     1       2.192   3.829  21.596  0.00  0.00    +0.000 N 
ATOM      7  H   UNL     1       3.480   6.138  21.150  0.00  0.00    +0.000 HD
ATOM      8  H   UNL     1       2.747   3.970  22.452  0.00  0.00    +0.000 HD
ENDROOT
BRANCH   1  15
ATOM      9  C   UNL     1       0.910   8.517  21.586  0.00  0.00    +0.000 C 
ATOM     10  C   UNL     1       1.459   8.281  20.205  0.00  0.00    +0.000 A 
ATOM     11  C   UNL     1       1.301   9.241  19.205  0.00  0.00    +0.000 A 
ATOM     12  S   UNL     1       2.104   8.733  17.822  0.00  0.00    +0.000 S 
ATOM     13  C   UNL     1       2.684   7.300  18.469  0.00  0.00    +0.000 A 
ATOM     14 CL   UNL     1       3.680   6.157  17.587  0.00  0.00    +0.000 Cl
ATOM     15  C   UNL     1       2.233   7.166  19.782  0.00  0.00    +0.000 A 
ENDBRANCH   1  15
TORSDOF 1
ENDMDL
MODEL 5
REMARK VINA RESULT:      -5.5      1.679      1.752
REMARK  Name = 
REMARK  2 active torsions:
REMARK  status: ('A' for Active; 'I' for Inactive)
REMARK    1  A    between atoms: C_1  and  C_2
REMARK    2  A    between atoms: C_7  and  N_8
REMARK                            x       y       z     vdW  Elec       q    Type
REMARK                         _______ _______ _______ _____ _____    ______ ____
ROOT
ATOM      1  N   UNL     1       4.002   4.893  18.020  0.00  0.00    +0.000 N 
ATOM      2  C   UNL     1       5.319   5.352  18.302  0.00  0.00    +0.000 C 
ATOM      3  N   UNL     1       5.973   5.026  19.345  0.00  0.00    +0.000 NA
ATOM      4  C   UNL     1       7.306   5.581  19.301  0.00  0.00    +0.000 C 
ATOM      5  C   UNL     1       7.374   6.320  17.951  0.00  0.00    +0.000 C 
ATOM      6  N   UNL     1       6.067   6.113  17.397  0.00  0.00    +0.000 N 
ATOM      7  H   UNL     1       3.738   4.839  17.026  0.00  0.00    +0.000 HD
ATOM      8  H   UNL     1       5.731   6.473  16.493  0.00  0.00    +0.000 HD
ENDROOT
BRANCH   1  15
ATOM      9  C   UNL     1       2.246   6.658  19.965  0.00  0.00    +0.000 C 
ATOM     10  C   UNL     1       2.288   5.156  19.877  0.00  0.00    +0.000 A 
ATOM     11  C   UNL     1       1.438   4.376  20.660  0.00  0.00    +0.000 A 
ATOM     12  S   UNL     1       1.651   2.760  20.264  0.00  0.00    +0.000 S 
ATOM     13  C   UNL     1       2.809   3.019  19.079  0.00  0.00    +0.000 A 
ATOM     14 CL   UNL     1       3.556   1.739  18.142  0.00  0.00    +0.000 Cl
ATOM     15  C   UNL     1       3.083   4.383  18.987  0.00  0.00    +0.000 A 
ENDBRANCH   1  15
TORSDOF 1
ENDMDL
MODEL 6
REMARK VINA RESULT:      -5.5      1.528      1.611
REMARK  Name = 
REMARK  2 active torsions:
REMARK  status: ('A' for Active; 'I' for Inactive)
REMARK    1  A    between atoms: C_1  and  C_2
REMARK    2  A    between atoms: C_7  and  N_8
REMARK                            x       y       z     vdW  Elec       q    Type
REMARK                         _______ _______ _______ _____ _____    ______ ____
ROOT
ATOM      1  N   UNL     1       3.791   4.388  17.694  0.00  0.00    +0.000 N 
ATOM      2  C   UNL     1       5.169   4.685  17.504  0.00  0.00    +0.000 C 
ATOM      3  N   UNL     1       6.082   4.366  18.333  0.00  0.00    +0.000 NA
ATOM      4  C   UNL     1       7.383   4.725  17.819  0.00  0.00    +0.000 C 
ATOM      5  C   UNL     1       7.098   5.324  16.428  0.00  0.00    +0.000 C 
ATOM      6  N   UNL     1       5.669   5.251  16.326  0.00  0.00    +0.000 N 
ATOM      7  H   UNL     1       3.223   4.282  16.842  0.00  0.00    +0.000 HD
ATOM      8  H   UNL     1       5.104   5.571  15.527  0.00  0.00    +0.000 HD
ENDROOT
BRANCH   1  15
ATOM      9  C   UNL     1       2.526   6.536  19.634  0.00  0.00    +0.000 C 
ATOM     10  C   UNL     1       2.607   5.048  19.843  0.00  0.00    +0.000 A 
ATOM     11  C   UNL     1       2.023   4.456  20.962  0.00  0.00    +0.000 A 
ATOM     12  S   UNL     1       2.195   2.791  20.858  0.00  0.00    +0.000 S 
ATOM     13  C   UNL     1       2.993   2.786  19.384  0.00  0.00    +0.000 A 
ATOM     14 CL   UNL     1       3.526   1.332  18.561  0.00  0.00    +0.000 Cl
ATOM     15  C   UNL     1       3.176   4.099  18.950  0.00  0.00    +0.000 A 
ENDBRANCH   1  15
TORSDOF 1
ENDMDL
MODEL 7
REMARK VINA RESULT:      -5.5      2.123      2.653
REMARK  Name = 
REMARK  2 active torsions:
REMARK  status: ('A' for Active; 'I' for Inactive)
REMARK    1  A    between atoms: C_1  and  C_2
REMARK    2  A    between atoms: C_7  and  N_8
REMARK                            x       y       z     vdW  Elec       q    Type
REMARK                         _______ _______ _______ _____ _____    ______ ____
ROOT
ATOM      1  N   UNL     1       4.846   4.097  18.716  0.00  0.00    +0.000 N 
ATOM      2  C   UNL     1       5.390   4.217  17.407  0.00  0.00    +0.000 C 
ATOM      3  N   UNL     1       4.683   4.358  16.357  0.00  0.00    +0.000 NA
ATOM      4  C   UNL     1       5.525   4.540  15.198  0.00  0.00    +0.000 C 
ATOM      5  C   UNL     1       6.961   4.521  15.755  0.00  0.00    +0.000 C 
ATOM      6  N   UNL     1       6.765   4.312  17.162  0.00  0.00    +0.000 N 
ATOM      7  H   UNL     1       5.444   4.416  19.492  0.00  0.00    +0.000 HD
ATOM      8  H   UNL     1       7.508   4.233  17.869  0.00  0.00    +0.000 HD
ENDROOT
BRANCH   1  15
ATOM      9  C   UNL     1       3.753   1.137  18.566  0.00  0.00    +0.000 C 
ATOM     10  C   UNL     1       2.992   2.377  18.952  0.00  0.00    +0.000 A 
ATOM     11  C   UNL     1       1.664   2.292  19.371  0.00  0.00    +0.000 A 
ATOM     12  S   UNL     1       1.131   3.817  19.824  0.00  0.00    +0.000 S 
ATOM     13  C   UNL     1       2.577   4.609  19.518  0.00  0.00    +0.000 A 
ATOM     14 CL   UNL     1       2.828   6.326  19.774  0.00  0.00    +0.000 Cl
ATOM     15  C   UNL     1       3.508   3.699  19.019  0.00  0.00    +0.000 A 
ENDBRANCH   1  15
TORSDOF 1
ENDMDL
MODEL 8
REMARK VINA RESULT:      -5.5      1.330      1.710
REMARK  Name = 
REMARK  2 active torsions:
REMARK  status: ('A' for Active; 'I' for Inactive)
REMARK    1  A    between atoms: C_1  and  C_2
REMARK    2  A    between atoms: C_7  and  N_8
REMARK                            x       y       z     vdW  Elec       q    Type
REMARK                         _______ _______ _______ _____ _____    ______ ____
ROOT
ATOM      1  N   UNL     1       4.541   5.018  19.646  0.00  0.00    +0.000 N 
ATOM      2  C   UNL     1       5.815   4.966  19.016  0.00  0.00    +0.000 C 
ATOM      3  N   UNL     1       5.999   4.548  17.827  0.00  0.00    +0.000 NA
ATOM      4  C   UNL     1       7.384   4.701  17.444  0.00  0.00    +0.000 C 
ATOM      5  C   UNL     1       8.053   5.359  18.665  0.00  0.00    +0.000 C 
ATOM      6  N   UNL     1       6.974   5.485  19.603  0.00  0.00    +0.000 N 
ATOM      7  H   UNL     1       4.420   5.731  20.379  0.00  0.00    +0.000 HD
ATOM      8  H   UNL     1       7.042   5.879  20.552  0.00  0.00    +0.000 HD
ENDROOT
BRANCH   1  15
ATOM      9  C   UNL     1       2.132   6.117  17.923  0.00  0.00    +0.000 C 
ATOM     10  C   UNL     1       2.298   4.732  18.487  0.00  0.00    +0.000 A 
ATOM     11  C   UNL     1       1.361   3.737  18.209  0.00  0.00    +0.000 A 
ATOM     12  S   UNL     1       1.875   2.292  18.890  0.00  0.00    +0.000 S 
ATOM     13  C   UNL     1       3.302   2.895  19.531  0.00  0.00    +0.000 A 
ATOM     14 CL   UNL     1       4.458   1.929  20.430  0.00  0.00    +0.000 Cl
ATOM     15  C   UNL     1       3.396   4.258  19.255  0.00  0.00    +0.000 A 
ENDBRANCH   1  15
TORSDOF 1
ENDMDL
MODEL 9
REMARK VINA RESULT:      -5.4      2.090      2.344
REMARK  Name = 
REMARK  2 active torsions:
REMARK  status: ('A' for Active; 'I' for Inactive)
REMARK    1  A    between atoms: C_1  and  C_2
REMARK    2  A    between atoms: C_7  and  N_8
REMARK                            x       y       z     vdW  Elec       q    Type
REMARK                         _______ _______ _______ _____ _____    ______ ____
ROOT
ATOM      1  N   UNL     1       4.060   4.852  17.827  0.00  0.00    +0.000 N 
ATOM      2  C   UNL     1       5.345   5.325  18.214  0.00  0.00    +0.000 C 
ATOM      3  N   UNL     1       5.935   4.970  19.285  0.00  0.00    +0.000 NA
ATOM      4  C   UNL     1       7.256   5.550  19.353  0.00  0.00    +0.000 C 
ATOM      5  C   UNL     1       7.399   6.344  18.040  0.00  0.00    +0.000 C 
ATOM      6  N   UNL     1       6.135   6.135  17.392  0.00  0.00    +0.000 N 
ATOM      7  H   UNL     1       3.864   4.833  16.816  0.00  0.00    +0.000 HD
ATOM      8  H   UNL     1       5.853   6.524  16.481  0.00  0.00    +0.000 HD
ENDROOT
BRANCH   1  15
ATOM      9  C   UNL     1       3.507   1.763  18.184  0.00  0.00    +0.000 C 
ATOM     10  C   UNL     1       2.817   2.903  18.881  0.00  0.00    +0.000 A 
ATOM     11  C   UNL     1       1.858   2.658  19.864  0.00  0.00    +0.000 A 
ATOM     12  S   UNL     1       1.353   4.118  20.518  0.00  0.00    +0.000 S 
ATOM     13  C   UNL     1       2.354   5.086  19.585  0.00  0.00    +0.000 A 
ATOM     14 CL   UNL     1       2.416   6.835  19.704  0.00  0.00    +0.000 Cl
ATOM     15  C   UNL     1       3.089   4.288  18.709  0.00  0.00    +0.000 A 
ENDBRANCH   1  15
TORSDOF 1
ENDMDL
