MODEL 1
REMARK VINA RESULT:      -8.9      0.000      0.000
REMARK  Name = 
REMARK  4 active torsions:
REMARK  status: ('A' for Active; 'I' for Inactive)
REMARK    1  A    between atoms: C_1  and  N_2
REMARK    2  A    between atoms: N_8  and  C_9
REMARK    3  A    between atoms: C_9  and  C_10
REMARK    4  A    between atoms: C_18  and  C_19
REMARK                            x       y       z     vdW  Elec       q    Type
REMARK                         _______ _______ _______ _____ _____    ______ ____
ROOT
ATOM      1  C   UNL     1       1.301   9.553  18.874  0.00  0.00    +0.000 C 
ATOM      2  N   UNL     1       2.201   8.452  18.629  0.00  0.00    +0.000 N 
ATOM      3  C   UNL     1       2.966   8.268  17.504  0.00  0.00    +0.000 A 
ATOM      4  C   UNL     1       3.602   7.086  17.731  0.00  0.00    +0.000 A 
ATOM      5  C   UNL     1       3.193   6.631  18.986  0.00  0.00    +0.000 A 
ATOM      6  N   UNL     1       3.627   5.422  19.567  0.00  0.00    +0.000 NA
ATOM      7  C   UNL     1       4.459   4.684  18.855  0.00  0.00    +0.000 A 
ATOM      8  N   UNL     1       4.939   3.471  19.337  0.00  0.00    +0.000 N 
ATOM      9  N   UNL     1       4.899   5.098  17.556  0.00  0.00    +0.000 N 
ATOM     10  N   UNL     1       5.696   4.392  16.712  0.00  0.00    +0.000 NA
ATOM     11  C   UNL     1       5.761   5.237  15.655  0.00  0.00    +0.000 A 
ATOM     12  N   UNL     1       5.052   6.415  15.796  0.00  0.00    +0.000 NA
ATOM     13  C   UNL     1       4.519   6.269  16.973  0.00  0.00    +0.000 A 
ATOM     14  N   UNL     1       2.330   7.467  19.554  0.00  0.00    +0.000 NA
ATOM     15  H   UNL     1       5.544   2.944  18.710  0.00  0.00    +0.000 HD
ENDROOT
BRANCH  11  16
ATOM     16  C   UNL     1       6.507   4.967  14.385  0.00  0.00    +0.000 A 
ATOM     17  C   UNL     1       6.136   4.016  13.446  0.00  0.00    +0.000 A 
ATOM     18  C   UNL     1       7.091   4.066  12.404  0.00  0.00    +0.000 A 
ATOM     19  C   UNL     1       8.000   5.028  12.775  0.00  0.00    +0.000 A 
ATOM     20  O   UNL     1       7.649   5.590  13.962  0.00  0.00    +0.000 OA
ENDBRANCH  11  16
BRANCH   8  21
ATOM     21  C   UNL     1       4.342   2.737  20.452  0.00  0.00    +0.000 C 
BRANCH  21  22
ATOM     22  C   UNL     1       3.241   1.762  19.975  0.00  0.00    +0.000 C 
ATOM     23  C   UNL     1       1.868   2.077  20.590  0.00  0.00    +0.000 C 
ATOM     24  C   UNL     1       1.156   3.241  19.906  0.00  0.00    +0.000 C 
ATOM     25  C   UNL     1       0.962   2.949  18.426  0.00  0.00    +0.000 C 
ATOM     26  C   UNL     1       2.303   2.720  17.739  0.00  0.00    +0.000 C 
ATOM     27  C   UNL     1       3.151   1.654  18.435  0.00  0.00    +0.000 C 
ENDBRANCH  21  22
ENDBRANCH   8  21
TORSDOF 3
ENDMDL
MODEL 2
REMARK VINA RESULT:      -8.6      1.282      1.922
REMARK  Name = 
REMARK  4 active torsions:
REMARK  status: ('A' for Active; 'I' for Inactive)
REMARK    1  A    between atoms: C_1  and  N_2
REMARK    2  A    between atoms: N_8  and  C_9
REMARK    3  A    between atoms: C_9  and  C_10
REMARK    4  A    between atoms: C_18  and  C_19
REMARK                            x       y       z     vdW  Elec       q    Type
REMARK                         _______ _______ _______ _____ _____    ______ ____
ROOT
ATOM      1  C   UNL     1       0.486  11.256  18.545  0.00  0.00    +0.000 C 
ATOM      2  N   UNL     1       1.253  10.035  18.604  0.00  0.00    +0.000 N 
ATOM      3  C   UNL     1       2.143   9.592  17.658  0.00  0.00    +0.000 A 
ATOM      4  C   UNL     1       2.570   8.396  18.146  0.00  0.00    +0.000 A 
ATOM      5  C   UNL     1       1.922   8.191  19.365  0.00  0.00    +0.000 A 
ATOM      6  N   UNL     1       2.095   7.046  20.168  0.00  0.00    +0.000 NA
ATOM      7  C   UNL     1       2.914   6.116  19.711  0.00  0.00    +0.000 A 
ATOM      8  N   UNL     1       3.148   4.947  20.426  0.00  0.00    +0.000 N 
ATOM      9  N   UNL     1       3.595   6.271  18.459  0.00  0.00    +0.000 N 
ATOM     10  N   UNL     1       4.403   5.356  17.863  0.00  0.00    +0.000 NA
ATOM     11  C   UNL     1       4.738   6.013  16.728  0.00  0.00    +0.000 A 
ATOM     12  N   UNL     1       4.185   7.272  16.587  0.00  0.00    +0.000 NA
ATOM     13  C   UNL     1       3.468   7.372  17.668  0.00  0.00    +0.000 A 
ATOM     14  N   UNL     1       1.107   9.198  19.663  0.00  0.00    +0.000 NA
ATOM     15  H   UNL     1       3.760   4.263  19.986  0.00  0.00    +0.000 HD
ENDROOT
BRANCH  11  16
ATOM     16  C   UNL     1       5.620   5.465  15.647  0.00  0.00    +0.000 A 
ATOM     17  C   UNL     1       5.254   4.449  14.779  0.00  0.00    +0.000 A 
ATOM     18  C   UNL     1       6.355   4.219  13.920  0.00  0.00    +0.000 A 
ATOM     19  C   UNL     1       7.335   5.093  14.326  0.00  0.00    +0.000 A 
ATOM     20  O   UNL     1       6.897   5.862  15.359  0.00  0.00    +0.000 OA
ENDBRANCH  11  16
BRANCH   8  21
ATOM     21  C   UNL     1       2.297   4.467  21.516  0.00  0.00    +0.000 C 
BRANCH  21  22
ATOM     22  C   UNL     1       1.830   3.012  21.283  0.00  0.00    +0.000 C 
ATOM     23  C   UNL     1       0.613   2.926  20.348  0.00  0.00    +0.000 C 
ATOM     24  C   UNL     1       0.979   3.061  18.873  0.00  0.00    +0.000 C 
ATOM     25  C   UNL     1       1.970   1.979  18.470  0.00  0.00    +0.000 C 
ATOM     26  C   UNL     1       3.242   2.074  19.303  0.00  0.00    +0.000 C 
ATOM     27  C   UNL     1       2.967   2.078  20.808  0.00  0.00    +0.000 C 
ENDBRANCH  21  22
ENDBRANCH   8  21
TORSDOF 3
ENDMDL
MODEL 3
REMARK VINA RESULT:      -8.2      3.080      5.084
REMARK  Name = 
REMARK  4 active torsions:
REMARK  status: ('A' for Active; 'I' for Inactive)
REMARK    1  A    between atoms: C_1  and  N_2
REMARK    2  A    between atoms: N_8  and  C_9
REMARK    3  A    between atoms: C_9  and  C_10
REMARK    4  A    between atoms: C_18  and  C_19
REMARK                            x       y       z     vdW  Elec       q    Type
REMARK                         _______ _______ _______ _____ _____    ______ ____
ROOT
ATOM      1  C   UNL     1       6.472   3.232  12.248  0.00  0.00    +0.000 C 
ATOM      2  N   UNL     1       6.385   3.808  13.568  0.00  0.00    +0.000 N 
ATOM      3  C   UNL     1       6.960   4.985  13.977  0.00  0.00    +0.000 A 
ATOM      4  C   UNL     1       6.626   5.072  15.293  0.00  0.00    +0.000 A 
ATOM      5  C   UNL     1       5.859   3.948  15.600  0.00  0.00    +0.000 A 
ATOM      6  N   UNL     1       5.338   3.674  16.882  0.00  0.00    +0.000 NA
ATOM      7  C   UNL     1       5.620   4.541  17.837  0.00  0.00    +0.000 A 
ATOM      8  N   UNL     1       5.158   4.358  19.136  0.00  0.00    +0.000 N 
ATOM      9  N   UNL     1       6.415   5.705  17.578  0.00  0.00    +0.000 N 
ATOM     10  N   UNL     1       6.821   6.624  18.492  0.00  0.00    +0.000 NA
ATOM     11  C   UNL     1       7.539   7.464  17.709  0.00  0.00    +0.000 A 
ATOM     12  N   UNL     1       7.602   7.117  16.373  0.00  0.00    +0.000 NA
ATOM     13  C   UNL     1       6.915   6.013  16.349  0.00  0.00    +0.000 A 
ATOM     14  N   UNL     1       5.698   3.159  14.544  0.00  0.00    +0.000 NA
ATOM     15  H   UNL     1       5.454   5.050  19.822  0.00  0.00    +0.000 HD
ENDROOT
BRANCH  11  16
ATOM     16  C   UNL     1       8.260   8.684  18.195  0.00  0.00    +0.000 A 
ATOM     17  C   UNL     1       8.268   9.903  17.535  0.00  0.00    +0.000 A 
ATOM     18  C   UNL     1       9.059  10.788  18.305  0.00  0.00    +0.000 A 
ATOM     19  C   UNL     1       9.504  10.053  19.379  0.00  0.00    +0.000 A 
ATOM     20  O   UNL     1       9.016   8.785  19.331  0.00  0.00    +0.000 OA
ENDBRANCH  11  16
BRANCH   8  21
ATOM     21  C   UNL     1       4.650   3.088  19.655  0.00  0.00    +0.000 C 
BRANCH  21  22
ATOM     22  C   UNL     1       3.190   3.212  20.147  0.00  0.00    +0.000 C 
ATOM     23  C   UNL     1       2.614   4.621  19.935  0.00  0.00    +0.000 C 
ATOM     24  C   UNL     1       2.167   4.876  18.499  0.00  0.00    +0.000 C 
ATOM     25  C   UNL     1       1.114   3.860  18.081  0.00  0.00    +0.000 C 
ATOM     26  C   UNL     1       1.662   2.442  18.181  0.00  0.00    +0.000 C 
ATOM     27  C   UNL     1       2.256   2.131  19.556  0.00  0.00    +0.000 C 
ENDBRANCH  21  22
ENDBRANCH   8  21
TORSDOF 3
ENDMDL
MODEL 4
REMARK VINA RESULT:      -8.1      3.119      5.190
REMARK  Name = 
REMARK  4 active torsions:
REMARK  status: ('A' for Active; 'I' for Inactive)
REMARK    1  A    between atoms: C_1  and  N_2
REMARK    2  A    between atoms: N_8  and  C_9
REMARK    3  A    between atoms: C_9  and  C_10
REMARK    4  A    between atoms: C_18  and  C_19
REMARK                            x       y       z     vdW  Elec       q    Type
REMARK                         _______ _______ _______ _____ _____    ______ ____
ROOT
ATOM      1  C   UNL     1       6.718   3.417  12.145  0.00  0.00    +0.000 C 
ATOM      2  N   UNL     1       6.576   3.981  13.466  0.00  0.00    +0.000 N 
ATOM      3  C   UNL     1       7.145   5.147  13.913  0.00  0.00    +0.000 A 
ATOM      4  C   UNL     1       6.751   5.226  15.213  0.00  0.00    +0.000 A 
ATOM      5  C   UNL     1       5.957   4.108  15.472  0.00  0.00    +0.000 A 
ATOM      6  N   UNL     1       5.373   3.828  16.725  0.00  0.00    +0.000 NA
ATOM      7  C   UNL     1       5.620   4.682  17.702  0.00  0.00    +0.000 A 
ATOM      8  N   UNL     1       5.096   4.492  18.975  0.00  0.00    +0.000 N 
ATOM      9  N   UNL     1       6.440   5.839  17.492  0.00  0.00    +0.000 N 
ATOM     10  N   UNL     1       6.814   6.743  18.434  0.00  0.00    +0.000 NA
ATOM     11  C   UNL     1       7.578   7.581  17.694  0.00  0.00    +0.000 A 
ATOM     12  N   UNL     1       7.700   7.248  16.359  0.00  0.00    +0.000 NA
ATOM     13  C   UNL     1       7.002   6.152  16.291  0.00  0.00    +0.000 A 
ATOM     14  N   UNL     1       5.837   3.331  14.401  0.00  0.00    +0.000 NA
ATOM     15  H   UNL     1       5.367   5.173  19.682  0.00  0.00    +0.000 HD
ENDROOT
BRANCH  11  16
ATOM     16  C   UNL     1       8.290   8.788  18.226  0.00  0.00    +0.000 A 
ATOM     17  C   UNL     1       8.264  10.038  17.629  0.00  0.00    +0.000 A 
ATOM     18  C   UNL     1       9.058  10.896  18.426  0.00  0.00    +0.000 A 
ATOM     19  C   UNL     1       9.539  10.116  19.451  0.00  0.00    +0.000 A 
ATOM     20  O   UNL     1       9.069   8.844  19.349  0.00  0.00    +0.000 OA
ENDBRANCH  11  16
BRANCH   8  21
ATOM     21  C   UNL     1       4.549   3.223  19.456  0.00  0.00    +0.000 C 
BRANCH  21  22
ATOM     22  C   UNL     1       3.115   2.980  18.931  0.00  0.00    +0.000 C 
ATOM     23  C   UNL     1       2.323   2.000  19.813  0.00  0.00    +0.000 C 
ATOM     24  C   UNL     1       1.767   2.646  21.078  0.00  0.00    +0.000 C 
ATOM     25  C   UNL     1       0.858   3.814  20.723  0.00  0.00    +0.000 C 
ATOM     26  C   UNL     1       1.617   4.867  19.926  0.00  0.00    +0.000 C 
ATOM     27  C   UNL     1       2.323   4.287  18.699  0.00  0.00    +0.000 C 
ENDBRANCH  21  22
ENDBRANCH   8  21
TORSDOF 3
ENDMDL
MODEL 5
REMARK VINA RESULT:      -8.1      2.669      3.136
REMARK  Name = 
REMARK  4 active torsions:
REMARK  status: ('A' for Active; 'I' for Inactive)
REMARK    1  A    between atoms: C_1  and  N_2
REMARK    2  A    between atoms: N_8  and  C_9
REMARK    3  A    between atoms: C_9  and  C_10
REMARK    4  A    between atoms: C_18  and  C_19
REMARK                            x       y       z     vdW  Elec       q    Type
REMARK                         _______ _______ _______ _____ _____    ______ ____
ROOT
ATOM      1  C   UNL     1       8.773   9.259  18.561  0.00  0.00    +0.000 C 
ATOM      2  N   UNL     1       8.121   8.024  18.197  0.00  0.00    +0.000 N 
ATOM      3  C   UNL     1       7.932   7.555  16.921  0.00  0.00    +0.000 A 
ATOM      4  C   UNL     1       7.247   6.392  17.099  0.00  0.00    +0.000 A 
ATOM      5  C   UNL     1       7.072   6.222  18.473  0.00  0.00    +0.000 A 
ATOM      6  N   UNL     1       6.388   5.133  19.052  0.00  0.00    +0.000 NA
ATOM      7  C   UNL     1       5.877   4.241  18.223  0.00  0.00    +0.000 A 
ATOM      8  N   UNL     1       5.180   3.135  18.695  0.00  0.00    +0.000 N 
ATOM      9  N   UNL     1       6.017   4.376  16.803  0.00  0.00    +0.000 N 
ATOM     10  N   UNL     1       5.479   3.561  15.859  0.00  0.00    +0.000 NA
ATOM     11  C   UNL     1       5.909   4.164  14.726  0.00  0.00    +0.000 A 
ATOM     12  N   UNL     1       6.674   5.300  14.913  0.00  0.00    +0.000 NA
ATOM     13  C   UNL     1       6.689   5.401  16.210  0.00  0.00    +0.000 A 
ATOM     14  N   UNL     1       7.610   7.221  19.165  0.00  0.00    +0.000 NA
ATOM     15  H   UNL     1       4.782   2.517  17.990  0.00  0.00    +0.000 HD
ENDROOT
BRANCH  11  16
ATOM     16  C   UNL     1       5.594   3.703  13.335  0.00  0.00    +0.000 A 
ATOM     17  C   UNL     1       6.547   3.362  12.389  0.00  0.00    +0.000 A 
ATOM     18  C   UNL     1       5.852   2.989  11.214  0.00  0.00    +0.000 A 
ATOM     19  C   UNL     1       4.517   3.142  11.504  0.00  0.00    +0.000 A 
ATOM     20  O   UNL     1       4.348   3.558  12.788  0.00  0.00    +0.000 OA
ENDBRANCH  11  16
BRANCH   8  21
ATOM     21  C   UNL     1       4.644   3.020  20.052  0.00  0.00    +0.000 C 
BRANCH  21  22
ATOM     22  C   UNL     1       3.294   2.267  20.075  0.00  0.00    +0.000 C 
ATOM     23  C   UNL     1       2.424   2.655  21.282  0.00  0.00    +0.000 C 
ATOM     24  C   UNL     1       1.698   3.984  21.097  0.00  0.00    +0.000 C 
ATOM     25  C   UNL     1       0.811   3.937  19.862  0.00  0.00    +0.000 C 
ATOM     26  C   UNL     1       1.636   3.648  18.613  0.00  0.00    +0.000 C 
ATOM     27  C   UNL     1       2.503   2.396  18.753  0.00  0.00    +0.000 C 
ENDBRANCH  21  22
ENDBRANCH   8  21
TORSDOF 3
ENDMDL
MODEL 6
REMARK VINA RESULT:      -7.9      1.671      5.432
REMARK  Name = 
REMARK  4 active torsions:
REMARK  status: ('A' for Active; 'I' for Inactive)
REMARK    1  A    between atoms: C_1  and  N_2
REMARK    2  A    between atoms: N_8  and  C_9
REMARK    3  A    between atoms: C_9  and  C_10
REMARK    4  A    between atoms: C_18  and  C_19
REMARK                            x       y       z     vdW  Elec       q    Type
REMARK                         _______ _______ _______ _____ _____    ______ ____
ROOT
ATOM      1  C   UNL     1       2.025   2.145  21.944  0.00  0.00    +0.000 C 
ATOM      2  N   UNL     1       2.334   3.110  20.916  0.00  0.00    +0.000 N 
ATOM      3  C   UNL     1       3.121   2.892  19.813  0.00  0.00    +0.000 A 
ATOM      4  C   UNL     1       3.138   4.098  19.181  0.00  0.00    +0.000 A 
ATOM      5  C   UNL     1       2.351   4.970  19.933  0.00  0.00    +0.000 A 
ATOM      6  N   UNL     1       2.139   6.325  19.604  0.00  0.00    +0.000 NA
ATOM      7  C   UNL     1       2.745   6.777  18.521  0.00  0.00    +0.000 A 
ATOM      8  N   UNL     1       2.605   8.099  18.115  0.00  0.00    +0.000 N 
ATOM      9  N   UNL     1       3.575   5.926  17.720  0.00  0.00    +0.000 N 
ATOM     10  N   UNL     1       4.295   6.297  16.631  0.00  0.00    +0.000 NA
ATOM     11  C   UNL     1       4.884   5.123  16.302  0.00  0.00    +0.000 A 
ATOM     12  N   UNL     1       4.574   4.055  17.122  0.00  0.00    +0.000 NA
ATOM     13  C   UNL     1       3.784   4.609  17.995  0.00  0.00    +0.000 A 
ATOM     14  N   UNL     1       1.845   4.374  21.007  0.00  0.00    +0.000 NA
ATOM     15  H   UNL     1       3.137   8.379  17.294  0.00  0.00    +0.000 HD
ENDROOT
BRANCH  11  16
ATOM     16  C   UNL     1       5.835   4.930  15.160  0.00  0.00    +0.000 A 
ATOM     17  C   UNL     1       5.632   4.043  14.114  0.00  0.00    +0.000 A 
ATOM     18  C   UNL     1       6.749   4.153  13.253  0.00  0.00    +0.000 A 
ATOM     19  C   UNL     1       7.578   5.084  13.832  0.00  0.00    +0.000 A 
ATOM     20  O   UNL     1       7.029   5.572  14.977  0.00  0.00    +0.000 OA
ENDBRANCH  11  16
BRANCH   8  21
ATOM     21  C   UNL     1       2.104   9.172  18.975  0.00  0.00    +0.000 C 
BRANCH  21  22
ATOM     22  C   UNL     1       1.318  10.233  18.170  0.00  0.00    +0.000 C 
ATOM     23  C   UNL     1      -0.201   9.998  18.212  0.00  0.00    +0.000 C 
ATOM     24  C   UNL     1      -0.848  10.479  19.507  0.00  0.00    +0.000 C 
ATOM     25  C   UNL     1      -0.587  11.964  19.712  0.00  0.00    +0.000 C 
ATOM     26  C   UNL     1       0.909  12.247  19.774  0.00  0.00    +0.000 C 
ATOM     27  C   UNL     1       1.669  11.684  18.572  0.00  0.00    +0.000 C 
ENDBRANCH  21  22
ENDBRANCH   8  21
TORSDOF 3
ENDMDL
MODEL 7
REMARK VINA RESULT:      -7.9      2.723      6.739
REMARK  Name = 
REMARK  4 active torsions:
REMARK  status: ('A' for Active; 'I' for Inactive)
REMARK    1  A    between atoms: C_1  and  N_2
REMARK    2  A    between atoms: N_8  and  C_9
REMARK    3  A    between atoms: C_9  and  C_10
REMARK    4  A    between atoms: C_18  and  C_19
REMARK                            x       y       z     vdW  Elec       q    Type
REMARK                         _______ _______ _______ _____ _____    ______ ____
ROOT
ATOM      1  C   UNL     1       1.901   2.433  21.671  0.00  0.00    +0.000 C 
ATOM      2  N   UNL     1       2.259   3.570  20.858  0.00  0.00    +0.000 N 
ATOM      3  C   UNL     1       1.742   4.836  20.966  0.00  0.00    +0.000 A 
ATOM      4  C   UNL     1       2.359   5.527  19.968  0.00  0.00    +0.000 A 
ATOM      5  C   UNL     1       3.222   4.640  19.324  0.00  0.00    +0.000 A 
ATOM      6  N   UNL     1       4.029   4.986  18.220  0.00  0.00    +0.000 NA
ATOM      7  C   UNL     1       3.933   6.226  17.777  0.00  0.00    +0.000 A 
ATOM      8  N   UNL     1       4.682   6.663  16.691  0.00  0.00    +0.000 N 
ATOM      9  N   UNL     1       3.053   7.173  18.395  0.00  0.00    +0.000 N 
ATOM     10  N   UNL     1       2.825   8.448  17.986  0.00  0.00    +0.000 NA
ATOM     11  C   UNL     1       1.915   8.852  18.903  0.00  0.00    +0.000 A 
ATOM     12  N   UNL     1       1.567   7.906  19.848  0.00  0.00    +0.000 NA
ATOM     13  C   UNL     1       2.276   6.881  19.475  0.00  0.00    +0.000 A 
ATOM     14  N   UNL     1       3.174   3.427  19.864  0.00  0.00    +0.000 NA
ATOM     15  H   UNL     1       4.520   7.621  16.387  0.00  0.00    +0.000 HD
ENDROOT
BRANCH  11  16
ATOM     16  C   UNL     1       1.271  10.205  18.936  0.00  0.00    +0.000 A 
ATOM     17  C   UNL     1       0.059  10.480  19.549  0.00  0.00    +0.000 A 
ATOM     18  C   UNL     1      -0.203  11.857  19.354  0.00  0.00    +0.000 A 
ATOM     19  C   UNL     1       0.853  12.338  18.616  0.00  0.00    +0.000 A 
ATOM     20  O   UNL     1       1.758  11.352  18.371  0.00  0.00    +0.000 OA
ENDBRANCH  11  16
BRANCH   8  21
ATOM     21  C   UNL     1       5.347   5.772  15.740  0.00  0.00    +0.000 C 
BRANCH  21  22
ATOM     22  C   UNL     1       6.878   5.748  15.948  0.00  0.00    +0.000 C 
ATOM     23  C   UNL     1       7.409   7.053  16.564  0.00  0.00    +0.000 C 
ATOM     24  C   UNL     1       7.191   7.137  18.072  0.00  0.00    +0.000 C 
ATOM     25  C   UNL     1       7.865   5.966  18.773  0.00  0.00    +0.000 C 
ATOM     26  C   UNL     1       7.309   4.640  18.268  0.00  0.00    +0.000 C 
ATOM     27  C   UNL     1       7.365   4.516  16.744  0.00  0.00    +0.000 C 
ENDBRANCH  21  22
ENDBRANCH   8  21
TORSDOF 3
ENDMDL
MODEL 8
REMARK VINA RESULT:      -7.8      4.154      7.942
REMARK  Name = 
REMARK  4 active torsions:
REMARK  status: ('A' for Active; 'I' for Inactive)
REMARK    1  A    between atoms: C_1  and  N_2
REMARK    2  A    between atoms: N_8  and  C_9
REMARK    3  A    between atoms: C_9  and  C_10
REMARK    4  A    between atoms: C_18  and  C_19
REMARK                            x       y       z     vdW  Elec       q    Type
REMARK                         _______ _______ _______ _____ _____    ______ ____
ROOT
ATOM      1  C   UNL     1       6.853   3.702  12.181  0.00  0.00    +0.000 C 
ATOM      2  N   UNL     1       6.749   4.228  13.521  0.00  0.00    +0.000 N 
ATOM      3  C   UNL     1       5.874   3.807  14.490  0.00  0.00    +0.000 A 
ATOM      4  C   UNL     1       6.137   4.625  15.546  0.00  0.00    +0.000 A 
ATOM      5  C   UNL     1       7.164   5.485  15.156  0.00  0.00    +0.000 A 
ATOM      6  N   UNL     1       7.703   6.495  15.980  0.00  0.00    +0.000 NA
ATOM      7  C   UNL     1       7.177   6.625  17.184  0.00  0.00    +0.000 A 
ATOM      8  N   UNL     1       7.634   7.594  18.070  0.00  0.00    +0.000 N 
ATOM      9  N   UNL     1       6.111   5.775  17.629  0.00  0.00    +0.000 N 
ATOM     10  N   UNL     1       5.454   5.861  18.814  0.00  0.00    +0.000 NA
ATOM     11  C   UNL     1       4.562   4.850  18.685  0.00  0.00    +0.000 A 
ATOM     12  N   UNL     1       4.628   4.151  17.495  0.00  0.00    +0.000 NA
ATOM     13  C   UNL     1       5.582   4.777  16.869  0.00  0.00    +0.000 A 
ATOM     14  N   UNL     1       7.555   5.251  13.908  0.00  0.00    +0.000 NA
ATOM     15  H   UNL     1       7.149   7.656  18.963  0.00  0.00    +0.000 HD
ENDROOT
BRANCH  11  16
ATOM     16  C   UNL     1       3.533   4.478  19.708  0.00  0.00    +0.000 A 
ATOM     17  C   UNL     1       2.496   5.305  20.113  0.00  0.00    +0.000 A 
ATOM     18  C   UNL     1       1.755   4.596  21.087  0.00  0.00    +0.000 A 
ATOM     19  C   UNL     1       2.392   3.387  21.236  0.00  0.00    +0.000 A 
ATOM     20  O   UNL     1       3.458   3.298  20.397  0.00  0.00    +0.000 OA
ENDBRANCH  11  16
BRANCH   8  21
ATOM     21  C   UNL     1       8.444   8.748  17.677  0.00  0.00    +0.000 C 
BRANCH  21  22
ATOM     22  C   UNL     1       8.182   9.970  18.587  0.00  0.00    +0.000 C 
ATOM     23  C   UNL     1       9.278  10.159  19.649  0.00  0.00    +0.000 C 
ATOM     24  C   UNL     1      10.539  10.819  19.099  0.00  0.00    +0.000 C 
ATOM     25  C   UNL     1      10.210  12.179  18.503  0.00  0.00    +0.000 C 
ATOM     26  C   UNL     1       9.194  12.044  17.375  0.00  0.00    +0.000 C 
ATOM     27  C   UNL     1       7.940  11.276  17.797  0.00  0.00    +0.000 C 
ENDBRANCH  21  22
ENDBRANCH   8  21
TORSDOF 3
ENDMDL
MODEL 9
REMARK VINA RESULT:      -7.8      2.393      3.114
REMARK  Name = 
REMARK  4 active torsions:
REMARK  status: ('A' for Active; 'I' for Inactive)
REMARK    1  A    between atoms: C_1  and  N_2
REMARK    2  A    between atoms: N_8  and  C_9
REMARK    3  A    between atoms: C_9  and  C_10
REMARK    4  A    between atoms: C_18  and  C_19
REMARK                            x       y       z     vdW  Elec       q    Type
REMARK                         _______ _______ _______ _____ _____    ______ ____
ROOT
ATOM      1  C   UNL     1       8.733   9.178  18.658  0.00  0.00    +0.000 C 
ATOM      2  N   UNL     1       8.089   7.948  18.264  0.00  0.00    +0.000 N 
ATOM      3  C   UNL     1       7.966   7.474  16.982  0.00  0.00    +0.000 A 
ATOM      4  C   UNL     1       7.259   6.319  17.127  0.00  0.00    +0.000 A 
ATOM      5  C   UNL     1       7.008   6.157  18.490  0.00  0.00    +0.000 A 
ATOM      6  N   UNL     1       6.283   5.078  19.035  0.00  0.00    +0.000 NA
ATOM      7  C   UNL     1       5.809   4.187  18.183  0.00  0.00    +0.000 A 
ATOM      8  N   UNL     1       5.075   3.090  18.621  0.00  0.00    +0.000 N 
ATOM      9  N   UNL     1       6.027   4.314  16.772  0.00  0.00    +0.000 N 
ATOM     10  N   UNL     1       5.533   3.500  15.804  0.00  0.00    +0.000 NA
ATOM     11  C   UNL     1       6.031   4.093  14.693  0.00  0.00    +0.000 A 
ATOM     12  N   UNL     1       6.796   5.222  14.917  0.00  0.00    +0.000 NA
ATOM     13  C   UNL     1       6.741   5.330  16.213  0.00  0.00    +0.000 A 
ATOM     14  N   UNL     1       7.517   7.154  19.205  0.00  0.00    +0.000 NA
ATOM     15  H   UNL     1       4.711   2.473  17.898  0.00  0.00    +0.000 HD
ENDROOT
BRANCH  11  16
ATOM     16  C   UNL     1       5.787   3.628  13.290  0.00  0.00    +0.000 A 
ATOM     17  C   UNL     1       4.534   3.509  12.711  0.00  0.00    +0.000 A 
ATOM     18  C   UNL     1       4.728   3.039  11.391  0.00  0.00    +0.000 A 
ATOM     19  C   UNL     1       6.086   2.880  11.246  0.00  0.00    +0.000 A 
ATOM     20  O   UNL     1       6.737   3.247  12.382  0.00  0.00    +0.000 OA
ENDBRANCH  11  16
BRANCH   8  21
ATOM     21  C   UNL     1       4.466   2.987  19.947  0.00  0.00    +0.000 C 
BRANCH  21  22
ATOM     22  C   UNL     1       2.926   2.867  19.864  0.00  0.00    +0.000 C 
ATOM     23  C   UNL     1       2.215   4.202  20.137  0.00  0.00    +0.000 C 
ATOM     24  C   UNL     1       2.222   5.142  18.935  0.00  0.00    +0.000 C 
ATOM     25  C   UNL     1       1.555   4.480  17.738  0.00  0.00    +0.000 C 
ATOM     26  C   UNL     1       2.278   3.192  17.361  0.00  0.00    +0.000 C 
ATOM     27  C   UNL     1       2.437   2.233  18.541  0.00  0.00    +0.000 C 
ENDBRANCH  21  22
ENDBRANCH   8  21
TORSDOF 3
ENDMDL
