MODEL 1
REMARK VINA RESULT:      -6.8      0.000      0.000
REMARK  Name = 
REMARK  11 active torsions:
REMARK  status: ('A' for Active; 'I' for Inactive)
REMARK    1  A    between atoms: C_1  and  O_2
REMARK    2  A    between atoms: O_2  and  C_3
REMARK    3  A    between atoms: C_7  and  C_8
REMARK    4  A    between atoms: C_18  and  C_19
REMARK    5  A    between atoms: C_20  and  C_21
REMARK    6  A    between atoms: C_21  and  O_22
REMARK    7  A    between atoms: C_21  and  C_23
REMARK    8  A    between atoms: C_23  and  N_24
REMARK    9  A    between atoms: C_23  and  C_25
REMARK   10  A    between atoms: C_25  and  C_26
REMARK   11  A    between atoms: C_25  and  O_27
REMARK                            x       y       z     vdW  Elec       q    Type
REMARK                         _______ _______ _______ _____ _____    ______ ____
ROOT
ATOM      1  C   UNL     1      -4.344  12.630  20.220  0.00  0.00    +0.000 C 
ATOM      2  C   UNL     1      -4.593  12.337  18.928  0.00  0.00    +0.000 C 
ATOM      3  C   UNL     1      -5.764  12.747  18.074  0.00  0.00    +0.000 C 
ATOM      4  O   UNL     1      -6.618  13.585  18.306  0.00  0.00    +0.000 OA
ATOM      5  N   UNL     1      -5.651  12.014  16.906  0.00  0.00    +0.000 N 
ATOM      6  C   UNL     1      -4.470  11.287  16.879  0.00  0.00    +0.000 A 
ATOM      7  C   UNL     1      -4.001  10.548  15.809  0.00  0.00    +0.000 A 
ATOM      8  C   UNL     1      -2.731   9.988  15.926  0.00  0.00    +0.000 A 
ATOM      9  C   UNL     1      -1.988  10.173  17.101  0.00  0.00    +0.000 A 
ATOM     10  F   UNL     1      -0.755   9.648  17.157  0.00  0.00    +0.000 F 
ATOM     11  C   UNL     1      -2.496  10.900  18.189  0.00  0.00    +0.000 A 
ATOM     12  C   UNL     1      -3.758  11.460  18.073  0.00  0.00    +0.000 A 
ATOM     13  H   UNL     1      -6.305  12.110  16.144  0.00  0.00    +0.000 HD
ENDROOT
BRANCH   1  18
ATOM     14  C   UNL     1      -5.382  13.313  22.460  0.00  0.00    +0.000 A 
ATOM     15  C   UNL     1      -6.125  14.443  22.875  0.00  0.00    +0.000 A 
ATOM     16  C   UNL     1      -6.272  15.249  21.773  0.00  0.00    +0.000 A 
ATOM     17  N   UNL     1      -5.634  14.647  20.719  0.00  0.00    +0.000 N 
ATOM     18  C   UNL     1      -5.092  13.447  21.112  0.00  0.00    +0.000 A 
ATOM     19  H   UNL     1      -5.621  15.007  19.770  0.00  0.00    +0.000 HD
BRANCH  14  21
ATOM     20  C   UNL     1      -4.441  12.549  24.451  0.00  0.00    +0.000 C 
ATOM     21  O   UNL     1      -4.971  12.236  23.168  0.00  0.00    +0.000 OA
ENDBRANCH  14  21
ENDBRANCH   1  18
BRANCH  11  22
ATOM     22  C   UNL     1      -1.709  11.069  19.361  0.00  0.00    +0.000 C 
ATOM     23  C   UNL     1      -1.019  11.238  20.455  0.00  0.00    +0.000 C 
BRANCH  23  24
ATOM     24  C   UNL     1      -0.214  11.433  21.729  0.00  0.00    +0.000 C 
BRANCH  24  25
ATOM     25  O   UNL     1      -1.128  11.848  22.743  0.00  0.00    +0.000 OA
ATOM     26  H   UNL     1      -1.260  11.096  23.343  0.00  0.00    +0.000 HD
ENDBRANCH  24  25
BRANCH  24  27
ATOM     27  C   UNL     1       0.546  10.142  22.154  0.00  0.00    +0.000 C 
BRANCH  27  28
ATOM     28  N   UNL     1       0.275   9.780  23.569  0.00  0.00    +0.000 NA
ATOM     29  H   UNL     1      -0.641  10.126  23.844  0.00  0.00    +0.000 HD
ATOM     30  H   UNL     1       0.952  10.263  24.163  0.00  0.00    +0.000 HD
ENDBRANCH  27  28
BRANCH  27  31
ATOM     31  C   UNL     1       0.173   8.948  21.233  0.00  0.00    +0.000 C 
ATOM     32  C   UNL     1       1.373   8.069  20.880  0.00  0.00    +0.000 C 
BRANCH  31  33
ATOM     33  O   UNL     1      -0.808   8.128  21.879  0.00  0.00    +0.000 OA
ATOM     34  H   UNL     1      -0.979   7.388  21.269  0.00  0.00    +0.000 HD
ENDBRANCH  31  33
ENDBRANCH  27  31
ENDBRANCH  24  27
ENDBRANCH  23  24
ENDBRANCH  11  22
TORSDOF 9
ENDMDL
MODEL 2
REMARK VINA RESULT:      -6.8      2.523      4.749
REMARK  Name = 
REMARK  11 active torsions:
REMARK  status: ('A' for Active; 'I' for Inactive)
REMARK    1  A    between atoms: C_1  and  O_2
REMARK    2  A    between atoms: O_2  and  C_3
REMARK    3  A    between atoms: C_7  and  C_8
REMARK    4  A    between atoms: C_18  and  C_19
REMARK    5  A    between atoms: C_20  and  C_21
REMARK    6  A    between atoms: C_21  and  O_22
REMARK    7  A    between atoms: C_21  and  C_23
REMARK    8  A    between atoms: C_23  and  N_24
REMARK    9  A    between atoms: C_23  and  C_25
REMARK   10  A    between atoms: C_25  and  C_26
REMARK   11  A    between atoms: C_25  and  O_27
REMARK                            x       y       z     vdW  Elec       q    Type
REMARK                         _______ _______ _______ _____ _____    ______ ____
ROOT
ATOM      1  C   UNL     1      -4.013  11.799  18.885  0.00  0.00    +0.000 C 
ATOM      2  C   UNL     1      -2.962  11.264  18.234  0.00  0.00    +0.000 C 
ATOM      3  C   UNL     1      -2.865  10.819  16.798  0.00  0.00    +0.000 C 
ATOM      4  O   UNL     1      -3.639  11.035  15.881  0.00  0.00    +0.000 OA
ATOM      5  N   UNL     1      -1.658  10.151  16.692  0.00  0.00    +0.000 N 
ATOM      6  C   UNL     1      -0.929  10.239  17.869  0.00  0.00    +0.000 A 
ATOM      7  C   UNL     1       0.364   9.782  18.054  0.00  0.00    +0.000 A 
ATOM      8  C   UNL     1       0.976  10.073  19.271  0.00  0.00    +0.000 A 
ATOM      9  C   UNL     1       0.280  10.791  20.254  0.00  0.00    +0.000 A 
ATOM     10  F   UNL     1       0.921  11.082  21.396  0.00  0.00    +0.000 F 
ATOM     11  C   UNL     1      -1.043  11.218  20.058  0.00  0.00    +0.000 A 
ATOM     12  C   UNL     1      -1.653  10.932  18.847  0.00  0.00    +0.000 A 
ATOM     13  H   UNL     1      -1.332   9.762  15.822  0.00  0.00    +0.000 HD
ENDROOT
BRANCH   1  18
ATOM     14  C   UNL     1      -6.573  11.783  18.796  0.00  0.00    +0.000 A 
ATOM     15  C   UNL     1      -7.514  12.443  17.972  0.00  0.00    +0.000 A 
ATOM     16  C   UNL     1      -6.797  13.192  17.070  0.00  0.00    +0.000 A 
ATOM     17  N   UNL     1      -5.464  13.012  17.334  0.00  0.00    +0.000 N 
ATOM     18  C   UNL     1      -5.300  12.138  18.381  0.00  0.00    +0.000 A 
ATOM     19  H   UNL     1      -4.708  13.417  16.792  0.00  0.00    +0.000 HD
BRANCH  14  21
ATOM     20  C   UNL     1      -7.002   9.586  19.446  0.00  0.00    +0.000 C 
ATOM     21  O   UNL     1      -6.769  10.937  19.833  0.00  0.00    +0.000 OA
ENDBRANCH  14  21
ENDBRANCH   1  18
BRANCH  11  22
ATOM     22  C   UNL     1      -1.713  11.949  21.078  0.00  0.00    +0.000 C 
ATOM     23  C   UNL     1      -2.347  12.586  22.022  0.00  0.00    +0.000 C 
BRANCH  23  24
ATOM     24  C   UNL     1      -3.085  13.330  23.123  0.00  0.00    +0.000 C 
BRANCH  24  25
ATOM     25  O   UNL     1      -2.614  14.677  23.107  0.00  0.00    +0.000 OA
ATOM     26  H   UNL     1      -1.794  14.694  22.585  0.00  0.00    +0.000 HD
ENDBRANCH  24  25
BRANCH  24  27
ATOM     27  C   UNL     1      -4.630  13.274  22.943  0.00  0.00    +0.000 C 
BRANCH  27  28
ATOM     28  N   UNL     1      -5.035  12.251  21.945  0.00  0.00    +0.000 NA
ATOM     29  H   UNL     1      -4.215  11.747  21.616  0.00  0.00    +0.000 HD
ATOM     30  H   UNL     1      -5.422  12.729  21.129  0.00  0.00    +0.000 HD
ENDBRANCH  27  28
BRANCH  27  31
ATOM     31  C   UNL     1      -5.339  12.987  24.295  0.00  0.00    +0.000 C 
ATOM     32  C   UNL     1      -6.847  12.784  24.148  0.00  0.00    +0.000 C 
BRANCH  31  33
ATOM     33  O   UNL     1      -4.785  11.808  24.891  0.00  0.00    +0.000 OA
ATOM     34  H   UNL     1      -4.105  11.492  24.270  0.00  0.00    +0.000 HD
ENDBRANCH  31  33
ENDBRANCH  27  31
ENDBRANCH  24  27
ENDBRANCH  23  24
ENDBRANCH  11  22
TORSDOF 9
ENDMDL
MODEL 3
REMARK VINA RESULT:      -6.8      2.569      4.647
REMARK  Name = 
REMARK  11 active torsions:
REMARK  status: ('A' for Active; 'I' for Inactive)
REMARK    1  A    between atoms: C_1  and  O_2
REMARK    2  A    between atoms: O_2  and  C_3
REMARK    3  A    between atoms: C_7  and  C_8
REMARK    4  A    between atoms: C_18  and  C_19
REMARK    5  A    between atoms: C_20  and  C_21
REMARK    6  A    between atoms: C_21  and  O_22
REMARK    7  A    between atoms: C_21  and  C_23
REMARK    8  A    between atoms: C_23  and  N_24
REMARK    9  A    between atoms: C_23  and  C_25
REMARK   10  A    between atoms: C_25  and  C_26
REMARK   11  A    between atoms: C_25  and  O_27
REMARK                            x       y       z     vdW  Elec       q    Type
REMARK                         _______ _______ _______ _____ _____    ______ ____
ROOT
ATOM      1  C   UNL     1      -3.982  11.960  19.314  0.00  0.00    +0.000 C 
ATOM      2  C   UNL     1      -2.987  11.462  18.554  0.00  0.00    +0.000 C 
ATOM      3  C   UNL     1      -2.981  11.170  17.076  0.00  0.00    +0.000 C 
ATOM      4  O   UNL     1      -3.791  11.508  16.231  0.00  0.00    +0.000 OA
ATOM      5  N   UNL     1      -1.809  10.476  16.836  0.00  0.00    +0.000 N 
ATOM      6  C   UNL     1      -1.017  10.412  17.974  0.00  0.00    +0.000 A 
ATOM      7  C   UNL     1       0.264   9.895  18.039  0.00  0.00    +0.000 A 
ATOM      8  C   UNL     1       0.948  10.034  19.244  0.00  0.00    +0.000 A 
ATOM      9  C   UNL     1       0.331  10.666  20.333  0.00  0.00    +0.000 A 
ATOM     10  F   UNL     1       1.041  10.811  21.463  0.00  0.00    +0.000 F 
ATOM     11  C   UNL     1      -0.981  11.156  20.256  0.00  0.00    +0.000 A 
ATOM     12  C   UNL     1      -1.663  11.021  19.057  0.00  0.00    +0.000 A 
ATOM     13  H   UNL     1      -1.542  10.171  15.912  0.00  0.00    +0.000 HD
ENDROOT
BRANCH   1  18
ATOM     14  C   UNL     1      -6.432  11.690  18.616  0.00  0.00    +0.000 A 
ATOM     15  C   UNL     1      -7.463  12.616  18.335  0.00  0.00    +0.000 A 
ATOM     16  C   UNL     1      -6.920  13.870  18.475  0.00  0.00    +0.000 A 
ATOM     17  N   UNL     1      -5.607  13.725  18.842  0.00  0.00    +0.000 N 
ATOM     18  C   UNL     1      -5.278  12.393  18.920  0.00  0.00    +0.000 A 
ATOM     19  H   UNL     1      -4.955  14.493  18.973  0.00  0.00    +0.000 HD
BRANCH  14  21
ATOM     20  C   UNL     1      -7.109   9.770  19.751  0.00  0.00    +0.000 C 
ATOM     21  O   UNL     1      -6.456  10.337  18.620  0.00  0.00    +0.000 OA
ENDBRANCH  14  21
ENDBRANCH   1  18
BRANCH  11  22
ATOM     22  C   UNL     1      -1.570  11.796  21.382  0.00  0.00    +0.000 C 
ATOM     23  C   UNL     1      -2.105  12.416  22.395  0.00  0.00    +0.000 C 
BRANCH  23  24
ATOM     24  C   UNL     1      -2.731  13.139  23.578  0.00  0.00    +0.000 C 
BRANCH  24  25
ATOM     25  O   UNL     1      -2.697  14.534  23.281  0.00  0.00    +0.000 OA
ATOM     26  H   UNL     1      -3.602  14.807  23.056  0.00  0.00    +0.000 HD
ENDBRANCH  24  25
BRANCH  24  27
ATOM     27  C   UNL     1      -4.185  12.661  23.863  0.00  0.00    +0.000 C 
BRANCH  27  28
ATOM     28  N   UNL     1      -4.456  12.550  25.319  0.00  0.00    +0.000 NA
ATOM     29  H   UNL     1      -4.162  11.636  25.656  0.00  0.00    +0.000 HD
ATOM     30  H   UNL     1      -5.466  12.595  25.465  0.00  0.00    +0.000 HD
ENDBRANCH  27  28
BRANCH  27  31
ATOM     31  C   UNL     1      -5.223  13.618  23.214  0.00  0.00    +0.000 C 
ATOM     32  C   UNL     1      -6.400  12.878  22.576  0.00  0.00    +0.000 C 
BRANCH  31  33
ATOM     33  O   UNL     1      -5.741  14.512  24.205  0.00  0.00    +0.000 OA
ATOM     34  H   UNL     1      -5.432  15.400  23.949  0.00  0.00    +0.000 HD
ENDBRANCH  31  33
ENDBRANCH  27  31
ENDBRANCH  24  27
ENDBRANCH  23  24
ENDBRANCH  11  22
TORSDOF 9
ENDMDL
MODEL 4
REMARK VINA RESULT:      -6.8      1.374      2.089
REMARK  Name = 
REMARK  11 active torsions:
REMARK  status: ('A' for Active; 'I' for Inactive)
REMARK    1  A    between atoms: C_1  and  O_2
REMARK    2  A    between atoms: O_2  and  C_3
REMARK    3  A    between atoms: C_7  and  C_8
REMARK    4  A    between atoms: C_18  and  C_19
REMARK    5  A    between atoms: C_20  and  C_21
REMARK    6  A    between atoms: C_21  and  O_22
REMARK    7  A    between atoms: C_21  and  C_23
REMARK    8  A    between atoms: C_23  and  N_24
REMARK    9  A    between atoms: C_23  and  C_25
REMARK   10  A    between atoms: C_25  and  C_26
REMARK   11  A    between atoms: C_25  and  O_27
REMARK                            x       y       z     vdW  Elec       q    Type
REMARK                         _______ _______ _______ _____ _____    ______ ____
ROOT
ATOM      1  C   UNL     1      -4.157  12.245  19.896  0.00  0.00    +0.000 C 
ATOM      2  C   UNL     1      -4.456  12.079  18.593  0.00  0.00    +0.000 C 
ATOM      3  C   UNL     1      -5.602  12.655  17.804  0.00  0.00    +0.000 C 
ATOM      4  O   UNL     1      -6.373  13.544  18.122  0.00  0.00    +0.000 OA
ATOM      5  N   UNL     1      -5.577  12.010  16.581  0.00  0.00    +0.000 N 
ATOM      6  C   UNL     1      -4.466  11.187  16.467  0.00  0.00    +0.000 A 
ATOM      7  C   UNL     1      -4.085  10.497  15.330  0.00  0.00    +0.000 A 
ATOM      8  C   UNL     1      -2.868   9.820  15.371  0.00  0.00    +0.000 A 
ATOM      9  C   UNL     1      -2.090   9.846  16.537  0.00  0.00    +0.000 A 
ATOM     10  F   UNL     1      -0.907   9.212  16.520  0.00  0.00    +0.000 F 
ATOM     11  C   UNL     1      -2.510  10.526  17.690  0.00  0.00    +0.000 A 
ATOM     12  C   UNL     1      -3.719  11.202  17.651  0.00  0.00    +0.000 A 
ATOM     13  H   UNL     1      -6.234  12.223  15.845  0.00  0.00    +0.000 HD
ENDROOT
BRANCH   1  18
ATOM     14  C   UNL     1      -5.941  12.829  21.640  0.00  0.00    +0.000 A 
ATOM     15  C   UNL     1      -6.130  13.943  22.491  0.00  0.00    +0.000 A 
ATOM     16  C   UNL     1      -5.110  14.825  22.226  0.00  0.00    +0.000 A 
ATOM     17  N   UNL     1      -4.314  14.272  21.256  0.00  0.00    +0.000 N 
ATOM     18  C   UNL     1      -4.812  13.052  20.868  0.00  0.00    +0.000 A 
ATOM     19  H   UNL     1      -3.508  14.729  20.841  0.00  0.00    +0.000 HD
BRANCH  14  21
ATOM     20  C   UNL     1      -7.905  11.718  22.224  0.00  0.00    +0.000 C 
ATOM     21  O   UNL     1      -6.668  11.695  21.518  0.00  0.00    +0.000 OA
ENDBRANCH  14  21
ENDBRANCH   1  18
BRANCH  11  22
ATOM     22  C   UNL     1      -1.688  10.533  18.852  0.00  0.00    +0.000 C 
ATOM     23  C   UNL     1      -0.914  10.568  19.900  0.00  0.00    +0.000 C 
BRANCH  23  24
ATOM     24  C   UNL     1      -0.013  10.608  21.123  0.00  0.00    +0.000 C 
BRANCH  24  25
ATOM     25  O   UNL     1       0.800  11.775  21.006  0.00  0.00    +0.000 OA
ATOM     26  H   UNL     1       1.413  11.631  20.266  0.00  0.00    +0.000 HD
ENDBRANCH  24  25
BRANCH  24  27
ATOM     27  C   UNL     1      -0.820  10.618  22.454  0.00  0.00    +0.000 C 
BRANCH  27  28
ATOM     28  N   UNL     1       0.017  10.213  23.613  0.00  0.00    +0.000 NA
ATOM     29  H   UNL     1      -0.462   9.494  24.150  0.00  0.00    +0.000 HD
ATOM     30  H   UNL     1       0.116  11.015  24.238  0.00  0.00    +0.000 HD
ENDBRANCH  27  28
BRANCH  27  31
ATOM     31  C   UNL     1      -1.433  12.020  22.723  0.00  0.00    +0.000 C 
ATOM     32  C   UNL     1      -2.709  11.963  23.563  0.00  0.00    +0.000 C 
BRANCH  31  33
ATOM     33  O   UNL     1      -0.482  12.840  23.411  0.00  0.00    +0.000 OA
ATOM     34  H   UNL     1      -0.076  12.267  24.085  0.00  0.00    +0.000 HD
ENDBRANCH  31  33
ENDBRANCH  27  31
ENDBRANCH  24  27
ENDBRANCH  23  24
ENDBRANCH  11  22
TORSDOF 9
ENDMDL
MODEL 5
REMARK VINA RESULT:      -6.8      2.683      5.230
REMARK  Name = 
REMARK  11 active torsions:
REMARK  status: ('A' for Active; 'I' for Inactive)
REMARK    1  A    between atoms: C_1  and  O_2
REMARK    2  A    between atoms: O_2  and  C_3
REMARK    3  A    between atoms: C_7  and  C_8
REMARK    4  A    between atoms: C_18  and  C_19
REMARK    5  A    between atoms: C_20  and  C_21
REMARK    6  A    between atoms: C_21  and  O_22
REMARK    7  A    between atoms: C_21  and  C_23
REMARK    8  A    between atoms: C_23  and  N_24
REMARK    9  A    between atoms: C_23  and  C_25
REMARK   10  A    between atoms: C_25  and  C_26
REMARK   11  A    between atoms: C_25  and  O_27
REMARK                            x       y       z     vdW  Elec       q    Type
REMARK                         _______ _______ _______ _____ _____    ______ ____
ROOT
ATOM      1  C   UNL     1      -1.941  11.240  19.129  0.00  0.00    +0.000 C 
ATOM      2  C   UNL     1      -2.964  11.237  18.252  0.00  0.00    +0.000 C 
ATOM      3  C   UNL     1      -3.030  10.626  16.877  0.00  0.00    +0.000 C 
ATOM      4  O   UNL     1      -2.256   9.841  16.357  0.00  0.00    +0.000 OA
ATOM      5  N   UNL     1      -4.207  11.087  16.317  0.00  0.00    +0.000 N 
ATOM      6  C   UNL     1      -4.951  11.815  17.234  0.00  0.00    +0.000 A 
ATOM      7  C   UNL     1      -6.225  12.311  17.029  0.00  0.00    +0.000 A 
ATOM      8  C   UNL     1      -6.860  12.910  18.115  0.00  0.00    +0.000 A 
ATOM      9  C   UNL     1      -6.202  13.004  19.349  0.00  0.00    +0.000 A 
ATOM     10  F   UNL     1      -6.865  13.554  20.378  0.00  0.00    +0.000 F 
ATOM     11  C   UNL     1      -4.896  12.522  19.528  0.00  0.00    +0.000 A 
ATOM     12  C   UNL     1      -4.263  11.923  18.450  0.00  0.00    +0.000 A 
ATOM     13  H   UNL     1      -4.510  10.812  15.395  0.00  0.00    +0.000 HD
ENDROOT
BRANCH   1  18
ATOM     14  C   UNL     1       0.014   9.750  19.852  0.00  0.00    +0.000 A 
ATOM     15  C   UNL     1       1.237   9.398  19.237  0.00  0.00    +0.000 A 
ATOM     16  C   UNL     1       1.284  10.061  18.035  0.00  0.00    +0.000 A 
ATOM     17  N   UNL     1       0.127  10.785  17.905  0.00  0.00    +0.000 N 
ATOM     18  C   UNL     1      -0.664  10.623  19.017  0.00  0.00    +0.000 A 
ATOM     19  H   UNL     1      -0.084  11.402  17.127  0.00  0.00    +0.000 HD
BRANCH  14  21
ATOM     20  C   UNL     1       0.245   8.347  21.699  0.00  0.00    +0.000 C 
ATOM     21  O   UNL     1      -0.505   9.362  21.040  0.00  0.00    +0.000 OA
ENDBRANCH  14  21
ENDBRANCH   1  18
BRANCH  11  22
ATOM     22  C   UNL     1      -4.265  12.631  20.798  0.00  0.00    +0.000 C 
ATOM     23  C   UNL     1      -3.722  12.731  21.979  0.00  0.00    +0.000 C 
BRANCH  23  24
ATOM     24  C   UNL     1      -3.087  12.847  23.355  0.00  0.00    +0.000 C 
BRANCH  24  25
ATOM     25  O   UNL     1      -3.862  12.042  24.243  0.00  0.00    +0.000 OA
ATOM     26  H   UNL     1      -4.798  12.243  24.078  0.00  0.00    +0.000 HD
ENDBRANCH  24  25
BRANCH  24  27
ATOM     27  C   UNL     1      -1.594  12.407  23.358  0.00  0.00    +0.000 C 
BRANCH  27  28
ATOM     28  N   UNL     1      -1.450  10.932  23.246  0.00  0.00    +0.000 NA
ATOM     29  H   UNL     1      -2.140  10.568  22.594  0.00  0.00    +0.000 HD
ATOM     30  H   UNL     1      -1.668  10.516  24.153  0.00  0.00    +0.000 HD
ENDBRANCH  27  28
BRANCH  27  31
ATOM     31  C   UNL     1      -0.809  13.093  22.206  0.00  0.00    +0.000 C 
ATOM     32  C   UNL     1      -0.369  14.517  22.548  0.00  0.00    +0.000 C 
BRANCH  31  33
ATOM     33  O   UNL     1       0.361  12.327  21.895  0.00  0.00    +0.000 OA
ATOM     34  H   UNL     1       0.068  11.398  21.860  0.00  0.00    +0.000 HD
ENDBRANCH  31  33
ENDBRANCH  27  31
ENDBRANCH  24  27
ENDBRANCH  23  24
ENDBRANCH  11  22
TORSDOF 9
ENDMDL
MODEL 6
REMARK VINA RESULT:      -6.7      2.624      5.253
REMARK  Name = 
REMARK  11 active torsions:
REMARK  status: ('A' for Active; 'I' for Inactive)
REMARK    1  A    between atoms: C_1  and  O_2
REMARK    2  A    between atoms: O_2  and  C_3
REMARK    3  A    between atoms: C_7  and  C_8
REMARK    4  A    between atoms: C_18  and  C_19
REMARK    5  A    between atoms: C_20  and  C_21
REMARK    6  A    between atoms: C_21  and  O_22
REMARK    7  A    between atoms: C_21  and  C_23
REMARK    8  A    between atoms: C_23  and  N_24
REMARK    9  A    between atoms: C_23  and  C_25
REMARK   10  A    between atoms: C_25  and  C_26
REMARK   11  A    between atoms: C_25  and  O_27
REMARK                            x       y       z     vdW  Elec       q    Type
REMARK                         _______ _______ _______ _____ _____    ______ ____
ROOT
ATOM      1  C   UNL     1      -4.222  11.980  19.187  0.00  0.00    +0.000 C 
ATOM      2  C   UNL     1      -5.439  11.883  19.757  0.00  0.00    +0.000 C 
ATOM      3  C   UNL     1      -6.714  11.326  19.178  0.00  0.00    +0.000 C 
ATOM      4  O   UNL     1      -6.864  10.670  18.162  0.00  0.00    +0.000 OA
ATOM      5  N   UNL     1      -7.710  11.655  20.079  0.00  0.00    +0.000 N 
ATOM      6  C   UNL     1      -7.184  12.242  21.221  0.00  0.00    +0.000 A 
ATOM      7  C   UNL     1      -7.896  12.578  22.358  0.00  0.00    +0.000 A 
ATOM      8  C   UNL     1      -7.170  13.043  23.452  0.00  0.00    +0.000 A 
ATOM      9  C   UNL     1      -5.776  13.168  23.368  0.00  0.00    +0.000 A 
ATOM     10  F   UNL     1      -5.113  13.584  24.458  0.00  0.00    +0.000 F 
ATOM     11  C   UNL     1      -5.076  12.852  22.194  0.00  0.00    +0.000 A 
ATOM     12  C   UNL     1      -5.795  12.386  21.105  0.00  0.00    +0.000 A 
ATOM     13  H   UNL     1      -8.671  11.383  19.943  0.00  0.00    +0.000 HD
ENDROOT
BRANCH   1  18
ATOM     14  C   UNL     1      -2.632  10.921  17.480  0.00  0.00    +0.000 A 
ATOM     15  C   UNL     1      -2.744  10.646  16.098  0.00  0.00    +0.000 A 
ATOM     16  C   UNL     1      -3.979  11.098  15.701  0.00  0.00    +0.000 A 
ATOM     17  N   UNL     1      -4.612  11.621  16.799  0.00  0.00    +0.000 N 
ATOM     18  C   UNL     1      -3.798  11.538  17.903  0.00  0.00    +0.000 A 
ATOM     19  H   UNL     1      -5.525  12.064  16.783  0.00  0.00    +0.000 HD
BRANCH  14  21
ATOM     20  C   UNL     1      -0.573   9.871  17.784  0.00  0.00    +0.000 C 
ATOM     21  O   UNL     1      -1.615  10.669  18.336  0.00  0.00    +0.000 OA
ENDBRANCH  14  21
ENDBRANCH   1  18
BRANCH  11  22
ATOM     22  C   UNL     1      -3.660  12.987  22.151  0.00  0.00    +0.000 C 
ATOM     23  C   UNL     1      -2.361  13.075  22.097  0.00  0.00    +0.000 C 
BRANCH  23  24
ATOM     24  C   UNL     1      -0.846  13.179  22.034  0.00  0.00    +0.000 C 
BRANCH  24  25
ATOM     25  O   UNL     1      -0.381  13.356  23.372  0.00  0.00    +0.000 OA
ATOM     26  H   UNL     1      -0.092  12.487  23.698  0.00  0.00    +0.000 HD
ENDBRANCH  24  25
BRANCH  24  27
ATOM     27  C   UNL     1      -0.193  11.928  21.375  0.00  0.00    +0.000 C 
BRANCH  27  28
ATOM     28  N   UNL     1       1.291  11.994  21.411  0.00  0.00    +0.000 NA
ATOM     29  H   UNL     1       1.633  11.585  22.278  0.00  0.00    +0.000 HD
ATOM     30  H   UNL     1       1.572  12.975  21.429  0.00  0.00    +0.000 HD
ENDBRANCH  27  28
BRANCH  27  31
ATOM     31  C   UNL     1      -0.671  10.621  22.066  0.00  0.00    +0.000 C 
ATOM     32  C   UNL     1      -0.134   9.358  21.391  0.00  0.00    +0.000 C 
BRANCH  31  33
ATOM     33  O   UNL     1      -0.244  10.613  23.433  0.00  0.00    +0.000 OA
ATOM     34  H   UNL     1       0.730  10.621  23.407  0.00  0.00    +0.000 HD
ENDBRANCH  31  33
ENDBRANCH  27  31
ENDBRANCH  24  27
ENDBRANCH  23  24
ENDBRANCH  11  22
TORSDOF 9
ENDMDL
MODEL 7
REMARK VINA RESULT:      -6.6      2.849      6.210
REMARK  Name = 
REMARK  11 active torsions:
REMARK  status: ('A' for Active; 'I' for Inactive)
REMARK    1  A    between atoms: C_1  and  O_2
REMARK    2  A    between atoms: O_2  and  C_3
REMARK    3  A    between atoms: C_7  and  C_8
REMARK    4  A    between atoms: C_18  and  C_19
REMARK    5  A    between atoms: C_20  and  C_21
REMARK    6  A    between atoms: C_21  and  O_22
REMARK    7  A    between atoms: C_21  and  C_23
REMARK    8  A    between atoms: C_23  and  N_24
REMARK    9  A    between atoms: C_23  and  C_25
REMARK   10  A    between atoms: C_25  and  C_26
REMARK   11  A    between atoms: C_25  and  O_27
REMARK                            x       y       z     vdW  Elec       q    Type
REMARK                         _______ _______ _______ _____ _____    ______ ____
ROOT
ATOM      1  C   UNL     1      -2.403  12.811  20.869  0.00  0.00    +0.000 C 
ATOM      2  C   UNL     1      -3.187  13.210  21.889  0.00  0.00    +0.000 C 
ATOM      3  C   UNL     1      -2.806  13.960  23.139  0.00  0.00    +0.000 C 
ATOM      4  O   UNL     1      -1.761  14.535  23.391  0.00  0.00    +0.000 OA
ATOM      5  N   UNL     1      -3.925  13.931  23.951  0.00  0.00    +0.000 N 
ATOM      6  C   UNL     1      -5.007  13.358  23.298  0.00  0.00    +0.000 A 
ATOM      7  C   UNL     1      -6.298  13.284  23.786  0.00  0.00    +0.000 A 
ATOM      8  C   UNL     1      -7.278  12.785  22.931  0.00  0.00    +0.000 A 
ATOM      9  C   UNL     1      -6.933  12.367  21.637  0.00  0.00    +0.000 A 
ATOM     10  F   UNL     1      -7.915  11.928  20.834  0.00  0.00    +0.000 F 
ATOM     11  C   UNL     1      -5.611  12.421  21.172  0.00  0.00    +0.000 A 
ATOM     12  C   UNL     1      -4.635  12.920  22.020  0.00  0.00    +0.000 A 
ATOM     13  H   UNL     1      -3.949  14.381  24.853  0.00  0.00    +0.000 HD
ENDROOT
BRANCH   1  18
ATOM     14  C   UNL     1       0.105  12.502  21.294  0.00  0.00    +0.000 A 
ATOM     15  C   UNL     1       1.261  13.026  20.671  0.00  0.00    +0.000 A 
ATOM     16  C   UNL     1       0.829  13.867  19.674  0.00  0.00    +0.000 A 
ATOM     17  N   UNL     1      -0.542  13.853  19.672  0.00  0.00    +0.000 N 
ATOM     18  C   UNL     1      -1.012  13.033  20.670  0.00  0.00    +0.000 A 
ATOM     19  H   UNL     1      -1.125  14.418  19.062  0.00  0.00    +0.000 HD
BRANCH  14  21
ATOM     20  C   UNL     1      -0.037  10.262  21.926  0.00  0.00    +0.000 C 
ATOM     21  O   UNL     1      -0.008  11.630  22.323  0.00  0.00    +0.000 OA
ENDBRANCH  14  21
ENDBRANCH   1  18
BRANCH  11  22
ATOM     22  C   UNL     1      -5.303  11.993  19.851  0.00  0.00    +0.000 C 
ATOM     23  C   UNL     1      -4.988  11.587  18.653  0.00  0.00    +0.000 C 
BRANCH  23  24
ATOM     24  C   UNL     1      -4.621  11.113  17.256  0.00  0.00    +0.000 C 
BRANCH  24  25
ATOM     25  O   UNL     1      -4.528  12.274  16.430  0.00  0.00    +0.000 OA
ATOM     26  H   UNL     1      -4.359  11.974  15.522  0.00  0.00    +0.000 HD
ENDBRANCH  24  25
BRANCH  24  27
ATOM     27  C   UNL     1      -3.292  10.302  17.235  0.00  0.00    +0.000 C 
BRANCH  27  28
ATOM     28  N   UNL     1      -2.879   9.952  15.851  0.00  0.00    +0.000 NA
ATOM     29  H   UNL     1      -3.315  10.590  15.189  0.00  0.00    +0.000 HD
ATOM     30  H   UNL     1      -3.239   9.022  15.630  0.00  0.00    +0.000 HD
ENDBRANCH  27  28
BRANCH  27  31
ATOM     31  C   UNL     1      -2.149  11.088  17.934  0.00  0.00    +0.000 C 
ATOM     32  C   UNL     1      -0.904  10.237  18.181  0.00  0.00    +0.000 C 
BRANCH  31  33
ATOM     33  O   UNL     1      -1.771  12.210  17.128  0.00  0.00    +0.000 OA
ATOM     34  H   UNL     1      -1.946  12.999  17.672  0.00  0.00    +0.000 HD
ENDBRANCH  31  33
ENDBRANCH  27  31
ENDBRANCH  24  27
ENDBRANCH  23  24
ENDBRANCH  11  22
TORSDOF 9
ENDMDL
MODEL 8
REMARK VINA RESULT:      -6.6      2.048      5.331
REMARK  Name = 
REMARK  11 active torsions:
REMARK  status: ('A' for Active; 'I' for Inactive)
REMARK    1  A    between atoms: C_1  and  O_2
REMARK    2  A    between atoms: O_2  and  C_3
REMARK    3  A    between atoms: C_7  and  C_8
REMARK    4  A    between atoms: C_18  and  C_19
REMARK    5  A    between atoms: C_20  and  C_21
REMARK    6  A    between atoms: C_21  and  O_22
REMARK    7  A    between atoms: C_21  and  C_23
REMARK    8  A    between atoms: C_23  and  N_24
REMARK    9  A    between atoms: C_23  and  C_25
REMARK   10  A    between atoms: C_25  and  C_26
REMARK   11  A    between atoms: C_25  and  O_27
REMARK                            x       y       z     vdW  Elec       q    Type
REMARK                         _______ _______ _______ _____ _____    ______ ____
ROOT
ATOM      1  C   UNL     1      -2.760  13.029  21.120  0.00  0.00    +0.000 C 
ATOM      2  C   UNL     1      -1.715  12.223  20.852  0.00  0.00    +0.000 C 
ATOM      3  C   UNL     1      -0.478  11.973  21.675  0.00  0.00    +0.000 C 
ATOM      4  O   UNL     1      -0.260  12.285  22.833  0.00  0.00    +0.000 OA
ATOM      5  N   UNL     1       0.371  11.241  20.865  0.00  0.00    +0.000 N 
ATOM      6  C   UNL     1      -0.246  10.893  19.672  0.00  0.00    +0.000 A 
ATOM      7  C   UNL     1       0.285  10.066  18.699  0.00  0.00    +0.000 A 
ATOM      8  C   UNL     1      -0.538   9.732  17.626  0.00  0.00    +0.000 A 
ATOM      9  C   UNL     1      -1.843  10.241  17.556  0.00  0.00    +0.000 A 
ATOM     10  F   UNL     1      -2.613   9.863  16.525  0.00  0.00    +0.000 F 
ATOM     11  C   UNL     1      -2.352  11.104  18.538  0.00  0.00    +0.000 A 
ATOM     12  C   UNL     1      -1.536  11.436  19.608  0.00  0.00    +0.000 A 
ATOM     13  H   UNL     1       1.273  10.920  21.180  0.00  0.00    +0.000 HD
ENDROOT
BRANCH   1  18
ATOM     14  C   UNL     1      -3.633  13.535  23.475  0.00  0.00    +0.000 A 
ATOM     15  C   UNL     1      -3.558  14.676  24.307  0.00  0.00    +0.000 A 
ATOM     16  C   UNL     1      -2.884  15.641  23.600  0.00  0.00    +0.000 A 
ATOM     17  N   UNL     1      -2.543  15.113  22.381  0.00  0.00    +0.000 N 
ATOM     18  C   UNL     1      -3.006  13.824  22.274  0.00  0.00    +0.000 A 
ATOM     19  H   UNL     1      -2.072  15.625  21.641  0.00  0.00    +0.000 HD
BRANCH  14  21
ATOM     20  C   UNL     1      -5.002  12.272  24.877  0.00  0.00    +0.000 C 
ATOM     21  O   UNL     1      -4.190  12.324  23.708  0.00  0.00    +0.000 OA
ENDBRANCH  14  21
ENDBRANCH   1  18
BRANCH  11  22
ATOM     22  C   UNL     1      -3.683  11.595  18.434  0.00  0.00    +0.000 C 
ATOM     23  C   UNL     1      -4.892  12.066  18.309  0.00  0.00    +0.000 C 
BRANCH  23  24
ATOM     24  C   UNL     1      -6.302  12.614  18.163  0.00  0.00    +0.000 C 
BRANCH  24  25
ATOM     25  O   UNL     1      -6.870  12.007  17.002  0.00  0.00    +0.000 OA
ATOM     26  H   UNL     1      -7.465  11.300  17.304  0.00  0.00    +0.000 HD
ENDBRANCH  24  25
BRANCH  24  27
ATOM     27  C   UNL     1      -7.177  12.343  19.422  0.00  0.00    +0.000 C 
BRANCH  27  28
ATOM     28  N   UNL     1      -7.511  10.902  19.564  0.00  0.00    +0.000 NA
ATOM     29  H   UNL     1      -7.967  10.569  18.719  0.00  0.00    +0.000 HD
ATOM     30  H   UNL     1      -8.196  10.801  20.316  0.00  0.00    +0.000 HD
ENDBRANCH  27  28
BRANCH  27  31
ATOM     31  C   UNL     1      -6.466  12.840  20.711  0.00  0.00    +0.000 C 
ATOM     32  C   UNL     1      -7.252  13.928  21.444  0.00  0.00    +0.000 C 
BRANCH  31  33
ATOM     33  O   UNL     1      -6.276  11.742  21.612  0.00  0.00    +0.000 OA
ATOM     34  H   UNL     1      -6.525  10.944  21.113  0.00  0.00    +0.000 HD
ENDBRANCH  31  33
ENDBRANCH  27  31
ENDBRANCH  24  27
ENDBRANCH  23  24
ENDBRANCH  11  22
TORSDOF 9
ENDMDL
MODEL 9
REMARK VINA RESULT:      -6.5      1.027      1.115
REMARK  Name = 
REMARK  11 active torsions:
REMARK  status: ('A' for Active; 'I' for Inactive)
REMARK    1  A    between atoms: C_1  and  O_2
REMARK    2  A    between atoms: O_2  and  C_3
REMARK    3  A    between atoms: C_7  and  C_8
REMARK    4  A    between atoms: C_18  and  C_19
REMARK    5  A    between atoms: C_20  and  C_21
REMARK    6  A    between atoms: C_21  and  O_22
REMARK    7  A    between atoms: C_21  and  C_23
REMARK    8  A    between atoms: C_23  and  N_24
REMARK    9  A    between atoms: C_23  and  C_25
REMARK   10  A    between atoms: C_25  and  C_26
REMARK   11  A    between atoms: C_25  and  O_27
REMARK                            x       y       z     vdW  Elec       q    Type
REMARK                         _______ _______ _______ _____ _____    ______ ____
ROOT
ATOM      1  C   UNL     1      -4.413  12.480  20.250  0.00  0.00    +0.000 C 
ATOM      2  C   UNL     1      -4.639  12.216  18.948  0.00  0.00    +0.000 C 
ATOM      3  C   UNL     1      -5.813  12.612  18.092  0.00  0.00    +0.000 C 
ATOM      4  O   UNL     1      -6.697  13.415  18.337  0.00  0.00    +0.000 OA
ATOM      5  N   UNL     1      -5.664  11.917  16.905  0.00  0.00    +0.000 N 
ATOM      6  C   UNL     1      -4.459  11.229  16.871  0.00  0.00    +0.000 A 
ATOM      7  C   UNL     1      -3.955  10.537  15.786  0.00  0.00    +0.000 A 
ATOM      8  C   UNL     1      -2.668  10.016  15.902  0.00  0.00    +0.000 A 
ATOM      9  C   UNL     1      -1.945  10.191  17.091  0.00  0.00    +0.000 A 
ATOM     10  F   UNL     1      -0.695   9.704  17.146  0.00  0.00    +0.000 F 
ATOM     11  C   UNL     1      -2.488  10.869  18.192  0.00  0.00    +0.000 A 
ATOM     12  C   UNL     1      -3.766  11.391  18.078  0.00  0.00    +0.000 A 
ATOM     13  H   UNL     1      -6.312  12.013  16.139  0.00  0.00    +0.000 HD
ENDROOT
BRANCH   1  18
ATOM     14  C   UNL     1      -4.934  14.427  21.831  0.00  0.00    +0.000 A 
ATOM     15  C   UNL     1      -6.084  14.788  22.571  0.00  0.00    +0.000 A 
ATOM     16  C   UNL     1      -7.031  13.822  22.332  0.00  0.00    +0.000 A 
ATOM     17  N   UNL     1      -6.491  12.904  21.467  0.00  0.00    +0.000 N 
ATOM     18  C   UNL     1      -5.197  13.246  21.156  0.00  0.00    +0.000 A 
ATOM     19  H   UNL     1      -6.961  12.061  21.153  0.00  0.00    +0.000 HD
BRANCH  14  21
ATOM     20  C   UNL     1      -3.333  15.737  22.906  0.00  0.00    +0.000 C 
ATOM     21  O   UNL     1      -3.738  15.049  21.726  0.00  0.00    +0.000 OA
ENDBRANCH  14  21
ENDBRANCH   1  18
BRANCH  11  22
ATOM     22  C   UNL     1      -1.719  11.030  19.378  0.00  0.00    +0.000 C 
ATOM     23  C   UNL     1      -1.005  11.214  20.454  0.00  0.00    +0.000 C 
BRANCH  23  24
ATOM     24  C   UNL     1      -0.174  11.428  21.708  0.00  0.00    +0.000 C 
BRANCH  24  25
ATOM     25  O   UNL     1      -1.055  11.929  22.714  0.00  0.00    +0.000 OA
ATOM     26  H   UNL     1      -0.514  12.410  23.362  0.00  0.00    +0.000 HD
ENDBRANCH  24  25
BRANCH  24  27
ATOM     27  C   UNL     1       0.532  10.123  22.181  0.00  0.00    +0.000 C 
BRANCH  27  28
ATOM     28  N   UNL     1       0.165   9.769  23.576  0.00  0.00    +0.000 NA
ATOM     29  H   UNL     1       0.243  10.589  24.172  0.00  0.00    +0.000 HD
ATOM     30  H   UNL     1       0.846   9.095  23.930  0.00  0.00    +0.000 HD
ENDBRANCH  27  28
BRANCH  27  31
ATOM     31  C   UNL     1       0.193   8.934  21.239  0.00  0.00    +0.000 C 
ATOM     32  C   UNL     1       1.413   8.079  20.895  0.00  0.00    +0.000 C 
BRANCH  31  33
ATOM     33  O   UNL     1      -0.785   8.090  21.858  0.00  0.00    +0.000 OA
ATOM     34  H   UNL     1      -1.244   7.637  21.128  0.00  0.00    +0.000 HD
ENDBRANCH  31  33
ENDBRANCH  27  31
ENDBRANCH  24  27
ENDBRANCH  23  24
ENDBRANCH  11  22
TORSDOF 9
ENDMDL
