MODEL 1
REMARK VINA RESULT:      -7.8      0.000      0.000
REMARK  Name = 
REMARK  16 active torsions:
REMARK  status: ('A' for Active; 'I' for Inactive)
REMARK    1  A    between atoms: C_1  and  C_2
REMARK    2  A    between atoms: C_2  and  C_3
REMARK    3  A    between atoms: C_2  and  C_4
REMARK    4  A    between atoms: C_8  and  C_9
REMARK    5  A    between atoms: C_9  and  C_10
REMARK    6  A    between atoms: C_9  and  C_11
REMARK    7  A    between atoms: C_12  and  N_13
REMARK    8  A    between atoms: C_14  and  C_16
REMARK    9  A    between atoms: C_16  and  C_17
REMARK   10  A    between atoms: C_17  and  C_18
REMARK   11  A    between atoms: C_18  and  C_19
REMARK   12  A    between atoms: C_19  and  C_20
REMARK   13  A    between atoms: C_20  and  C_21
REMARK   14  A    between atoms: C_21  and  C_22
REMARK   15  A    between atoms: C_22  and  S_23
REMARK   16  A    between atoms: S_23  and  C_24
REMARK                            x       y       z     vdW  Elec       q    Type
REMARK                         _______ _______ _______ _____ _____    ______ ____
ROOT
ATOM      1  C   UNL     1       2.295   8.325  17.815  0.00  0.00    +0.000 C 
ENDROOT
BRANCH   1   3
ATOM      2  N   UNL     1       0.630  10.061  17.971  0.00  0.00    +0.000 N 
ATOM      3  C   UNL     1       1.327   9.098  18.714  0.00  0.00    +0.000 C 
ATOM      4  O   UNL     1       1.206   8.885  19.918  0.00  0.00    +0.000 OA
ATOM      5  H   UNL     1       1.132  10.369  17.152  0.00  0.00    +0.000 HD
BRANCH   2  11
ATOM      6  C   UNL     1      -1.666  10.897  18.392  0.00  0.00    +0.000 A 
ATOM      7  C   UNL     1      -2.491  11.853  19.024  0.00  0.00    +0.000 A 
ATOM      8  C   UNL     1      -1.959  12.935  19.706  0.00  0.00    +0.000 A 
ATOM      9  C   UNL     1      -0.583  13.104  19.753  0.00  0.00    +0.000 A 
ATOM     10  C   UNL     1       0.294  12.163  19.178  0.00  0.00    +0.000 A 
ATOM     11  C   UNL     1      -0.259  11.013  18.538  0.00  0.00    +0.000 A 
BRANCH   6  13
ATOM     12  C   UNL     1      -3.707   9.433  17.878  0.00  0.00    +0.000 C 
ATOM     13  C   UNL     1      -2.340   9.943  17.404  0.00  0.00    +0.000 C 
ATOM     14  C   UNL     1      -2.496  10.643  16.039  0.00  0.00    +0.000 C 
ENDBRANCH   6  13
BRANCH  10  15
ATOM     15  C   UNL     1       1.798  12.452  19.224  0.00  0.00    +0.000 C 
ATOM     16  C   UNL     1       2.186  13.323  18.022  0.00  0.00    +0.000 C 
ATOM     17  C   UNL     1       2.291  13.127  20.515  0.00  0.00    +0.000 C 
ENDBRANCH  10  15
ENDBRANCH   2  11
ENDBRANCH   1   3
BRANCH   1  18
ATOM     18  C   UNL     1       3.074   7.194  18.488  0.00  0.00    +0.000 C 
BRANCH  18  19
ATOM     19  C   UNL     1       2.273   5.876  18.563  0.00  0.00    +0.000 C 
BRANCH  19  20
ATOM     20  C   UNL     1       1.921   5.371  19.972  0.00  0.00    +0.000 C 
BRANCH  20  21
ATOM     21  C   UNL     1       1.878   3.842  20.089  0.00  0.00    +0.000 C 
BRANCH  21  22
ATOM     22  C   UNL     1       1.117   3.202  18.917  0.00  0.00    +0.000 C 
BRANCH  22  23
ATOM     23  C   UNL     1       2.071   2.505  17.940  0.00  0.00    +0.000 C 
BRANCH  23  24
ATOM     24  S   UNL     1       3.506   1.828  18.841  0.00  0.00    +0.000 S 
BRANCH  24  25
ATOM     25  C   UNL     1       4.685   3.053  18.547  0.00  0.00    +0.000 A 
ATOM     26  N   UNL     1       5.459   3.648  19.420  0.00  0.00    +0.000 NA
ATOM     27  C   UNL     1       6.088   4.643  18.706  0.00  0.00    +0.000 A 
ATOM     28  C   UNL     1       6.984   5.630  19.142  0.00  0.00    +0.000 A 
ATOM     29  C   UNL     1       7.421   6.596  18.224  0.00  0.00    +0.000 A 
ATOM     30  C   UNL     1       6.995   6.563  16.894  0.00  0.00    +0.000 A 
ATOM     31  C   UNL     1       6.134   5.562  16.428  0.00  0.00    +0.000 A 
ATOM     32  C   UNL     1       5.698   4.625  17.369  0.00  0.00    +0.000 A 
ATOM     33  N   UNL     1       4.844   3.553  17.287  0.00  0.00    +0.000 N 
ATOM     34  H   UNL     1       4.354   3.233  16.467  0.00  0.00    +0.000 HD
ENDBRANCH  24  25
ENDBRANCH  23  24
ENDBRANCH  22  23
ENDBRANCH  21  22
ENDBRANCH  20  21
ENDBRANCH  19  20
ENDBRANCH  18  19
ENDBRANCH   1  18
TORSDOF 12
ENDMDL
MODEL 2
REMARK VINA RESULT:      -7.2      2.139      3.453
REMARK  Name = 
REMARK  16 active torsions:
REMARK  status: ('A' for Active; 'I' for Inactive)
REMARK    1  A    between atoms: C_1  and  C_2
REMARK    2  A    between atoms: C_2  and  C_3
REMARK    3  A    between atoms: C_2  and  C_4
REMARK    4  A    between atoms: C_8  and  C_9
REMARK    5  A    between atoms: C_9  and  C_10
REMARK    6  A    between atoms: C_9  and  C_11
REMARK    7  A    between atoms: C_12  and  N_13
REMARK    8  A    between atoms: C_14  and  C_16
REMARK    9  A    between atoms: C_16  and  C_17
REMARK   10  A    between atoms: C_17  and  C_18
REMARK   11  A    between atoms: C_18  and  C_19
REMARK   12  A    between atoms: C_19  and  C_20
REMARK   13  A    between atoms: C_20  and  C_21
REMARK   14  A    between atoms: C_21  and  C_22
REMARK   15  A    between atoms: C_22  and  S_23
REMARK   16  A    between atoms: S_23  and  C_24
REMARK                            x       y       z     vdW  Elec       q    Type
REMARK                         _______ _______ _______ _____ _____    ______ ____
ROOT
ATOM      1  C   UNL     1       1.790   9.828  18.086  0.00  0.00    +0.000 C 
ENDROOT
BRANCH   1   3
ATOM      2  N   UNL     1       0.998  11.118  19.962  0.00  0.00    +0.000 N 
ATOM      3  C   UNL     1       0.588  10.454  18.798  0.00  0.00    +0.000 C 
ATOM      4  O   UNL     1      -0.566  10.363  18.384  0.00  0.00    +0.000 OA
ATOM      5  H   UNL     1       1.853  10.748  20.349  0.00  0.00    +0.000 HD
BRANCH   2  11
ATOM      6  C   UNL     1      -0.297  13.062  20.792  0.00  0.00    +0.000 A 
ATOM      7  C   UNL     1      -1.225  13.566  21.732  0.00  0.00    +0.000 A 
ATOM      8  C   UNL     1      -1.680  12.795  22.789  0.00  0.00    +0.000 A 
ATOM      9  C   UNL     1      -1.198  11.505  22.951  0.00  0.00    +0.000 A 
ATOM     10  C   UNL     1      -0.305  10.931  22.026  0.00  0.00    +0.000 A 
ATOM     11  C   UNL     1       0.105  11.706  20.899  0.00  0.00    +0.000 A 
BRANCH   6  13
ATOM     12  C   UNL     1      -0.221  14.131  18.463  0.00  0.00    +0.000 C 
ATOM     13  C   UNL     1       0.381  14.079  19.873  0.00  0.00    +0.000 C 
ATOM     14  C   UNL     1       0.311  15.479  20.515  0.00  0.00    +0.000 C 
ENDBRANCH   6  13
BRANCH  10  15
ATOM     15  C   UNL     1       0.224   9.521  22.308  0.00  0.00    +0.000 C 
ATOM     16  C   UNL     1       0.338   9.313  23.823  0.00  0.00    +0.000 C 
ATOM     17  C   UNL     1      -0.614   8.380  21.704  0.00  0.00    +0.000 C 
ENDBRANCH  10  15
ENDBRANCH   2  11
ENDBRANCH   1   3
BRANCH   1  18
ATOM     18  C   UNL     1       1.796   8.301  18.003  0.00  0.00    +0.000 C 
BRANCH  18  19
ATOM     19  C   UNL     1       2.110   7.629  19.357  0.00  0.00    +0.000 C 
BRANCH  19  20
ATOM     20  C   UNL     1       2.643   6.188  19.296  0.00  0.00    +0.000 C 
BRANCH  20  21
ATOM     21  C   UNL     1       2.223   5.321  20.490  0.00  0.00    +0.000 C 
BRANCH  21  22
ATOM     22  C   UNL     1       1.117   4.324  20.109  0.00  0.00    +0.000 C 
BRANCH  22  23
ATOM     23  C   UNL     1       1.679   3.134  19.321  0.00  0.00    +0.000 C 
BRANCH  23  24
ATOM     24  S   UNL     1       3.390   2.786  19.848  0.00  0.00    +0.000 S 
BRANCH  24  25
ATOM     25  C   UNL     1       4.282   3.466  18.537  0.00  0.00    +0.000 A 
ATOM     26  N   UNL     1       3.909   3.582  17.287  0.00  0.00    +0.000 NA
ATOM     27  C   UNL     1       5.031   4.035  16.629  0.00  0.00    +0.000 A 
ATOM     28  C   UNL     1       5.232   4.281  15.264  0.00  0.00    +0.000 A 
ATOM     29  C   UNL     1       6.509   4.658  14.827  0.00  0.00    +0.000 A 
ATOM     30  C   UNL     1       7.559   4.813  15.737  0.00  0.00    +0.000 A 
ATOM     31  C   UNL     1       7.370   4.613  17.110  0.00  0.00    +0.000 A 
ATOM     32  C   UNL     1       6.091   4.218  17.513  0.00  0.00    +0.000 A 
ATOM     33  N   UNL     1       5.559   3.903  18.739  0.00  0.00    +0.000 N 
ATOM     34  H   UNL     1       6.038   3.911  19.625  0.00  0.00    +0.000 HD
ENDBRANCH  24  25
ENDBRANCH  23  24
ENDBRANCH  22  23
ENDBRANCH  21  22
ENDBRANCH  20  21
ENDBRANCH  19  20
ENDBRANCH  18  19
ENDBRANCH   1  18
TORSDOF 12
ENDMDL
MODEL 3
REMARK VINA RESULT:      -7.1      1.348      3.360
REMARK  Name = 
REMARK  16 active torsions:
REMARK  status: ('A' for Active; 'I' for Inactive)
REMARK    1  A    between atoms: C_1  and  C_2
REMARK    2  A    between atoms: C_2  and  C_3
REMARK    3  A    between atoms: C_2  and  C_4
REMARK    4  A    between atoms: C_8  and  C_9
REMARK    5  A    between atoms: C_9  and  C_10
REMARK    6  A    between atoms: C_9  and  C_11
REMARK    7  A    between atoms: C_12  and  N_13
REMARK    8  A    between atoms: C_14  and  C_16
REMARK    9  A    between atoms: C_16  and  C_17
REMARK   10  A    between atoms: C_17  and  C_18
REMARK   11  A    between atoms: C_18  and  C_19
REMARK   12  A    between atoms: C_19  and  C_20
REMARK   13  A    between atoms: C_20  and  C_21
REMARK   14  A    between atoms: C_21  and  C_22
REMARK   15  A    between atoms: C_22  and  S_23
REMARK   16  A    between atoms: S_23  and  C_24
REMARK                            x       y       z     vdW  Elec       q    Type
REMARK                         _______ _______ _______ _____ _____    ______ ____
ROOT
ATOM      1  C   UNL     1       1.903   9.799  18.310  0.00  0.00    +0.000 C 
ENDROOT
BRANCH   1   3
ATOM      2  N   UNL     1      -0.279  10.454  19.096  0.00  0.00    +0.000 N 
ATOM      3  C   UNL     1       0.936  10.949  18.605  0.00  0.00    +0.000 C 
ATOM      4  O   UNL     1       1.216  12.131  18.419  0.00  0.00    +0.000 OA
ATOM      5  H   UNL     1      -0.476   9.512  18.793  0.00  0.00    +0.000 HD
BRANCH   2  11
ATOM      6  C   UNL     1      -1.488  12.101  20.501  0.00  0.00    +0.000 A 
ATOM      7  C   UNL     1      -2.631  12.913  20.672  0.00  0.00    +0.000 A 
ATOM      8  C   UNL     1      -3.708  12.846  19.803  0.00  0.00    +0.000 A 
ATOM      9  C   UNL     1      -3.681  11.944  18.751  0.00  0.00    +0.000 A 
ATOM     10  C   UNL     1      -2.554  11.137  18.502  0.00  0.00    +0.000 A 
ATOM     11  C   UNL     1      -1.419  11.262  19.358  0.00  0.00    +0.000 A 
BRANCH   6  13
ATOM     12  C   UNL     1       0.384  13.248  21.825  0.00  0.00    +0.000 C 
ATOM     13  C   UNL     1      -0.515  12.014  21.678  0.00  0.00    +0.000 C 
ATOM     14  C   UNL     1      -1.307  11.795  22.983  0.00  0.00    +0.000 C 
ENDBRANCH   6  13
BRANCH  10  15
ATOM     15  C   UNL     1      -2.626  10.125  17.353  0.00  0.00    +0.000 C 
ATOM     16  C   UNL     1      -3.857   9.228  17.540  0.00  0.00    +0.000 C 
ATOM     17  C   UNL     1      -2.663  10.743  15.944  0.00  0.00    +0.000 C 
ENDBRANCH  10  15
ENDBRANCH   2  11
ENDBRANCH   1   3
BRANCH   1  18
ATOM     18  C   UNL     1       1.864   8.624  19.288  0.00  0.00    +0.000 C 
BRANCH  18  19
ATOM     19  C   UNL     1       2.478   7.335  18.702  0.00  0.00    +0.000 C 
BRANCH  19  20
ATOM     20  C   UNL     1       2.564   6.127  19.650  0.00  0.00    +0.000 C 
BRANCH  20  21
ATOM     21  C   UNL     1       1.610   4.984  19.284  0.00  0.00    +0.000 C 
BRANCH  21  22
ATOM     22  C   UNL     1       2.166   3.617  19.715  0.00  0.00    +0.000 C 
BRANCH  22  23
ATOM     23  C   UNL     1       2.012   2.571  18.605  0.00  0.00    +0.000 C 
BRANCH  23  24
ATOM     24  S   UNL     1       3.652   1.975  18.074  0.00  0.00    +0.000 S 
BRANCH  24  25
ATOM     25  C   UNL     1       4.538   3.455  18.021  0.00  0.00    +0.000 A 
ATOM     26  N   UNL     1       4.436   4.420  17.142  0.00  0.00    +0.000 NA
ATOM     27  C   UNL     1       5.463   5.284  17.454  0.00  0.00    +0.000 A 
ATOM     28  C   UNL     1       5.870   6.461  16.811  0.00  0.00    +0.000 A 
ATOM     29  C   UNL     1       7.014   7.123  17.278  0.00  0.00    +0.000 A 
ATOM     30  C   UNL     1       7.722   6.636  18.380  0.00  0.00    +0.000 A 
ATOM     31  C   UNL     1       7.308   5.486  19.063  0.00  0.00    +0.000 A 
ATOM     32  C   UNL     1       6.177   4.836  18.562  0.00  0.00    +0.000 A 
ATOM     33  N   UNL     1       5.519   3.691  18.940  0.00  0.00    +0.000 N 
ATOM     34  H   UNL     1       5.758   3.083  19.706  0.00  0.00    +0.000 HD
ENDBRANCH  24  25
ENDBRANCH  23  24
ENDBRANCH  22  23
ENDBRANCH  21  22
ENDBRANCH  20  21
ENDBRANCH  19  20
ENDBRANCH  18  19
ENDBRANCH   1  18
TORSDOF 12
ENDMDL
MODEL 4
REMARK VINA RESULT:      -7.1      1.561      3.501
REMARK  Name = 
REMARK  16 active torsions:
REMARK  status: ('A' for Active; 'I' for Inactive)
REMARK    1  A    between atoms: C_1  and  C_2
REMARK    2  A    between atoms: C_2  and  C_3
REMARK    3  A    between atoms: C_2  and  C_4
REMARK    4  A    between atoms: C_8  and  C_9
REMARK    5  A    between atoms: C_9  and  C_10
REMARK    6  A    between atoms: C_9  and  C_11
REMARK    7  A    between atoms: C_12  and  N_13
REMARK    8  A    between atoms: C_14  and  C_16
REMARK    9  A    between atoms: C_16  and  C_17
REMARK   10  A    between atoms: C_17  and  C_18
REMARK   11  A    between atoms: C_18  and  C_19
REMARK   12  A    between atoms: C_19  and  C_20
REMARK   13  A    between atoms: C_20  and  C_21
REMARK   14  A    between atoms: C_21  and  C_22
REMARK   15  A    between atoms: C_22  and  S_23
REMARK   16  A    between atoms: S_23  and  C_24
REMARK                            x       y       z     vdW  Elec       q    Type
REMARK                         _______ _______ _______ _____ _____    ______ ____
ROOT
ATOM      1  C   UNL     1       1.402  10.051  18.939  0.00  0.00    +0.000 C 
ENDROOT
BRANCH   1   3
ATOM      2  N   UNL     1      -0.551  11.459  19.042  0.00  0.00    +0.000 N 
ATOM      3  C   UNL     1       0.007  10.270  19.530  0.00  0.00    +0.000 C 
ATOM      4  O   UNL     1      -0.519   9.495  20.325  0.00  0.00    +0.000 OA
ATOM      5  H   UNL     1       0.142  12.137  18.762  0.00  0.00    +0.000 HD
BRANCH   2  11
ATOM      6  C   UNL     1      -1.879  12.786  20.662  0.00  0.00    +0.000 A 
ATOM      7  C   UNL     1      -3.134  13.328  21.017  0.00  0.00    +0.000 A 
ATOM      8  C   UNL     1      -4.281  13.041  20.294  0.00  0.00    +0.000 A 
ATOM      9  C   UNL     1      -4.207  12.180  19.210  0.00  0.00    +0.000 A 
ATOM     10  C   UNL     1      -2.978  11.640  18.781  0.00  0.00    +0.000 A 
ATOM     11  C   UNL     1      -1.790  11.997  19.486  0.00  0.00    +0.000 A 
BRANCH   6  13
ATOM     12  C   UNL     1      -0.621  14.297  22.308  0.00  0.00    +0.000 C 
ATOM     13  C   UNL     1      -0.758  12.896  21.697  0.00  0.00    +0.000 C 
ATOM     14  C   UNL     1      -0.992  11.865  22.819  0.00  0.00    +0.000 C 
ENDBRANCH   6  13
BRANCH  10  15
ATOM     15  C   UNL     1      -2.990  10.653  17.609  0.00  0.00    +0.000 C 
ATOM     16  C   UNL     1      -4.325   9.897  17.593  0.00  0.00    +0.000 C 
ATOM     17  C   UNL     1      -2.751  11.283  16.226  0.00  0.00    +0.000 C 
ENDBRANCH  10  15
ENDBRANCH   2  11
ENDBRANCH   1   3
BRANCH   1  18
ATOM     18  C   UNL     1       1.506   8.983  17.849  0.00  0.00    +0.000 C 
BRANCH  18  19
ATOM     19  C   UNL     1       2.778   8.117  17.979  0.00  0.00    +0.000 C 
BRANCH  19  20
ATOM     20  C   UNL     1       2.608   6.753  18.669  0.00  0.00    +0.000 C 
BRANCH  20  21
ATOM     21  C   UNL     1       2.024   6.845  20.085  0.00  0.00    +0.000 C 
BRANCH  21  22
ATOM     22  C   UNL     1       1.837   5.456  20.715  0.00  0.00    +0.000 C 
BRANCH  22  23
ATOM     23  C   UNL     1       1.621   4.377  19.648  0.00  0.00    +0.000 C 
BRANCH  23  24
ATOM     24  S   UNL     1       2.786   2.998  19.906  0.00  0.00    +0.000 S 
BRANCH  24  25
ATOM     25  C   UNL     1       4.075   3.457  18.854  0.00  0.00    +0.000 A 
ATOM     26  N   UNL     1       5.265   3.892  19.185  0.00  0.00    +0.000 NA
ATOM     27  C   UNL     1       5.843   4.267  17.993  0.00  0.00    +0.000 A 
ATOM     28  C   UNL     1       7.091   4.857  17.748  0.00  0.00    +0.000 A 
ATOM     29  C   UNL     1       7.416   5.228  16.436  0.00  0.00    +0.000 A 
ATOM     30  C   UNL     1       6.525   4.990  15.385  0.00  0.00    +0.000 A 
ATOM     31  C   UNL     1       5.292   4.364  15.601  0.00  0.00    +0.000 A 
ATOM     32  C   UNL     1       4.987   4.024  16.922  0.00  0.00    +0.000 A 
ATOM     33  N   UNL     1       3.885   3.447  17.503  0.00  0.00    +0.000 N 
ATOM     34  H   UNL     1       3.046   3.142  17.035  0.00  0.00    +0.000 HD
ENDBRANCH  24  25
ENDBRANCH  23  24
ENDBRANCH  22  23
ENDBRANCH  21  22
ENDBRANCH  20  21
ENDBRANCH  19  20
ENDBRANCH  18  19
ENDBRANCH   1  18
TORSDOF 12
ENDMDL
MODEL 5
REMARK VINA RESULT:      -7.0      1.792      4.455
REMARK  Name = 
REMARK  16 active torsions:
REMARK  status: ('A' for Active; 'I' for Inactive)
REMARK    1  A    between atoms: C_1  and  C_2
REMARK    2  A    between atoms: C_2  and  C_3
REMARK    3  A    between atoms: C_2  and  C_4
REMARK    4  A    between atoms: C_8  and  C_9
REMARK    5  A    between atoms: C_9  and  C_10
REMARK    6  A    between atoms: C_9  and  C_11
REMARK    7  A    between atoms: C_12  and  N_13
REMARK    8  A    between atoms: C_14  and  C_16
REMARK    9  A    between atoms: C_16  and  C_17
REMARK   10  A    between atoms: C_17  and  C_18
REMARK   11  A    between atoms: C_18  and  C_19
REMARK   12  A    between atoms: C_19  and  C_20
REMARK   13  A    between atoms: C_20  and  C_21
REMARK   14  A    between atoms: C_21  and  C_22
REMARK   15  A    between atoms: C_22  and  S_23
REMARK   16  A    between atoms: S_23  and  C_24
REMARK                            x       y       z     vdW  Elec       q    Type
REMARK                         _______ _______ _______ _____ _____    ______ ____
ROOT
ATOM      1  C   UNL     1       1.931  10.407  18.251  0.00  0.00    +0.000 C 
ENDROOT
BRANCH   1   3
ATOM      2  N   UNL     1      -0.275  10.793  19.141  0.00  0.00    +0.000 N 
ATOM      3  C   UNL     1       0.855  11.433  18.616  0.00  0.00    +0.000 C 
ATOM      4  O   UNL     1       0.992  12.643  18.452  0.00  0.00    +0.000 OA
ATOM      5  H   UNL     1      -0.378   9.842  18.820  0.00  0.00    +0.000 HD
BRANCH   2  11
ATOM      6  C   UNL     1      -1.635  12.169  20.692  0.00  0.00    +0.000 A 
ATOM      7  C   UNL     1      -2.850  12.849  20.932  0.00  0.00    +0.000 A 
ATOM      8  C   UNL     1      -3.914  12.772  20.048  0.00  0.00    +0.000 A 
ATOM      9  C   UNL     1      -3.800  11.989  18.910  0.00  0.00    +0.000 A 
ATOM     10  C   UNL     1      -2.602  11.320  18.593  0.00  0.00    +0.000 A 
ATOM     11  C   UNL     1      -1.486  11.461  19.471  0.00  0.00    +0.000 A 
BRANCH   6  13
ATOM     12  C   UNL     1      -0.898  13.093  22.967  0.00  0.00    +0.000 C 
ATOM     13  C   UNL     1      -0.661  12.051  21.866  0.00  0.00    +0.000 C 
ATOM     14  C   UNL     1      -0.751  10.635  22.468  0.00  0.00    +0.000 C 
ENDBRANCH   6  13
BRANCH  10  15
ATOM     15  C   UNL     1      -2.577  10.429  17.346  0.00  0.00    +0.000 C 
ATOM     16  C   UNL     1      -3.666   9.354  17.466  0.00  0.00    +0.000 C 
ATOM     17  C   UNL     1      -2.750  11.174  16.012  0.00  0.00    +0.000 C 
ENDBRANCH  10  15
ENDBRANCH   2  11
ENDBRANCH   1   3
BRANCH   1  18
ATOM     18  C   UNL     1       1.435   8.986  17.980  0.00  0.00    +0.000 C 
BRANCH  18  19
ATOM     19  C   UNL     1       2.338   7.905  18.612  0.00  0.00    +0.000 C 
BRANCH  19  20
ATOM     20  C   UNL     1       3.156   7.043  17.637  0.00  0.00    +0.000 C 
BRANCH  20  21
ATOM     21  C   UNL     1       4.508   7.657  17.252  0.00  0.00    +0.000 C 
BRANCH  21  22
ATOM     22  C   UNL     1       5.418   6.637  16.548  0.00  0.00    +0.000 C 
BRANCH  22  23
ATOM     23  C   UNL     1       6.718   6.410  17.329  0.00  0.00    +0.000 C 
BRANCH  23  24
ATOM     24  S   UNL     1       6.950   4.630  17.655  0.00  0.00    +0.000 S 
BRANCH  24  25
ATOM     25  C   UNL     1       5.377   4.191  18.212  0.00  0.00    +0.000 A 
ATOM     26  N   UNL     1       4.855   4.405  19.394  0.00  0.00    +0.000 NA
ATOM     27  C   UNL     1       3.658   3.724  19.374  0.00  0.00    +0.000 A 
ATOM     28  C   UNL     1       2.707   3.555  20.390  0.00  0.00    +0.000 A 
ATOM     29  C   UNL     1       1.597   2.733  20.144  0.00  0.00    +0.000 A 
ATOM     30  C   UNL     1       1.427   2.115  18.903  0.00  0.00    +0.000 A 
ATOM     31  C   UNL     1       2.344   2.304  17.861  0.00  0.00    +0.000 A 
ATOM     32  C   UNL     1       3.449   3.112  18.141  0.00  0.00    +0.000 A 
ATOM     33  N   UNL     1       4.542   3.482  17.397  0.00  0.00    +0.000 N 
ATOM     34  H   UNL     1       4.743   3.218  16.446  0.00  0.00    +0.000 HD
ENDBRANCH  24  25
ENDBRANCH  23  24
ENDBRANCH  22  23
ENDBRANCH  21  22
ENDBRANCH  20  21
ENDBRANCH  19  20
ENDBRANCH  18  19
ENDBRANCH   1  18
TORSDOF 12
ENDMDL
MODEL 6
REMARK VINA RESULT:      -7.0      1.873      3.213
REMARK  Name = 
REMARK  16 active torsions:
REMARK  status: ('A' for Active; 'I' for Inactive)
REMARK    1  A    between atoms: C_1  and  C_2
REMARK    2  A    between atoms: C_2  and  C_3
REMARK    3  A    between atoms: C_2  and  C_4
REMARK    4  A    between atoms: C_8  and  C_9
REMARK    5  A    between atoms: C_9  and  C_10
REMARK    6  A    between atoms: C_9  and  C_11
REMARK    7  A    between atoms: C_12  and  N_13
REMARK    8  A    between atoms: C_14  and  C_16
REMARK    9  A    between atoms: C_16  and  C_17
REMARK   10  A    between atoms: C_17  and  C_18
REMARK   11  A    between atoms: C_18  and  C_19
REMARK   12  A    between atoms: C_19  and  C_20
REMARK   13  A    between atoms: C_20  and  C_21
REMARK   14  A    between atoms: C_21  and  C_22
REMARK   15  A    between atoms: C_22  and  S_23
REMARK   16  A    between atoms: S_23  and  C_24
REMARK                            x       y       z     vdW  Elec       q    Type
REMARK                         _______ _______ _______ _____ _____    ______ ____
ROOT
ATOM      1  C   UNL     1       1.003   9.161  17.655  0.00  0.00    +0.000 C 
ENDROOT
BRANCH   1   3
ATOM      2  N   UNL     1       0.926  10.824  19.397  0.00  0.00    +0.000 N 
ATOM      3  C   UNL     1       0.146  10.150  18.449  0.00  0.00    +0.000 C 
ATOM      4  O   UNL     1      -1.059  10.301  18.261  0.00  0.00    +0.000 OA
ATOM      5  H   UNL     1       1.738  10.301  19.688  0.00  0.00    +0.000 HD
BRANCH   2  11
ATOM      6  C   UNL     1       0.462  13.132  20.179  0.00  0.00    +0.000 A 
ATOM      7  C   UNL     1      -0.123  13.966  21.157  0.00  0.00    +0.000 A 
ATOM      8  C   UNL     1      -0.676  13.448  22.318  0.00  0.00    +0.000 A 
ATOM      9  C   UNL     1      -0.634  12.081  22.543  0.00  0.00    +0.000 A 
ATOM     10  C   UNL     1      -0.102  11.193  21.588  0.00  0.00    +0.000 A 
ATOM     11  C   UNL     1       0.401  11.726  20.363  0.00  0.00    +0.000 A 
BRANCH   6  13
ATOM     12  C   UNL     1       0.874  15.240  18.779  0.00  0.00    +0.000 C 
ATOM     13  C   UNL     1       1.322  13.811  19.112  0.00  0.00    +0.000 C 
ATOM     14  C   UNL     1       2.793  13.826  19.572  0.00  0.00    +0.000 C 
ENDBRANCH   6  13
BRANCH  10  15
ATOM     15  C   UNL     1      -0.042   9.702  21.939  0.00  0.00    +0.000 C 
ATOM     16  C   UNL     1       1.424   9.259  22.030  0.00  0.00    +0.000 C 
ATOM     17  C   UNL     1      -0.769   9.311  23.237  0.00  0.00    +0.000 C 
ENDBRANCH  10  15
ENDBRANCH   2  11
ENDBRANCH   1   3
BRANCH   1  18
ATOM     18  C   UNL     1       2.498   9.162  17.979  0.00  0.00    +0.000 C 
BRANCH  18  19
ATOM     19  C   UNL     1       3.090   7.740  18.085  0.00  0.00    +0.000 C 
BRANCH  19  20
ATOM     20  C   UNL     1       2.105   6.617  18.452  0.00  0.00    +0.000 C 
BRANCH  20  21
ATOM     21  C   UNL     1       2.156   6.208  19.929  0.00  0.00    +0.000 C 
BRANCH  21  22
ATOM     22  C   UNL     1       2.873   4.863  20.124  0.00  0.00    +0.000 C 
BRANCH  22  23
ATOM     23  C   UNL     1       2.237   3.757  19.274  0.00  0.00    +0.000 C 
BRANCH  23  24
ATOM     24  S   UNL     1       3.532   2.670  18.588  0.00  0.00    +0.000 S 
BRANCH  24  25
ATOM     25  C   UNL     1       4.839   3.784  18.420  0.00  0.00    +0.000 A 
ATOM     26  N   UNL     1       5.821   4.002  19.258  0.00  0.00    +0.000 NA
ATOM     27  C   UNL     1       6.491   5.085  18.735  0.00  0.00    +0.000 A 
ATOM     28  C   UNL     1       7.591   5.790  19.244  0.00  0.00    +0.000 A 
ATOM     29  C   UNL     1       8.040   6.927  18.558  0.00  0.00    +0.000 A 
ATOM     30  C   UNL     1       7.421   7.337  17.374  0.00  0.00    +0.000 A 
ATOM     31  C   UNL     1       6.348   6.624  16.826  0.00  0.00    +0.000 A 
ATOM     32  C   UNL     1       5.910   5.507  17.542  0.00  0.00    +0.000 A 
ATOM     33  N   UNL     1       4.889   4.612  17.336  0.00  0.00    +0.000 N 
ATOM     34  H   UNL     1       4.237   4.607  16.568  0.00  0.00    +0.000 HD
ENDBRANCH  24  25
ENDBRANCH  23  24
ENDBRANCH  22  23
ENDBRANCH  21  22
ENDBRANCH  20  21
ENDBRANCH  19  20
ENDBRANCH  18  19
ENDBRANCH   1  18
TORSDOF 12
ENDMDL
MODEL 7
REMARK VINA RESULT:      -7.0      1.283      3.149
REMARK  Name = 
REMARK  16 active torsions:
REMARK  status: ('A' for Active; 'I' for Inactive)
REMARK    1  A    between atoms: C_1  and  C_2
REMARK    2  A    between atoms: C_2  and  C_3
REMARK    3  A    between atoms: C_2  and  C_4
REMARK    4  A    between atoms: C_8  and  C_9
REMARK    5  A    between atoms: C_9  and  C_10
REMARK    6  A    between atoms: C_9  and  C_11
REMARK    7  A    between atoms: C_12  and  N_13
REMARK    8  A    between atoms: C_14  and  C_16
REMARK    9  A    between atoms: C_16  and  C_17
REMARK   10  A    between atoms: C_17  and  C_18
REMARK   11  A    between atoms: C_18  and  C_19
REMARK   12  A    between atoms: C_19  and  C_20
REMARK   13  A    between atoms: C_20  and  C_21
REMARK   14  A    between atoms: C_21  and  C_22
REMARK   15  A    between atoms: C_22  and  S_23
REMARK   16  A    between atoms: S_23  and  C_24
REMARK                            x       y       z     vdW  Elec       q    Type
REMARK                         _______ _______ _______ _____ _____    ______ ____
ROOT
ATOM      1  C   UNL     1       1.764   8.974  18.564  0.00  0.00    +0.000 C 
ENDROOT
BRANCH   1   3
ATOM      2  N   UNL     1      -0.299  10.003  19.266  0.00  0.00    +0.000 N 
ATOM      3  C   UNL     1       0.958  10.268  18.705  0.00  0.00    +0.000 C 
ATOM      4  O   UNL     1       1.379  11.368  18.358  0.00  0.00    +0.000 OA
ATOM      5  H   UNL     1      -0.619   9.062  19.097  0.00  0.00    +0.000 HD
BRANCH   2  11
ATOM      6  C   UNL     1      -1.297  11.916  20.489  0.00  0.00    +0.000 A 
ATOM      7  C   UNL     1      -2.320  12.888  20.555  0.00  0.00    +0.000 A 
ATOM      8  C   UNL     1      -3.377  12.893  19.659  0.00  0.00    +0.000 A 
ATOM      9  C   UNL     1      -3.453  11.907  18.686  0.00  0.00    +0.000 A 
ATOM     10  C   UNL     1      -2.443  10.936  18.543  0.00  0.00    +0.000 A 
ATOM     11  C   UNL     1      -1.321  10.979  19.423  0.00  0.00    +0.000 A 
BRANCH   6  13
ATOM     12  C   UNL     1       0.797  12.794  21.680  0.00  0.00    +0.000 C 
ATOM     13  C   UNL     1      -0.371  11.799  21.701  0.00  0.00    +0.000 C 
ATOM     14  C   UNL     1      -1.190  11.993  22.993  0.00  0.00    +0.000 C 
ENDBRANCH   6  13
BRANCH  10  15
ATOM     15  C   UNL     1      -2.630   9.848  17.480  0.00  0.00    +0.000 C 
ATOM     16  C   UNL     1      -4.005   9.191  17.659  0.00  0.00    +0.000 C 
ATOM     17  C   UNL     1      -2.488  10.329  16.026  0.00  0.00    +0.000 C 
ENDBRANCH  10  15
ENDBRANCH   2  11
ENDBRANCH   1   3
BRANCH   1  18
ATOM     18  C   UNL     1       1.766   8.050  19.783  0.00  0.00    +0.000 C 
BRANCH  18  19
ATOM     19  C   UNL     1       2.613   6.777  19.569  0.00  0.00    +0.000 C 
BRANCH  19  20
ATOM     20  C   UNL     1       2.212   5.544  20.396  0.00  0.00    +0.000 C 
BRANCH  20  21
ATOM     21  C   UNL     1       1.363   4.528  19.621  0.00  0.00    +0.000 C 
BRANCH  21  22
ATOM     22  C   UNL     1       1.823   4.397  18.160  0.00  0.00    +0.000 C 
BRANCH  22  23
ATOM     23  C   UNL     1       2.017   2.929  17.762  0.00  0.00    +0.000 C 
BRANCH  23  24
ATOM     24  S   UNL     1       3.317   2.167  18.791  0.00  0.00    +0.000 S 
BRANCH  24  25
ATOM     25  C   UNL     1       4.617   3.277  18.551  0.00  0.00    +0.000 A 
ATOM     26  N   UNL     1       5.347   3.867  19.463  0.00  0.00    +0.000 NA
ATOM     27  C   UNL     1       6.124   4.763  18.762  0.00  0.00    +0.000 A 
ATOM     28  C   UNL     1       7.050   5.704  19.232  0.00  0.00    +0.000 A 
ATOM     29  C   UNL     1       7.655   6.572  18.311  0.00  0.00    +0.000 A 
ATOM     30  C   UNL     1       7.361   6.484  16.947  0.00  0.00    +0.000 A 
ATOM     31  C   UNL     1       6.470   5.523  16.453  0.00  0.00    +0.000 A 
ATOM     32  C   UNL     1       5.868   4.686  17.396  0.00  0.00    +0.000 A 
ATOM     33  N   UNL     1       4.940   3.680  17.287  0.00  0.00    +0.000 N 
ATOM     34  H   UNL     1       4.509   3.345  16.441  0.00  0.00    +0.000 HD
ENDBRANCH  24  25
ENDBRANCH  23  24
ENDBRANCH  22  23
ENDBRANCH  21  22
ENDBRANCH  20  21
ENDBRANCH  19  20
ENDBRANCH  18  19
ENDBRANCH   1  18
TORSDOF 12
ENDMDL
MODEL 8
REMARK VINA RESULT:      -6.9      2.103      4.450
REMARK  Name = 
REMARK  16 active torsions:
REMARK  status: ('A' for Active; 'I' for Inactive)
REMARK    1  A    between atoms: C_1  and  C_2
REMARK    2  A    between atoms: C_2  and  C_3
REMARK    3  A    between atoms: C_2  and  C_4
REMARK    4  A    between atoms: C_8  and  C_9
REMARK    5  A    between atoms: C_9  and  C_10
REMARK    6  A    between atoms: C_9  and  C_11
REMARK    7  A    between atoms: C_12  and  N_13
REMARK    8  A    between atoms: C_14  and  C_16
REMARK    9  A    between atoms: C_16  and  C_17
REMARK   10  A    between atoms: C_17  and  C_18
REMARK   11  A    between atoms: C_18  and  C_19
REMARK   12  A    between atoms: C_19  and  C_20
REMARK   13  A    between atoms: C_20  and  C_21
REMARK   14  A    between atoms: C_21  and  C_22
REMARK   15  A    between atoms: C_22  and  S_23
REMARK   16  A    between atoms: S_23  and  C_24
REMARK                            x       y       z     vdW  Elec       q    Type
REMARK                         _______ _______ _______ _____ _____    ______ ____
ROOT
ATOM      1  C   UNL     1       2.176   9.618  18.047  0.00  0.00    +0.000 C 
ENDROOT
BRANCH   1   3
ATOM      2  N   UNL     1       1.139  11.078  19.660  0.00  0.00    +0.000 N 
ATOM      3  C   UNL     1       0.877  10.231  18.575  0.00  0.00    +0.000 C 
ATOM      4  O   UNL     1      -0.228   9.987  18.097  0.00  0.00    +0.000 OA
ATOM      5  H   UNL     1       1.984  10.837  20.156  0.00  0.00    +0.000 HD
BRANCH   2  11
ATOM      6  C   UNL     1      -0.288  13.039  20.176  0.00  0.00    +0.000 A 
ATOM      7  C   UNL     1      -1.329  13.585  20.959  0.00  0.00    +0.000 A 
ATOM      8  C   UNL     1      -1.886  12.886  22.018  0.00  0.00    +0.000 A 
ATOM      9  C   UNL     1      -1.396  11.629  22.340  0.00  0.00    +0.000 A 
ATOM     10  C   UNL     1      -0.389  11.013  21.572  0.00  0.00    +0.000 A 
ATOM     11  C   UNL     1       0.131  11.709  20.438  0.00  0.00    +0.000 A 
BRANCH   6  13
ATOM     12  C   UNL     1      -0.348  15.236  18.855  0.00  0.00    +0.000 C 
ATOM     13  C   UNL     1       0.468  14.001  19.259  0.00  0.00    +0.000 C 
ATOM     14  C   UNL     1       1.773  14.449  19.948  0.00  0.00    +0.000 C 
ENDBRANCH   6  13
BRANCH  10  15
ATOM     15  C   UNL     1       0.137   9.647  22.027  0.00  0.00    +0.000 C 
ATOM     16  C   UNL     1       0.053   9.553  23.556  0.00  0.00    +0.000 C 
ATOM     17  C   UNL     1      -0.581   8.436  21.407  0.00  0.00    +0.000 C 
ENDBRANCH  10  15
ENDBRANCH   2  11
ENDBRANCH   1   3
BRANCH   1  18
ATOM     18  C   UNL     1       2.117   8.134  17.684  0.00  0.00    +0.000 C 
BRANCH  18  19
ATOM     19  C   UNL     1       3.447   7.397  17.955  0.00  0.00    +0.000 C 
BRANCH  19  20
ATOM     20  C   UNL     1       4.351   7.151  16.735  0.00  0.00    +0.000 C 
BRANCH  20  21
ATOM     21  C   UNL     1       5.846   7.099  17.073  0.00  0.00    +0.000 C 
BRANCH  21  22
ATOM     22  C   UNL     1       6.177   5.930  18.014  0.00  0.00    +0.000 C 
BRANCH  22  23
ATOM     23  C   UNL     1       6.733   4.727  17.242  0.00  0.00    +0.000 C 
BRANCH  23  24
ATOM     24  S   UNL     1       5.364   3.734  16.558  0.00  0.00    +0.000 S 
BRANCH  24  25
ATOM     25  C   UNL     1       4.332   3.607  17.935  0.00  0.00    +0.000 A 
ATOM     26  N   UNL     1       4.632   3.147  19.124  0.00  0.00    +0.000 NA
ATOM     27  C   UNL     1       3.431   3.111  19.797  0.00  0.00    +0.000 A 
ATOM     28  C   UNL     1       3.141   2.650  21.089  0.00  0.00    +0.000 A 
ATOM     29  C   UNL     1       1.806   2.639  21.517  0.00  0.00    +0.000 A 
ATOM     30  C   UNL     1       0.785   3.102  20.684  0.00  0.00    +0.000 A 
ATOM     31  C   UNL     1       1.057   3.606  19.406  0.00  0.00    +0.000 A 
ATOM     32  C   UNL     1       2.394   3.586  18.999  0.00  0.00    +0.000 A 
ATOM     33  N   UNL     1       3.015   3.954  17.831  0.00  0.00    +0.000 N 
ATOM     34  H   UNL     1       2.578   4.336  17.009  0.00  0.00    +0.000 HD
ENDBRANCH  24  25
ENDBRANCH  23  24
ENDBRANCH  22  23
ENDBRANCH  21  22
ENDBRANCH  20  21
ENDBRANCH  19  20
ENDBRANCH  18  19
ENDBRANCH   1  18
TORSDOF 12
ENDMDL
MODEL 9
REMARK VINA RESULT:      -6.8      3.203      9.157
REMARK  Name = 
REMARK  16 active torsions:
REMARK  status: ('A' for Active; 'I' for Inactive)
REMARK    1  A    between atoms: C_1  and  C_2
REMARK    2  A    between atoms: C_2  and  C_3
REMARK    3  A    between atoms: C_2  and  C_4
REMARK    4  A    between atoms: C_8  and  C_9
REMARK    5  A    between atoms: C_9  and  C_10
REMARK    6  A    between atoms: C_9  and  C_11
REMARK    7  A    between atoms: C_12  and  N_13
REMARK    8  A    between atoms: C_14  and  C_16
REMARK    9  A    between atoms: C_16  and  C_17
REMARK   10  A    between atoms: C_17  and  C_18
REMARK   11  A    between atoms: C_18  and  C_19
REMARK   12  A    between atoms: C_19  and  C_20
REMARK   13  A    between atoms: C_20  and  C_21
REMARK   14  A    between atoms: C_21  and  C_22
REMARK   15  A    between atoms: C_22  and  S_23
REMARK   16  A    between atoms: S_23  and  C_24
REMARK                            x       y       z     vdW  Elec       q    Type
REMARK                         _______ _______ _______ _____ _____    ______ ____
ROOT
ATOM      1  C   UNL     1       1.959   8.142  20.232  0.00  0.00    +0.000 C 
ENDROOT
BRANCH   1   3
ATOM      2  N   UNL     1       2.737   5.963  19.558  0.00  0.00    +0.000 N 
ATOM      3  C   UNL     1       2.214   7.171  19.077  0.00  0.00    +0.000 C 
ATOM      4  O   UNL     1       1.989   7.446  17.901  0.00  0.00    +0.000 OA
ATOM      5  H   UNL     1       3.229   6.064  20.432  0.00  0.00    +0.000 HD
BRANCH   2  11
ATOM      6  C   UNL     1       2.413   3.721  18.548  0.00  0.00    +0.000 A 
ATOM      7  C   UNL     1       2.894   2.728  17.667  0.00  0.00    +0.000 A 
ATOM      8  C   UNL     1       4.126   2.845  17.042  0.00  0.00    +0.000 A 
ATOM      9  C   UNL     1       4.922   3.949  17.304  0.00  0.00    +0.000 A 
ATOM     10  C   UNL     1       4.481   4.993  18.140  0.00  0.00    +0.000 A 
ATOM     11  C   UNL     1       3.182   4.901  18.724  0.00  0.00    +0.000 A 
BRANCH   6  13
ATOM     12  C   UNL     1       0.369   2.204  18.856  0.00  0.00    +0.000 C 
ATOM     13  C   UNL     1       1.216   3.350  19.425  0.00  0.00    +0.000 C 
ATOM     14  C   UNL     1       1.710   2.974  20.836  0.00  0.00    +0.000 C 
ENDBRANCH   6  13
BRANCH  10  15
ATOM     15  C   UNL     1       5.444   6.152  18.423  0.00  0.00    +0.000 C 
ATOM     16  C   UNL     1       6.694   5.614  19.130  0.00  0.00    +0.000 C 
ATOM     17  C   UNL     1       5.873   6.957  17.184  0.00  0.00    +0.000 C 
ENDBRANCH  10  15
ENDBRANCH   2  11
ENDBRANCH   1   3
BRANCH   1  18
ATOM     18  C   UNL     1       1.002   9.298  19.936  0.00  0.00    +0.000 C 
BRANCH  18  19
ATOM     19  C   UNL     1      -0.208   9.336  20.895  0.00  0.00    +0.000 C 
BRANCH  19  20
ATOM     20  C   UNL     1       0.100   9.143  22.389  0.00  0.00    +0.000 C 
BRANCH  20  21
ATOM     21  C   UNL     1      -0.509  10.224  23.291  0.00  0.00    +0.000 C 
BRANCH  21  22
ATOM     22  C   UNL     1      -1.405  11.189  22.499  0.00  0.00    +0.000 C 
BRANCH  22  23
ATOM     23  C   UNL     1      -0.782  12.587  22.406  0.00  0.00    +0.000 C 
BRANCH  23  24
ATOM     24  S   UNL     1      -1.934  13.732  21.574  0.00  0.00    +0.000 S 
BRANCH  24  25
ATOM     25  C   UNL     1      -2.337  12.824  20.163  0.00  0.00    +0.000 A 
ATOM     26  N   UNL     1      -3.527  12.460  19.754  0.00  0.00    +0.000 NA
ATOM     27  C   UNL     1      -3.288  11.628  18.683  0.00  0.00    +0.000 A 
ATOM     28  C   UNL     1      -4.191  10.903  17.893  0.00  0.00    +0.000 A 
ATOM     29  C   UNL     1      -3.685  10.048  16.904  0.00  0.00    +0.000 A 
ATOM     30  C   UNL     1      -2.309   9.939  16.689  0.00  0.00    +0.000 A 
ATOM     31  C   UNL     1      -1.392  10.686  17.439  0.00  0.00    +0.000 A 
ATOM     32  C   UNL     1      -1.924  11.514  18.431  0.00  0.00    +0.000 A 
ATOM     33  N   UNL     1      -1.344  12.342  19.360  0.00  0.00    +0.000 N 
ATOM     34  H   UNL     1      -0.359  12.510  19.488  0.00  0.00    +0.000 HD
ENDBRANCH  24  25
ENDBRANCH  23  24
ENDBRANCH  22  23
ENDBRANCH  21  22
ENDBRANCH  20  21
ENDBRANCH  19  20
ENDBRANCH  18  19
ENDBRANCH   1  18
TORSDOF 12
ENDMDL
