MODEL 1
REMARK VINA RESULT:      -7.8      0.000      0.000
REMARK  Name = 
REMARK  4 active torsions:
REMARK  status: ('A' for Active; 'I' for Inactive)
REMARK    1  A    between atoms: C_5  and  C_6
REMARK    2  A    between atoms: C_6  and  C_7
REMARK    3  A    between atoms: N_17  and  C_18
REMARK    4  A    between atoms: C_18  and  C_19
REMARK                            x       y       z     vdW  Elec       q    Type
REMARK                         _______ _______ _______ _____ _____    ______ ____
ROOT
ATOM      1  C   UNL     1       2.272   7.605  18.526  0.00  0.00    +0.000 A 
ATOM      2  N   UNL     1       2.234   7.269  19.809  0.00  0.00    +0.000 NA
ATOM      3  C   UNL     1       2.090   5.913  19.824  0.00  0.00    +0.000 A 
ATOM      4  C   UNL     1       2.085   5.006  20.883  0.00  0.00    +0.000 A 
ATOM      5  C   UNL     1       1.710   3.690  20.607  0.00  0.00    +0.000 A 
ATOM      6 CL   UNL     1       1.936   2.526  21.866  0.00  0.00    +0.000 Cl
ATOM      7  C   UNL     1       1.208   3.335  19.343  0.00  0.00    +0.000 A 
ATOM      8 CL   UNL     1       0.500   1.785  19.048  0.00  0.00    +0.000 Cl
ATOM      9  C   UNL     1       1.298   4.220  18.256  0.00  0.00    +0.000 A 
ATOM     10  C   UNL     1       1.898   5.450  18.525  0.00  0.00    +0.000 A 
ATOM     11  N   UNL     1       2.503   6.451  17.785  0.00  0.00    +0.000 N 
ENDROOT
BRANCH   1  12
ATOM     12  C   UNL     1       2.191   8.980  17.930  0.00  0.00    +0.000 C 
BRANCH  12  17
ATOM     13 CL   UNL     1      -2.630  12.185  19.652  0.00  0.00    +0.000 Cl
ATOM     14  C   UNL     1      -1.260  11.267  19.173  0.00  0.00    +0.000 A 
ATOM     15  C   UNL     1      -1.370  10.343  18.140  0.00  0.00    +0.000 A 
ATOM     16  C   UNL     1      -0.255   9.598  17.737  0.00  0.00    +0.000 A 
ATOM     17  C   UNL     1       0.992   9.793  18.366  0.00  0.00    +0.000 A 
ATOM     18  C   UNL     1       1.054  10.692  19.449  0.00  0.00    +0.000 A 
ATOM     19  C   UNL     1      -0.055  11.443  19.834  0.00  0.00    +0.000 A 
ENDBRANCH  12  17
ENDBRANCH   1  12
BRANCH  11  20
ATOM     20  C   UNL     1       3.747   6.322  16.992  0.00  0.00    +0.000 C 
BRANCH  20  21
ATOM     21  C   UNL     1       4.504   4.949  17.028  0.00  0.00    +0.000 C 
ATOM     22  C   UNL     1       4.798   4.397  15.619  0.00  0.00    +0.000 C 
ATOM     23  C   UNL     1       5.773   5.294  14.875  0.00  0.00    +0.000 C 
ATOM     24  C   UNL     1       7.063   5.459  15.667  0.00  0.00    +0.000 C 
ATOM     25  N   UNL     1       6.853   5.873  17.071  0.00  0.00    +0.000 NA
ATOM     26  C   UNL     1       8.175   5.869  17.732  0.00  0.00    +0.000 C 
ATOM     27  C   UNL     1       8.117   6.222  19.214  0.00  0.00    +0.000 C 
ATOM     28  C   UNL     1       7.150   5.312  19.952  0.00  0.00    +0.000 C 
ATOM     29  C   UNL     1       5.784   5.318  19.266  0.00  0.00    +0.000 C 
ATOM     30  C   UNL     1       5.894   4.981  17.764  0.00  0.00    +0.000 C 
ENDBRANCH  20  21
ENDBRANCH  11  20
TORSDOF 4
ENDMDL
MODEL 2
REMARK VINA RESULT:      -7.5      4.147      9.547
REMARK  Name = 
REMARK  4 active torsions:
REMARK  status: ('A' for Active; 'I' for Inactive)
REMARK    1  A    between atoms: C_5  and  C_6
REMARK    2  A    between atoms: C_6  and  C_7
REMARK    3  A    between atoms: N_17  and  C_18
REMARK    4  A    between atoms: C_18  and  C_19
REMARK                            x       y       z     vdW  Elec       q    Type
REMARK                         _______ _______ _______ _____ _____    ______ ____
ROOT
ATOM      1  C   UNL     1      -0.276  11.287  18.575  0.00  0.00    +0.000 A 
ATOM      2  N   UNL     1      -1.218  10.622  17.919  0.00  0.00    +0.000 NA
ATOM      3  C   UNL     1      -2.393  11.215  18.274  0.00  0.00    +0.000 A 
ATOM      4  C   UNL     1      -3.697  11.001  17.827  0.00  0.00    +0.000 A 
ATOM      5  C   UNL     1      -4.732  11.623  18.526  0.00  0.00    +0.000 A 
ATOM      6 CL   UNL     1      -6.312  11.547  17.828  0.00  0.00    +0.000 Cl
ATOM      7  C   UNL     1      -4.478  12.310  19.726  0.00  0.00    +0.000 A 
ATOM      8 CL   UNL     1      -5.760  12.868  20.743  0.00  0.00    +0.000 Cl
ATOM      9  C   UNL     1      -3.164  12.604  20.126  0.00  0.00    +0.000 A 
ATOM     10  C   UNL     1      -2.157  12.161  19.268  0.00  0.00    +0.000 A 
ATOM     11  N   UNL     1      -0.830  12.476  19.037  0.00  0.00    +0.000 N 
ENDROOT
BRANCH   1  12
ATOM     12  C   UNL     1       1.172  10.920  18.734  0.00  0.00    +0.000 C 
BRANCH  12  17
ATOM     13 CL   UNL     1       2.212   5.261  20.568  0.00  0.00    +0.000 Cl
ATOM     14  C   UNL     1       1.926   6.874  20.055  0.00  0.00    +0.000 A 
ATOM     15  C   UNL     1       2.320   7.280  18.785  0.00  0.00    +0.000 A 
ATOM     16  C   UNL     1       2.081   8.591  18.356  0.00  0.00    +0.000 A 
ATOM     17  C   UNL     1       1.421   9.504  19.203  0.00  0.00    +0.000 A 
ATOM     18  C   UNL     1       1.089   9.079  20.504  0.00  0.00    +0.000 A 
ATOM     19  C   UNL     1       1.315   7.769  20.919  0.00  0.00    +0.000 A 
ENDBRANCH  12  17
ENDBRANCH   1  12
BRANCH  11  20
ATOM     20  C   UNL     1      -0.313  13.771  18.539  0.00  0.00    +0.000 C 
BRANCH  20  21
ATOM     21  C   UNL     1       0.007  14.890  19.589  0.00  0.00    +0.000 C 
ATOM     22  C   UNL     1       1.105  14.472  20.587  0.00  0.00    +0.000 C 
ATOM     23  C   UNL     1       2.439  14.288  19.882  0.00  0.00    +0.000 C 
ATOM     24  C   UNL     1       2.838  15.561  19.147  0.00  0.00    +0.000 C 
ATOM     25  N   UNL     1       1.783  16.093  18.258  0.00  0.00    +0.000 NA
ATOM     26  C   UNL     1       2.270  17.380  17.719  0.00  0.00    +0.000 C 
ATOM     27  C   UNL     1       1.261  18.086  16.821  0.00  0.00    +0.000 C 
ATOM     28  C   UNL     1      -0.065  18.277  17.538  0.00  0.00    +0.000 C 
ATOM     29  C   UNL     1      -0.566  16.944  18.094  0.00  0.00    +0.000 C 
ATOM     30  C   UNL     1       0.496  16.253  18.974  0.00  0.00    +0.000 C 
ENDBRANCH  20  21
ENDBRANCH  11  20
TORSDOF 4
ENDMDL
MODEL 3
REMARK VINA RESULT:      -7.3      6.192     10.699
REMARK  Name = 
REMARK  4 active torsions:
REMARK  status: ('A' for Active; 'I' for Inactive)
REMARK    1  A    between atoms: C_5  and  C_6
REMARK    2  A    between atoms: C_6  and  C_7
REMARK    3  A    between atoms: N_17  and  C_18
REMARK    4  A    between atoms: C_18  and  C_19
REMARK                            x       y       z     vdW  Elec       q    Type
REMARK                         _______ _______ _______ _____ _____    ______ ____
ROOT
ATOM      1  C   UNL     1      -2.120  13.004  22.112  0.00  0.00    +0.000 A 
ATOM      2  N   UNL     1      -2.818  12.530  23.136  0.00  0.00    +0.000 NA
ATOM      3  C   UNL     1      -4.040  13.127  23.048  0.00  0.00    +0.000 A 
ATOM      4  C   UNL     1      -5.204  12.942  23.794  0.00  0.00    +0.000 A 
ATOM      5  C   UNL     1      -6.247  13.849  23.604  0.00  0.00    +0.000 A 
ATOM      6 CL   UNL     1      -7.762  13.476  24.349  0.00  0.00    +0.000 Cl
ATOM      7  C   UNL     1      -6.068  14.993  22.806  0.00  0.00    +0.000 A 
ATOM      8 CL   UNL     1      -7.245  16.259  22.757  0.00  0.00    +0.000 Cl
ATOM      9  C   UNL     1      -4.937  15.132  21.986  0.00  0.00    +0.000 A 
ATOM     10  C   UNL     1      -4.022  14.080  22.033  0.00  0.00    +0.000 A 
ATOM     11  N   UNL     1      -3.008  13.599  21.223  0.00  0.00    +0.000 N 
ENDROOT
BRANCH   1  12
ATOM     12  C   UNL     1      -0.647  12.863  21.855  0.00  0.00    +0.000 C 
BRANCH  12  17
ATOM     13 CL   UNL     1       1.200   7.185  20.949  0.00  0.00    +0.000 Cl
ATOM     14  C   UNL     1       0.665   8.797  21.198  0.00  0.00    +0.000 A 
ATOM     15  C   UNL     1       0.056   9.150  22.397  0.00  0.00    +0.000 A 
ATOM     16  C   UNL     1      -0.374  10.465  22.611  0.00  0.00    +0.000 A 
ATOM     17  C   UNL     1      -0.175  11.446  21.618  0.00  0.00    +0.000 A 
ATOM     18  C   UNL     1       0.390  11.042  20.393  0.00  0.00    +0.000 A 
ATOM     19  C   UNL     1       0.831   9.736  20.192  0.00  0.00    +0.000 A 
ENDBRANCH  12  17
ENDBRANCH   1  12
BRANCH  11  20
ATOM     20  C   UNL     1      -3.168  13.044  19.859  0.00  0.00    +0.000 C 
BRANCH  20  21
ATOM     21  C   UNL     1      -4.010  11.732  19.692  0.00  0.00    +0.000 C 
ATOM     22  C   UNL     1      -5.527  11.984  19.793  0.00  0.00    +0.000 C 
ATOM     23  C   UNL     1      -6.014  12.840  18.636  0.00  0.00    +0.000 C 
ATOM     24  C   UNL     1      -5.665  12.192  17.303  0.00  0.00    +0.000 C 
ATOM     25  N   UNL     1      -4.242  11.810  17.180  0.00  0.00    +0.000 NA
ATOM     26  C   UNL     1      -4.089  11.092  15.897  0.00  0.00    +0.000 C 
ATOM     27  C   UNL     1      -2.676  10.578  15.650  0.00  0.00    +0.000 C 
ATOM     28  C   UNL     1      -2.202   9.712  16.805  0.00  0.00    +0.000 C 
ATOM     29  C   UNL     1      -2.360  10.459  18.130  0.00  0.00    +0.000 C 
ATOM     30  C   UNL     1      -3.799  10.982  18.325  0.00  0.00    +0.000 C 
ENDBRANCH  20  21
ENDBRANCH  11  20
TORSDOF 4
ENDMDL
MODEL 4
REMARK VINA RESULT:      -7.2      4.167      9.556
REMARK  Name = 
REMARK  4 active torsions:
REMARK  status: ('A' for Active; 'I' for Inactive)
REMARK    1  A    between atoms: C_5  and  C_6
REMARK    2  A    between atoms: C_6  and  C_7
REMARK    3  A    between atoms: N_17  and  C_18
REMARK    4  A    between atoms: C_18  and  C_19
REMARK                            x       y       z     vdW  Elec       q    Type
REMARK                         _______ _______ _______ _____ _____    ______ ____
ROOT
ATOM      1  C   UNL     1       0.929  11.384  20.479  0.00  0.00    +0.000 A 
ATOM      2  N   UNL     1       1.584  12.205  21.290  0.00  0.00    +0.000 NA
ATOM      3  C   UNL     1       1.943  13.269  20.516  0.00  0.00    +0.000 A 
ATOM      4  C   UNL     1       2.564  14.473  20.848  0.00  0.00    +0.000 A 
ATOM      5  C   UNL     1       2.992  15.291  19.802  0.00  0.00    +0.000 A 
ATOM      6 CL   UNL     1       3.540  16.878  20.216  0.00  0.00    +0.000 Cl
ATOM      7  C   UNL     1       2.937  14.844  18.470  0.00  0.00    +0.000 A 
ATOM      8 CL   UNL     1       3.689  15.722  17.184  0.00  0.00    +0.000 Cl
ATOM      9  C   UNL     1       2.232  13.678  18.129  0.00  0.00    +0.000 A 
ATOM     10  C   UNL     1       1.616  13.010  19.188  0.00  0.00    +0.000 A 
ATOM     11  N   UNL     1       0.592  12.092  19.331  0.00  0.00    +0.000 N 
ENDROOT
BRANCH   1  12
ATOM     12  C   UNL     1       0.511   9.967  20.743  0.00  0.00    +0.000 C 
BRANCH  12  17
ATOM     13 CL   UNL     1       3.536   5.838  17.537  0.00  0.00    +0.000 Cl
ATOM     14  C   UNL     1       2.687   7.015  18.455  0.00  0.00    +0.000 A 
ATOM     15  C   UNL     1       2.316   8.219  17.868  0.00  0.00    +0.000 A 
ATOM     16  C   UNL     1       1.615   9.179  18.607  0.00  0.00    +0.000 A 
ATOM     17  C   UNL     1       1.264   8.922  19.948  0.00  0.00    +0.000 A 
ATOM     18  C   UNL     1       1.706   7.719  20.530  0.00  0.00    +0.000 A 
ATOM     19  C   UNL     1       2.389   6.760  19.785  0.00  0.00    +0.000 A 
ENDBRANCH  12  17
ENDBRANCH   1  12
BRANCH  11  20
ATOM     20  C   UNL     1      -0.834  12.314  18.997  0.00  0.00    +0.000 C 
BRANCH  20  21
ATOM     21  C   UNL     1      -1.859  11.182  19.351  0.00  0.00    +0.000 C 
ATOM     22  C   UNL     1      -2.862  11.609  20.441  0.00  0.00    +0.000 C 
ATOM     23  C   UNL     1      -3.762  12.728  19.943  0.00  0.00    +0.000 C 
ATOM     24  C   UNL     1      -4.494  12.306  18.676  0.00  0.00    +0.000 C 
ATOM     25  N   UNL     1      -3.605  11.769  17.624  0.00  0.00    +0.000 NA
ATOM     26  C   UNL     1      -4.466  11.295  16.520  0.00  0.00    +0.000 C 
ATOM     27  C   UNL     1      -3.692  10.655  15.374  0.00  0.00    +0.000 C 
ATOM     28  C   UNL     1      -2.804   9.530  15.878  0.00  0.00    +0.000 C 
ATOM     29  C   UNL     1      -1.915  10.024  17.019  0.00  0.00    +0.000 C 
ATOM     30  C   UNL     1      -2.738  10.686  18.143  0.00  0.00    +0.000 C 
ENDBRANCH  20  21
ENDBRANCH  11  20
TORSDOF 4
ENDMDL
MODEL 5
REMARK VINA RESULT:      -7.2      3.964      8.981
REMARK  Name = 
REMARK  4 active torsions:
REMARK  status: ('A' for Active; 'I' for Inactive)
REMARK    1  A    between atoms: C_5  and  C_6
REMARK    2  A    between atoms: C_6  and  C_7
REMARK    3  A    between atoms: N_17  and  C_18
REMARK    4  A    between atoms: C_18  and  C_19
REMARK                            x       y       z     vdW  Elec       q    Type
REMARK                         _______ _______ _______ _____ _____    ______ ____
ROOT
ATOM      1  C   UNL     1       0.177  11.262  19.015  0.00  0.00    +0.000 A 
ATOM      2  N   UNL     1      -1.087  11.355  18.623  0.00  0.00    +0.000 NA
ATOM      3  C   UNL     1      -1.752  11.918  19.671  0.00  0.00    +0.000 A 
ATOM      4  C   UNL     1      -3.076  12.337  19.796  0.00  0.00    +0.000 A 
ATOM      5  C   UNL     1      -3.527  12.691  21.068  0.00  0.00    +0.000 A 
ATOM      6 CL   UNL     1      -5.086  13.432  21.174  0.00  0.00    +0.000 Cl
ATOM      7  C   UNL     1      -2.721  12.483  22.201  0.00  0.00    +0.000 A 
ATOM      8 CL   UNL     1      -3.340  12.669  23.804  0.00  0.00    +0.000 Cl
ATOM      9  C   UNL     1      -1.363  12.150  22.069  0.00  0.00    +0.000 A 
ATOM     10  C   UNL     1      -0.892  12.033  20.761  0.00  0.00    +0.000 A 
ATOM     11  N   UNL     1       0.341  12.071  20.134  0.00  0.00    +0.000 N 
ENDROOT
BRANCH   1  12
ATOM     12  C   UNL     1       1.297  10.515  18.351  0.00  0.00    +0.000 C 
BRANCH  12  17
ATOM     13 CL   UNL     1       2.444   5.027  20.595  0.00  0.00    +0.000 Cl
ATOM     14  C   UNL     1       2.127   6.592  19.965  0.00  0.00    +0.000 A 
ATOM     15  C   UNL     1       2.535   6.918  18.676  0.00  0.00    +0.000 A 
ATOM     16  C   UNL     1       2.271   8.189  18.152  0.00  0.00    +0.000 A 
ATOM     17  C   UNL     1       1.573   9.142  18.922  0.00  0.00    +0.000 A 
ATOM     18  C   UNL     1       1.228   8.801  20.244  0.00  0.00    +0.000 A 
ATOM     19  C   UNL     1       1.478   7.529  20.754  0.00  0.00    +0.000 A 
ENDBRANCH  12  17
ENDBRANCH   1  12
BRANCH  11  20
ATOM     20  C   UNL     1       1.254  13.236  20.072  0.00  0.00    +0.000 C 
BRANCH  20  21
ATOM     21  C   UNL     1       1.155  14.185  18.828  0.00  0.00    +0.000 C 
ATOM     22  C   UNL     1       0.002  15.202  18.948  0.00  0.00    +0.000 C 
ATOM     23  C   UNL     1       0.253  16.175  20.089  0.00  0.00    +0.000 C 
ATOM     24  C   UNL     1       1.584  16.892  19.902  0.00  0.00    +0.000 C 
ATOM     25  N   UNL     1       2.723  15.980  19.660  0.00  0.00    +0.000 NA
ATOM     26  C   UNL     1       3.906  16.821  19.379  0.00  0.00    +0.000 C 
ATOM     27  C   UNL     1       5.159  16.019  19.049  0.00  0.00    +0.000 C 
ATOM     28  C   UNL     1       4.904  15.059  17.900  0.00  0.00    +0.000 C 
ATOM     29  C   UNL     1       3.681  14.191  18.194  0.00  0.00    +0.000 C 
ATOM     30  C   UNL     1       2.443  15.042  18.547  0.00  0.00    +0.000 C 
ENDBRANCH  20  21
ENDBRANCH  11  20
TORSDOF 4
ENDMDL
MODEL 6
REMARK VINA RESULT:      -7.2      3.806      9.266
REMARK  Name = 
REMARK  4 active torsions:
REMARK  status: ('A' for Active; 'I' for Inactive)
REMARK    1  A    between atoms: C_5  and  C_6
REMARK    2  A    between atoms: C_6  and  C_7
REMARK    3  A    between atoms: N_17  and  C_18
REMARK    4  A    between atoms: C_18  and  C_19
REMARK                            x       y       z     vdW  Elec       q    Type
REMARK                         _______ _______ _______ _____ _____    ______ ____
ROOT
ATOM      1  C   UNL     1       0.561  10.815  18.579  0.00  0.00    +0.000 A 
ATOM      2  N   UNL     1      -0.720  10.751  18.239  0.00  0.00    +0.000 NA
ATOM      3  C   UNL     1      -1.372  11.548  19.132  0.00  0.00    +0.000 A 
ATOM      4  C   UNL     1      -2.710  11.934  19.206  0.00  0.00    +0.000 A 
ATOM      5  C   UNL     1      -3.130  12.599  20.359  0.00  0.00    +0.000 A 
ATOM      6 CL   UNL     1      -4.718  13.281  20.341  0.00  0.00    +0.000 Cl
ATOM      7  C   UNL     1      -2.271  12.733  21.464  0.00  0.00    +0.000 A 
ATOM      8 CL   UNL     1      -2.838  13.319  22.989  0.00  0.00    +0.000 Cl
ATOM      9  C   UNL     1      -0.904  12.429  21.358  0.00  0.00    +0.000 A 
ATOM     10  C   UNL     1      -0.478  11.984  20.107  0.00  0.00    +0.000 A 
ATOM     11  N   UNL     1       0.726  11.900  19.432  0.00  0.00    +0.000 N 
ENDROOT
BRANCH   1  12
ATOM     12  C   UNL     1       1.691   9.960  18.082  0.00  0.00    +0.000 C 
BRANCH  12  17
ATOM     13 CL   UNL     1       2.356   4.653  20.887  0.00  0.00    +0.000 Cl
ATOM     14  C   UNL     1       2.176   6.167  20.097  0.00  0.00    +0.000 A 
ATOM     15  C   UNL     1       2.647   6.334  18.800  0.00  0.00    +0.000 A 
ATOM     16  C   UNL     1       2.496   7.563  18.146  0.00  0.00    +0.000 A 
ATOM     17  C   UNL     1       1.847   8.634  18.793  0.00  0.00    +0.000 A 
ATOM     18  C   UNL     1       1.435   8.450  20.127  0.00  0.00    +0.000 A 
ATOM     19  C   UNL     1       1.574   7.221  20.767  0.00  0.00    +0.000 A 
ENDBRANCH  12  17
ENDBRANCH   1  12
BRANCH  11  20
ATOM     20  C   UNL     1       1.577  13.040  19.017  0.00  0.00    +0.000 C 
BRANCH  20  21
ATOM     21  C   UNL     1       1.785  14.213  20.036  0.00  0.00    +0.000 C 
ATOM     22  C   UNL     1       3.274  14.485  20.331  0.00  0.00    +0.000 C 
ATOM     23  C   UNL     1       3.990  14.992  19.091  0.00  0.00    +0.000 C 
ATOM     24  C   UNL     1       3.311  16.245  18.552  0.00  0.00    +0.000 C 
ATOM     25  N   UNL     1       1.853  16.097  18.357  0.00  0.00    +0.000 NA
ATOM     26  C   UNL     1       1.328  17.418  17.954  0.00  0.00    +0.000 C 
ATOM     27  C   UNL     1      -0.185  17.442  17.770  0.00  0.00    +0.000 C 
ATOM     28  C   UNL     1      -0.893  16.946  19.019  0.00  0.00    +0.000 C 
ATOM     29  C   UNL     1      -0.348  15.579  19.432  0.00  0.00    +0.000 C 
ATOM     30  C   UNL     1       1.188  15.595  19.582  0.00  0.00    +0.000 C 
ENDBRANCH  20  21
ENDBRANCH  11  20
TORSDOF 4
ENDMDL
MODEL 7
REMARK VINA RESULT:      -7.2      3.565      9.091
REMARK  Name = 
REMARK  4 active torsions:
REMARK  status: ('A' for Active; 'I' for Inactive)
REMARK    1  A    between atoms: C_5  and  C_6
REMARK    2  A    between atoms: C_6  and  C_7
REMARK    3  A    between atoms: N_17  and  C_18
REMARK    4  A    between atoms: C_18  and  C_19
REMARK                            x       y       z     vdW  Elec       q    Type
REMARK                         _______ _______ _______ _____ _____    ______ ____
ROOT
ATOM      1  C   UNL     1       0.741  10.308  18.522  0.00  0.00    +0.000 A 
ATOM      2  N   UNL     1      -0.194   9.815  17.720  0.00  0.00    +0.000 NA
ATOM      3  C   UNL     1      -1.307  10.565  17.957  0.00  0.00    +0.000 A 
ATOM      4  C   UNL     1      -2.559  10.564  17.342  0.00  0.00    +0.000 A 
ATOM      5  C   UNL     1      -3.575  11.311  17.940  0.00  0.00    +0.000 A 
ATOM      6 CL   UNL     1      -5.044  11.498  17.048  0.00  0.00    +0.000 Cl
ATOM      7  C   UNL     1      -3.382  11.912  19.196  0.00  0.00    +0.000 A 
ATOM      8 CL   UNL     1      -4.691  12.622  20.075  0.00  0.00    +0.000 Cl
ATOM      9  C   UNL     1      -2.103  11.991  19.770  0.00  0.00    +0.000 A 
ATOM     10  C   UNL     1      -1.067  11.431  19.021  0.00  0.00    +0.000 A 
ATOM     11  N   UNL     1       0.310  11.550  18.973  0.00  0.00    +0.000 N 
ENDROOT
BRANCH   1  12
ATOM     12  C   UNL     1       2.087   9.723  18.839  0.00  0.00    +0.000 C 
BRANCH  12  17
ATOM     13 CL   UNL     1       2.070   3.761  19.809  0.00  0.00    +0.000 Cl
ATOM     14  C   UNL     1       2.064   5.455  19.526  0.00  0.00    +0.000 A 
ATOM     15  C   UNL     1       1.706   6.329  20.546  0.00  0.00    +0.000 A 
ATOM     16  C   UNL     1       1.708   7.712  20.326  0.00  0.00    +0.000 A 
ATOM     17  C   UNL     1       2.092   8.228  19.071  0.00  0.00    +0.000 A 
ATOM     18  C   UNL     1       2.390   7.314  18.042  0.00  0.00    +0.000 A 
ATOM     19  C   UNL     1       2.402   5.940  18.273  0.00  0.00    +0.000 A 
ENDBRANCH  12  17
ENDBRANCH   1  12
BRANCH  11  20
ATOM     20  C   UNL     1       1.070  12.769  18.611  0.00  0.00    +0.000 C 
BRANCH  20  21
ATOM     21  C   UNL     1       1.424  13.783  19.754  0.00  0.00    +0.000 C 
ATOM     22  C   UNL     1       2.939  13.862  20.028  0.00  0.00    +0.000 C 
ATOM     23  C   UNL     1       3.678  14.439  18.832  0.00  0.00    +0.000 C 
ATOM     24  C   UNL     1       3.125  15.811  18.469  0.00  0.00    +0.000 C 
ATOM     25  N   UNL     1       1.656  15.839  18.308  0.00  0.00    +0.000 NA
ATOM     26  C   UNL     1       1.265  17.246  18.082  0.00  0.00    +0.000 C 
ATOM     27  C   UNL     1      -0.240  17.448  17.954  0.00  0.00    +0.000 C 
ATOM     28  C   UNL     1      -0.970  16.880  19.159  0.00  0.00    +0.000 C 
ATOM     29  C   UNL     1      -0.564  15.425  19.390  0.00  0.00    +0.000 C 
ATOM     30  C   UNL     1       0.967  15.264  19.487  0.00  0.00    +0.000 C 
ENDBRANCH  20  21
ENDBRANCH  11  20
TORSDOF 4
ENDMDL
MODEL 8
REMARK VINA RESULT:      -7.1      3.579      9.373
REMARK  Name = 
REMARK  4 active torsions:
REMARK  status: ('A' for Active; 'I' for Inactive)
REMARK    1  A    between atoms: C_5  and  C_6
REMARK    2  A    between atoms: C_6  and  C_7
REMARK    3  A    between atoms: N_17  and  C_18
REMARK    4  A    between atoms: C_18  and  C_19
REMARK                            x       y       z     vdW  Elec       q    Type
REMARK                         _______ _______ _______ _____ _____    ______ ____
ROOT
ATOM      1  C   UNL     1       0.772   9.990  20.746  0.00  0.00    +0.000 A 
ATOM      2  N   UNL     1       1.039  10.974  21.595  0.00  0.00    +0.000 NA
ATOM      3  C   UNL     1       1.239  12.077  20.820  0.00  0.00    +0.000 A 
ATOM      4  C   UNL     1       1.460  13.410  21.166  0.00  0.00    +0.000 A 
ATOM      5  C   UNL     1       1.836  14.290  20.150  0.00  0.00    +0.000 A 
ATOM      6 CL   UNL     1       1.873  15.974  20.540  0.00  0.00    +0.000 Cl
ATOM      7  C   UNL     1       2.132  13.815  18.861  0.00  0.00    +0.000 A 
ATOM      8 CL   UNL     1       2.843  14.833  17.657  0.00  0.00    +0.000 Cl
ATOM      9  C   UNL     1       1.824  12.496  18.489  0.00  0.00    +0.000 A 
ATOM     10  C   UNL     1       1.228  11.712  19.477  0.00  0.00    +0.000 A 
ATOM     11  N   UNL     1       0.467  10.556  19.513  0.00  0.00    +0.000 N 
ENDROOT
BRANCH   1  12
ATOM     12  C   UNL     1       0.696   8.519  21.033  0.00  0.00    +0.000 C 
BRANCH  12  17
ATOM     13 CL   UNL     1       4.265   5.025  17.638  0.00  0.00    +0.000 Cl
ATOM     14  C   UNL     1       3.241   6.017  18.594  0.00  0.00    +0.000 A 
ATOM     15  C   UNL     1       2.707   5.525  19.780  0.00  0.00    +0.000 A 
ATOM     16  C   UNL     1       1.879   6.331  20.570  0.00  0.00    +0.000 A 
ATOM     17  C   UNL     1       1.596   7.655  20.177  0.00  0.00    +0.000 A 
ATOM     18  C   UNL     1       2.102   8.102  18.942  0.00  0.00    +0.000 A 
ATOM     19  C   UNL     1       2.939   7.301  18.168  0.00  0.00    +0.000 A 
ENDBRANCH  12  17
ENDBRANCH   1  12
BRANCH  11  20
ATOM     20  C   UNL     1      -0.886  10.383  18.938  0.00  0.00    +0.000 C 
BRANCH  20  21
ATOM     21  C   UNL     1      -1.501  11.576  18.128  0.00  0.00    +0.000 C 
ATOM     22  C   UNL     1      -2.117  11.129  16.787  0.00  0.00    +0.000 C 
ATOM     23  C   UNL     1      -3.320  10.228  17.016  0.00  0.00    +0.000 C 
ATOM     24  C   UNL     1      -4.361  10.930  17.877  0.00  0.00    +0.000 C 
ATOM     25  N   UNL     1      -3.816  11.495  19.131  0.00  0.00    +0.000 NA
ATOM     26  C   UNL     1      -4.910  12.240  19.789  0.00  0.00    +0.000 C 
ATOM     27  C   UNL     1      -4.485  12.936  21.077  0.00  0.00    +0.000 C 
ATOM     28  C   UNL     1      -3.291  13.843  20.837  0.00  0.00    +0.000 C 
ATOM     29  C   UNL     1      -2.162  13.069  20.157  0.00  0.00    +0.000 C 
ATOM     30  C   UNL     1      -2.643  12.361  18.873  0.00  0.00    +0.000 C 
ENDBRANCH  20  21
ENDBRANCH  11  20
TORSDOF 4
ENDMDL
MODEL 9
REMARK VINA RESULT:      -7.1      4.823     10.866
REMARK  Name = 
REMARK  4 active torsions:
REMARK  status: ('A' for Active; 'I' for Inactive)
REMARK    1  A    between atoms: C_5  and  C_6
REMARK    2  A    between atoms: C_6  and  C_7
REMARK    3  A    between atoms: N_17  and  C_18
REMARK    4  A    between atoms: C_18  and  C_19
REMARK                            x       y       z     vdW  Elec       q    Type
REMARK                         _______ _______ _______ _____ _____    ______ ____
ROOT
ATOM      1  C   UNL     1       0.624  11.741  20.729  0.00  0.00    +0.000 A 
ATOM      2  N   UNL     1       1.826  12.164  21.098  0.00  0.00    +0.000 NA
ATOM      3  C   UNL     1       1.911  13.448  20.649  0.00  0.00    +0.000 A 
ATOM      4  C   UNL     1       2.901  14.415  20.826  0.00  0.00    +0.000 A 
ATOM      5  C   UNL     1       2.806  15.585  20.070  0.00  0.00    +0.000 A 
ATOM      6 CL   UNL     1       3.893  16.869  20.467  0.00  0.00    +0.000 Cl
ATOM      7  C   UNL     1       1.838  15.712  19.059  0.00  0.00    +0.000 A 
ATOM      8 CL   UNL     1       1.857  17.031  17.942  0.00  0.00    +0.000 Cl
ATOM      9  C   UNL     1       0.790  14.784  18.942  0.00  0.00    +0.000 A 
ATOM     10  C   UNL     1       0.792  13.747  19.876  0.00  0.00    +0.000 A 
ATOM     11  N   UNL     1      -0.135  12.851  20.378  0.00  0.00    +0.000 N 
ENDROOT
BRANCH   1  12
ATOM     12  C   UNL     1       0.090  10.338  20.762  0.00  0.00    +0.000 C 
BRANCH  12  17
ATOM     13 CL   UNL     1       3.398   6.333  17.680  0.00  0.00    +0.000 Cl
ATOM     14  C   UNL     1       2.468   7.476  18.563  0.00  0.00    +0.000 A 
ATOM     15  C   UNL     1       1.991   8.619  17.932  0.00  0.00    +0.000 A 
ATOM     16  C   UNL     1       1.224   9.550  18.643  0.00  0.00    +0.000 A 
ATOM     17  C   UNL     1       0.915   9.324  19.999  0.00  0.00    +0.000 A 
ATOM     18  C   UNL     1       1.463   8.188  20.624  0.00  0.00    +0.000 A 
ATOM     19  C   UNL     1       2.212   7.256  19.907  0.00  0.00    +0.000 A 
ENDBRANCH  12  17
ENDBRANCH   1  12
BRANCH  11  20
ATOM     20  C   UNL     1      -1.345  13.193  21.161  0.00  0.00    +0.000 C 
BRANCH  20  21
ATOM     21  C   UNL     1      -1.159  13.611  22.661  0.00  0.00    +0.000 C 
ATOM     22  C   UNL     1      -0.523  15.007  22.813  0.00  0.00    +0.000 C 
ATOM     23  C   UNL     1      -1.450  16.087  22.280  0.00  0.00    +0.000 C 
ATOM     24  C   UNL     1      -2.800  16.032  22.983  0.00  0.00    +0.000 C 
ATOM     25  N   UNL     1      -3.419  14.690  22.982  0.00  0.00    +0.000 NA
ATOM     26  C   UNL     1      -4.649  14.773  23.798  0.00  0.00    +0.000 C 
ATOM     27  C   UNL     1      -5.376  13.441  23.943  0.00  0.00    +0.000 C 
ATOM     28  C   UNL     1      -4.446  12.370  24.488  0.00  0.00    +0.000 C 
ATOM     29  C   UNL     1      -3.176  12.286  23.642  0.00  0.00    +0.000 C 
ATOM     30  C   UNL     1      -2.488  13.661  23.502  0.00  0.00    +0.000 C 
ENDBRANCH  20  21
ENDBRANCH  11  20
TORSDOF 4
ENDMDL
