MODEL 1
REMARK VINA RESULT:      -7.1      0.000      0.000
REMARK  Name = 
REMARK  7 active torsions:
REMARK  status: ('A' for Active; 'I' for Inactive)
REMARK    1  A    between atoms: C_2  and  O_3
REMARK    2  A    between atoms: C_2  and  C_4
REMARK    3  A    between atoms: C_7  and  C_9
REMARK    4  A    between atoms: C_9  and  S_10
REMARK    5  A    between atoms: S_10  and  C_11
REMARK    6  A    between atoms: C_11  and  C_12
REMARK    7  A    between atoms: C_16  and  C_17
REMARK                            x       y       z     vdW  Elec       q    Type
REMARK                         _______ _______ _______ _____ _____    ______ ____
ROOT
ATOM      1  C   UNL     1       3.310   4.587  17.263  0.00  0.00    +0.000 C 
ATOM      2  C   UNL     1       4.530   3.961  16.599  0.00  0.00    +0.000 C 
ATOM      3  N   UNL     1       5.532   5.009  16.685  0.00  0.00    +0.000 N 
ATOM      4  C   UNL     1       6.615   5.235  15.862  0.00  0.00    +0.000 C 
ATOM      5  O   UNL     1       7.387   6.176  16.068  0.00  0.00    +0.000 OA
ATOM      6  C   UNL     1       5.303   5.846  17.851  0.00  0.00    +0.000 C 
ATOM      7  C   UNL     1       3.918   5.448  18.390  0.00  0.00    +0.000 C 
ENDROOT
BRANCH   7   8
ATOM      8  C   UNL     1       3.071   6.643  18.769  0.00  0.00    +0.000 A 
ATOM      9  C   UNL     1       2.413   6.728  20.004  0.00  0.00    +0.000 A 
ATOM     10  C   UNL     1       1.628   7.834  20.275  0.00  0.00    +0.000 A 
ATOM     11  N   UNL     1       1.449   8.856  19.411  0.00  0.00    +0.000 NA
ATOM     12  C   UNL     1       2.083   8.759  18.224  0.00  0.00    +0.000 A 
ATOM     13  C   UNL     1       2.892   7.694  17.864  0.00  0.00    +0.000 A 
ENDBRANCH   7   8
BRANCH   1  15
ATOM     14  O   UNL     1       2.783   2.464  18.275  0.00  0.00    +0.000 OA
ATOM     15  C   UNL     1       2.395   3.520  17.798  0.00  0.00    +0.000 C 
BRANCH  15  16
ATOM     16  O   UNL     1       1.083   3.820  17.694  0.00  0.00    +0.000 OA
ATOM     17  H   UNL     1       0.845   4.750  17.868  0.00  0.00    +0.000 HD
ENDBRANCH  15  16
ENDBRANCH   1  15
BRANCH   4  18
ATOM     18  C   UNL     1       6.831   4.315  14.674  0.00  0.00    +0.000 C 
BRANCH  18  19
ATOM     19  S   UNL     1       7.682   5.160  13.304  0.00  0.00    +0.000 S 
BRANCH  19  20
ATOM     20  C   UNL     1       7.106   4.159  11.888  0.00  0.00    +0.000 C 
BRANCH  20  21
ATOM     21  C   UNL     1       5.957   3.311  12.360  0.00  0.00    +0.000 C 
ATOM     22  C   UNL     1       4.630   3.309  11.634  0.00  0.00    +0.000 C 
ATOM     23  C   UNL     1       5.517   2.101  11.568  0.00  0.00    +0.000 C 
ENDBRANCH  20  21
ENDBRANCH  19  20
ENDBRANCH  18  19
ENDBRANCH   4  18
TORSDOF 7
ENDMDL
MODEL 2
REMARK VINA RESULT:      -7.1      1.003      1.510
REMARK  Name = 
REMARK  7 active torsions:
REMARK  status: ('A' for Active; 'I' for Inactive)
REMARK    1  A    between atoms: C_2  and  O_3
REMARK    2  A    between atoms: C_2  and  C_4
REMARK    3  A    between atoms: C_7  and  C_9
REMARK    4  A    between atoms: C_9  and  S_10
REMARK    5  A    between atoms: S_10  and  C_11
REMARK    6  A    between atoms: C_11  and  C_12
REMARK    7  A    between atoms: C_16  and  C_17
REMARK                            x       y       z     vdW  Elec       q    Type
REMARK                         _______ _______ _______ _____ _____    ______ ____
ROOT
ATOM      1  C   UNL     1       2.482   5.156  17.829  0.00  0.00    +0.000 C 
ATOM      2  C   UNL     1       3.648   4.445  17.155  0.00  0.00    +0.000 C 
ATOM      3  N   UNL     1       4.609   5.512  16.938  0.00  0.00    +0.000 N 
ATOM      4  C   UNL     1       5.588   5.606  15.971  0.00  0.00    +0.000 C 
ATOM      5  O   UNL     1       6.339   6.584  15.917  0.00  0.00    +0.000 OA
ATOM      6  C   UNL     1       4.474   6.542  17.954  0.00  0.00    +0.000 C 
ATOM      7  C   UNL     1       3.172   6.220  18.708  0.00  0.00    +0.000 C 
ENDROOT
BRANCH   7   8
ATOM      8  C   UNL     1       2.323   7.447  18.961  0.00  0.00    +0.000 A 
ATOM      9  C   UNL     1       2.009   8.358  17.943  0.00  0.00    +0.000 A 
ATOM     10  C   UNL     1       1.255   9.477  18.249  0.00  0.00    +0.000 A 
ATOM     11  N   UNL     1       0.794   9.755  19.487  0.00  0.00    +0.000 NA
ATOM     12  C   UNL     1       1.108   8.874  20.459  0.00  0.00    +0.000 A 
ATOM     13  C   UNL     1       1.854   7.725  20.249  0.00  0.00    +0.000 A 
ENDBRANCH   7   8
BRANCH   1  15
ATOM     14  O   UNL     1       1.590   4.223  19.865  0.00  0.00    +0.000 OA
ATOM     15  C   UNL     1       1.674   4.186  18.646  0.00  0.00    +0.000 C 
BRANCH  15  16
ATOM     16  O   UNL     1       1.046   3.242  17.914  0.00  0.00    +0.000 OA
ATOM     17  H   UNL     1       0.078   3.188  18.030  0.00  0.00    +0.000 HD
ENDBRANCH  15  16
ENDBRANCH   1  15
BRANCH   4  18
ATOM     18  C   UNL     1       5.712   4.490  14.950  0.00  0.00    +0.000 C 
BRANCH  18  19
ATOM     19  S   UNL     1       7.277   4.584  14.024  0.00  0.00    +0.000 S 
BRANCH  19  20
ATOM     20  C   UNL     1       6.683   4.230  12.332  0.00  0.00    +0.000 C 
BRANCH  20  21
ATOM     21  C   UNL     1       5.561   3.235  12.438  0.00  0.00    +0.000 C 
ATOM     22  C   UNL     1       4.428   3.216  11.435  0.00  0.00    +0.000 C 
ATOM     23  C   UNL     1       5.437   2.106  11.439  0.00  0.00    +0.000 C 
ENDBRANCH  20  21
ENDBRANCH  19  20
ENDBRANCH  18  19
ENDBRANCH   4  18
TORSDOF 7
ENDMDL
MODEL 3
REMARK VINA RESULT:      -7.1      0.977      1.265
REMARK  Name = 
REMARK  7 active torsions:
REMARK  status: ('A' for Active; 'I' for Inactive)
REMARK    1  A    between atoms: C_2  and  O_3
REMARK    2  A    between atoms: C_2  and  C_4
REMARK    3  A    between atoms: C_7  and  C_9
REMARK    4  A    between atoms: C_9  and  S_10
REMARK    5  A    between atoms: S_10  and  C_11
REMARK    6  A    between atoms: C_11  and  C_12
REMARK    7  A    between atoms: C_16  and  C_17
REMARK                            x       y       z     vdW  Elec       q    Type
REMARK                         _______ _______ _______ _____ _____    ______ ____
ROOT
ATOM      1  C   UNL     1       3.031   4.988  17.748  0.00  0.00    +0.000 C 
ATOM      2  C   UNL     1       4.310   4.222  17.433  0.00  0.00    +0.000 C 
ATOM      3  N   UNL     1       5.350   5.218  17.619  0.00  0.00    +0.000 N 
ATOM      4  C   UNL     1       6.594   5.285  17.030  0.00  0.00    +0.000 C 
ATOM      5  O   UNL     1       7.378   6.202  17.295  0.00  0.00    +0.000 OA
ATOM      6  C   UNL     1       4.950   6.201  18.614  0.00  0.00    +0.000 C 
ATOM      7  C   UNL     1       3.457   5.945  18.881  0.00  0.00    +0.000 C 
ENDROOT
BRANCH   7   8
ATOM      8  C   UNL     1       2.646   7.221  18.940  0.00  0.00    +0.000 A 
ATOM      9  C   UNL     1       1.929   7.596  20.085  0.00  0.00    +0.000 A 
ATOM     10  C   UNL     1       1.181   8.760  20.061  0.00  0.00    +0.000 A 
ATOM     11  N   UNL     1       1.092   9.571  18.986  0.00  0.00    +0.000 NA
ATOM     12  C   UNL     1       1.781   9.196  17.889  0.00  0.00    +0.000 A 
ATOM     13  C   UNL     1       2.560   8.052  17.818  0.00  0.00    +0.000 A 
ENDBRANCH   7   8
BRANCH   1  15
ATOM     14  O   UNL     1       1.073   3.616  17.443  0.00  0.00    +0.000 OA
ATOM     15  C   UNL     1       1.945   4.044  18.185  0.00  0.00    +0.000 C 
BRANCH  15  16
ATOM     16  O   UNL     1       2.000   3.710  19.492  0.00  0.00    +0.000 OA
ATOM     17  H   UNL     1       1.242   3.996  20.036  0.00  0.00    +0.000 HD
ENDBRANCH  15  16
ENDBRANCH   1  15
BRANCH   4  18
ATOM     18  C   UNL     1       6.980   4.218  16.021  0.00  0.00    +0.000 C 
BRANCH  18  19
ATOM     19  S   UNL     1       6.825   4.814  14.307  0.00  0.00    +0.000 S 
BRANCH  19  20
ATOM     20  C   UNL     1       5.407   3.813  13.735  0.00  0.00    +0.000 C 
BRANCH  20  21
ATOM     21  C   UNL     1       5.549   3.619  12.251  0.00  0.00    +0.000 C 
ATOM     22  C   UNL     1       5.531   2.239  11.632  0.00  0.00    +0.000 C 
ATOM     23  C   UNL     1       4.372   3.165  11.417  0.00  0.00    +0.000 C 
ENDBRANCH  20  21
ENDBRANCH  19  20
ENDBRANCH  18  19
ENDBRANCH   4  18
TORSDOF 7
ENDMDL
MODEL 4
REMARK VINA RESULT:      -7.1      1.065      1.216
REMARK  Name = 
REMARK  7 active torsions:
REMARK  status: ('A' for Active; 'I' for Inactive)
REMARK    1  A    between atoms: C_2  and  O_3
REMARK    2  A    between atoms: C_2  and  C_4
REMARK    3  A    between atoms: C_7  and  C_9
REMARK    4  A    between atoms: C_9  and  S_10
REMARK    5  A    between atoms: S_10  and  C_11
REMARK    6  A    between atoms: C_11  and  C_12
REMARK    7  A    between atoms: C_16  and  C_17
REMARK                            x       y       z     vdW  Elec       q    Type
REMARK                         _______ _______ _______ _____ _____    ______ ____
ROOT
ATOM      1  C   UNL     1       2.421   5.197  17.931  0.00  0.00    +0.000 C 
ATOM      2  C   UNL     1       3.553   4.516  17.172  0.00  0.00    +0.000 C 
ATOM      3  N   UNL     1       4.513   5.588  16.973  0.00  0.00    +0.000 N 
ATOM      4  C   UNL     1       5.452   5.728  15.974  0.00  0.00    +0.000 C 
ATOM      5  O   UNL     1       6.208   6.704  15.942  0.00  0.00    +0.000 OA
ATOM      6  C   UNL     1       4.427   6.562  18.048  0.00  0.00    +0.000 C 
ATOM      7  C   UNL     1       3.154   6.208  18.837  0.00  0.00    +0.000 C 
ENDROOT
BRANCH   7   8
ATOM      8  C   UNL     1       2.326   7.424  19.190  0.00  0.00    +0.000 A 
ATOM      9  C   UNL     1       1.788   7.613  20.471  0.00  0.00    +0.000 A 
ATOM     10  C   UNL     1       1.013   8.732  20.717  0.00  0.00    +0.000 A 
ATOM     11  N   UNL     1       0.732   9.670  19.788  0.00  0.00    +0.000 NA
ATOM     12  C   UNL     1       1.250   9.473  18.558  0.00  0.00    +0.000 A 
ATOM     13  C   UNL     1       2.040   8.387  18.216  0.00  0.00    +0.000 A 
ENDBRANCH   7   8
BRANCH   1  15
ATOM     14  O   UNL     1       1.483   4.246  19.938  0.00  0.00    +0.000 OA
ATOM     15  C   UNL     1       1.639   4.189  18.728  0.00  0.00    +0.000 C 
BRANCH  15  16
ATOM     16  O   UNL     1       1.123   3.185  17.987  0.00  0.00    +0.000 OA
ATOM     17  H   UNL     1       0.299   2.787  18.325  0.00  0.00    +0.000 HD
ENDBRANCH  15  16
ENDBRANCH   1  15
BRANCH   4  18
ATOM     18  C   UNL     1       5.526   4.668  14.891  0.00  0.00    +0.000 C 
BRANCH  18  19
ATOM     19  S   UNL     1       7.175   4.591  14.124  0.00  0.00    +0.000 S 
BRANCH  19  20
ATOM     20  C   UNL     1       6.723   4.165  12.405  0.00  0.00    +0.000 C 
BRANCH  20  21
ATOM     21  C   UNL     1       5.571   3.200  12.459  0.00  0.00    +0.000 C 
ATOM     22  C   UNL     1       4.481   3.216  11.409  0.00  0.00    +0.000 C 
ATOM     23  C   UNL     1       5.458   2.079  11.450  0.00  0.00    +0.000 C 
ENDBRANCH  20  21
ENDBRANCH  19  20
ENDBRANCH  18  19
ENDBRANCH   4  18
TORSDOF 7
ENDMDL
MODEL 5
REMARK VINA RESULT:      -6.9      3.494      7.458
REMARK  Name = 
REMARK  7 active torsions:
REMARK  status: ('A' for Active; 'I' for Inactive)
REMARK    1  A    between atoms: C_2  and  O_3
REMARK    2  A    between atoms: C_2  and  C_4
REMARK    3  A    between atoms: C_7  and  C_9
REMARK    4  A    between atoms: C_9  and  S_10
REMARK    5  A    between atoms: S_10  and  C_11
REMARK    6  A    between atoms: C_11  and  C_12
REMARK    7  A    between atoms: C_16  and  C_17
REMARK                            x       y       z     vdW  Elec       q    Type
REMARK                         _______ _______ _______ _____ _____    ______ ____
ROOT
ATOM      1  C   UNL     1       3.872   4.275  19.440  0.00  0.00    +0.000 C 
ATOM      2  C   UNL     1       2.661   5.013  19.997  0.00  0.00    +0.000 C 
ATOM      3  N   UNL     1       2.634   6.241  19.222  0.00  0.00    +0.000 N 
ATOM      4  C   UNL     1       2.120   7.470  19.575  0.00  0.00    +0.000 C 
ATOM      5  O   UNL     1       2.168   8.429  18.798  0.00  0.00    +0.000 OA
ATOM      6  C   UNL     1       3.198   6.028  17.899  0.00  0.00    +0.000 C 
ATOM      7  C   UNL     1       3.854   4.637  17.940  0.00  0.00    +0.000 C 
ENDROOT
BRANCH   7   8
ATOM      8  C   UNL     1       5.220   4.614  17.290  0.00  0.00    +0.000 A 
ATOM      9  C   UNL     1       5.385   4.423  15.911  0.00  0.00    +0.000 A 
ATOM     10  C   UNL     1       6.664   4.380  15.385  0.00  0.00    +0.000 A 
ATOM     11  N   UNL     1       7.784   4.511  16.127  0.00  0.00    +0.000 NA
ATOM     12  C   UNL     1       7.612   4.688  17.454  0.00  0.00    +0.000 A 
ATOM     13  C   UNL     1       6.373   4.748  18.071  0.00  0.00    +0.000 A 
ENDBRANCH   7   8
BRANCH   1  15
ATOM     14  O   UNL     1       2.678   2.187  19.604  0.00  0.00    +0.000 OA
ATOM     15  C   UNL     1       3.737   2.794  19.665  0.00  0.00    +0.000 C 
BRANCH  15  16
ATOM     16  O   UNL     1       4.900   2.175  19.962  0.00  0.00    +0.000 OA
ATOM     17  H   UNL     1       5.404   2.554  20.706  0.00  0.00    +0.000 HD
ENDBRANCH  15  16
ENDBRANCH   1  15
BRANCH   4  18
ATOM     18  C   UNL     1       1.512   7.636  20.956  0.00  0.00    +0.000 C 
BRANCH  18  19
ATOM     19  S   UNL     1       1.258   9.388  21.382  0.00  0.00    +0.000 S 
BRANCH  19  20
ATOM     20  C   UNL     1      -0.459   9.625  20.801  0.00  0.00    +0.000 C 
BRANCH  20  21
ATOM     21  C   UNL     1      -0.429  10.616  19.672  0.00  0.00    +0.000 C 
ATOM     22  C   UNL     1      -0.864  10.232  18.275  0.00  0.00    +0.000 C 
ATOM     23  C   UNL     1      -1.716  11.159  19.090  0.00  0.00    +0.000 C 
ENDBRANCH  20  21
ENDBRANCH  19  20
ENDBRANCH  18  19
ENDBRANCH   4  18
TORSDOF 7
ENDMDL
MODEL 6
REMARK VINA RESULT:      -6.8      1.111      1.716
REMARK  Name = 
REMARK  7 active torsions:
REMARK  status: ('A' for Active; 'I' for Inactive)
REMARK    1  A    between atoms: C_2  and  O_3
REMARK    2  A    between atoms: C_2  and  C_4
REMARK    3  A    between atoms: C_7  and  C_9
REMARK    4  A    between atoms: C_9  and  S_10
REMARK    5  A    between atoms: S_10  and  C_11
REMARK    6  A    between atoms: C_11  and  C_12
REMARK    7  A    between atoms: C_16  and  C_17
REMARK                            x       y       z     vdW  Elec       q    Type
REMARK                         _______ _______ _______ _____ _____    ______ ____
ROOT
ATOM      1  C   UNL     1       2.959   5.036  17.895  0.00  0.00    +0.000 C 
ATOM      2  C   UNL     1       4.262   4.282  17.661  0.00  0.00    +0.000 C 
ATOM      3  N   UNL     1       5.280   5.264  17.992  0.00  0.00    +0.000 N 
ATOM      4  C   UNL     1       6.573   5.355  17.524  0.00  0.00    +0.000 C 
ATOM      5  O   UNL     1       7.328   6.255  17.906  0.00  0.00    +0.000 OA
ATOM      6  C   UNL     1       4.789   6.197  18.993  0.00  0.00    +0.000 C 
ATOM      7  C   UNL     1       3.278   5.933  19.109  0.00  0.00    +0.000 C 
ENDROOT
BRANCH   7   8
ATOM      8  C   UNL     1       2.463   7.207  19.156  0.00  0.00    +0.000 A 
ATOM      9  C   UNL     1       2.321   8.043  18.039  0.00  0.00    +0.000 A 
ATOM     10  C   UNL     1       1.588   9.210  18.160  0.00  0.00    +0.000 A 
ATOM     11  N   UNL     1       0.992   9.607  19.304  0.00  0.00    +0.000 NA
ATOM     12  C   UNL     1       1.142   8.797  20.373  0.00  0.00    +0.000 A 
ATOM     13  C   UNL     1       1.852   7.608  20.350  0.00  0.00    +0.000 A 
ENDBRANCH   7   8
BRANCH   1  15
ATOM     14  O   UNL     1       1.390   3.284  17.365  0.00  0.00    +0.000 OA
ATOM     15  C   UNL     1       1.838   4.075  18.182  0.00  0.00    +0.000 C 
BRANCH  15  16
ATOM     16  O   UNL     1       1.345   4.166  19.435  0.00  0.00    +0.000 OA
ATOM     17  H   UNL     1       1.393   5.049  19.848  0.00  0.00    +0.000 HD
ENDBRANCH  15  16
ENDBRANCH   1  15
BRANCH   4  18
ATOM     18  C   UNL     1       7.051   4.339  16.503  0.00  0.00    +0.000 C 
BRANCH  18  19
ATOM     19  S   UNL     1       6.811   4.924  14.796  0.00  0.00    +0.000 S 
BRANCH  19  20
ATOM     20  C   UNL     1       5.849   3.535  14.101  0.00  0.00    +0.000 C 
BRANCH  20  21
ATOM     21  C   UNL     1       5.917   3.632  12.602  0.00  0.00    +0.000 C 
ATOM     22  C   UNL     1       5.773   2.407  11.726  0.00  0.00    +0.000 C 
ATOM     23  C   UNL     1       4.677   3.431  11.760  0.00  0.00    +0.000 C 
ENDBRANCH  20  21
ENDBRANCH  19  20
ENDBRANCH  18  19
ENDBRANCH   4  18
TORSDOF 7
ENDMDL
MODEL 7
REMARK VINA RESULT:      -6.8      3.528      7.485
REMARK  Name = 
REMARK  7 active torsions:
REMARK  status: ('A' for Active; 'I' for Inactive)
REMARK    1  A    between atoms: C_2  and  O_3
REMARK    2  A    between atoms: C_2  and  C_4
REMARK    3  A    between atoms: C_7  and  C_9
REMARK    4  A    between atoms: C_9  and  S_10
REMARK    5  A    between atoms: S_10  and  C_11
REMARK    6  A    between atoms: C_11  and  C_12
REMARK    7  A    between atoms: C_16  and  C_17
REMARK                            x       y       z     vdW  Elec       q    Type
REMARK                         _______ _______ _______ _____ _____    ______ ____
ROOT
ATOM      1  C   UNL     1       3.812   4.189  19.508  0.00  0.00    +0.000 C 
ATOM      2  C   UNL     1       2.595   4.931  20.046  0.00  0.00    +0.000 C 
ATOM      3  N   UNL     1       2.594   6.167  19.284  0.00  0.00    +0.000 N 
ATOM      4  C   UNL     1       2.082   7.397  19.639  0.00  0.00    +0.000 C 
ATOM      5  O   UNL     1       2.155   8.363  18.873  0.00  0.00    +0.000 OA
ATOM      6  C   UNL     1       3.186   5.964  17.972  0.00  0.00    +0.000 C 
ATOM      7  C   UNL     1       3.830   4.567  18.012  0.00  0.00    +0.000 C 
ENDROOT
BRANCH   7   8
ATOM      8  C   UNL     1       5.210   4.540  17.392  0.00  0.00    +0.000 A 
ATOM      9  C   UNL     1       6.374   4.681  18.160  0.00  0.00    +0.000 A 
ATOM     10  C   UNL     1       7.604   4.680  17.526  0.00  0.00    +0.000 A 
ATOM     11  N   UNL     1       7.759   4.552  16.191  0.00  0.00    +0.000 NA
ATOM     12  C   UNL     1       6.630   4.423  15.463  0.00  0.00    +0.000 A 
ATOM     13  C   UNL     1       5.356   4.410  16.007  0.00  0.00    +0.000 A 
ENDBRANCH   7   8
BRANCH   1  15
ATOM     14  O   UNL     1       2.585   2.127  19.738  0.00  0.00    +0.000 OA
ATOM     15  C   UNL     1       3.660   2.707  19.714  0.00  0.00    +0.000 C 
BRANCH  15  16
ATOM     16  O   UNL     1       4.829   2.055  19.889  0.00  0.00    +0.000 OA
ATOM     17  H   UNL     1       4.945   1.241  19.363  0.00  0.00    +0.000 HD
ENDBRANCH  15  16
ENDBRANCH   1  15
BRANCH   4  18
ATOM     18  C   UNL     1       1.445   7.552  21.007  0.00  0.00    +0.000 C 
BRANCH  18  19
ATOM     19  S   UNL     1       1.288   9.301  21.491  0.00  0.00    +0.000 S 
BRANCH  19  20
ATOM     20  C   UNL     1      -0.433   9.634  20.975  0.00  0.00    +0.000 C 
BRANCH  20  21
ATOM     21  C   UNL     1      -0.386  10.530  19.768  0.00  0.00    +0.000 C 
ATOM     22  C   UNL     1      -1.324  10.325  18.598  0.00  0.00    +0.000 C 
ATOM     23  C   UNL     1      -1.502  11.514  19.495  0.00  0.00    +0.000 C 
ENDBRANCH  20  21
ENDBRANCH  19  20
ENDBRANCH  18  19
ENDBRANCH   4  18
TORSDOF 7
ENDMDL
MODEL 8
REMARK VINA RESULT:      -6.7      0.995      1.200
REMARK  Name = 
REMARK  7 active torsions:
REMARK  status: ('A' for Active; 'I' for Inactive)
REMARK    1  A    between atoms: C_2  and  O_3
REMARK    2  A    between atoms: C_2  and  C_4
REMARK    3  A    between atoms: C_7  and  C_9
REMARK    4  A    between atoms: C_9  and  S_10
REMARK    5  A    between atoms: S_10  and  C_11
REMARK    6  A    between atoms: C_11  and  C_12
REMARK    7  A    between atoms: C_16  and  C_17
REMARK                            x       y       z     vdW  Elec       q    Type
REMARK                         _______ _______ _______ _____ _____    ______ ____
ROOT
ATOM      1  C   UNL     1       3.114   4.565  17.708  0.00  0.00    +0.000 C 
ATOM      2  C   UNL     1       4.199   3.815  16.946  0.00  0.00    +0.000 C 
ATOM      3  N   UNL     1       5.068   4.878  16.471  0.00  0.00    +0.000 N 
ATOM      4  C   UNL     1       5.888   4.889  15.363  0.00  0.00    +0.000 C 
ATOM      5  O   UNL     1       6.578   5.876  15.090  0.00  0.00    +0.000 OA
ATOM      6  C   UNL     1       5.037   6.013  17.378  0.00  0.00    +0.000 C 
ATOM      7  C   UNL     1       3.876   5.742  18.352  0.00  0.00    +0.000 C 
ENDROOT
BRANCH   7   8
ATOM      8  C   UNL     1       3.018   6.964  18.595  0.00  0.00    +0.000 A 
ATOM      9  C   UNL     1       2.310   7.151  19.790  0.00  0.00    +0.000 A 
ATOM     10  C   UNL     1       1.518   8.276  19.936  0.00  0.00    +0.000 A 
ATOM     11  N   UNL     1       1.379   9.223  18.983  0.00  0.00    +0.000 NA
ATOM     12  C   UNL     1       2.061   9.029  17.836  0.00  0.00    +0.000 A 
ATOM     13  C   UNL     1       2.881   7.937  17.599  0.00  0.00    +0.000 A 
ENDBRANCH   7   8
BRANCH   1  15
ATOM     14  O   UNL     1       2.939   3.485  19.856  0.00  0.00    +0.000 OA
ATOM     15  C   UNL     1       2.480   3.672  18.739  0.00  0.00    +0.000 C 
BRANCH  15  16
ATOM     16  O   UNL     1       1.348   3.067  18.320  0.00  0.00    +0.000 OA
ATOM     17  H   UNL     1       1.377   2.093  18.279  0.00  0.00    +0.000 HD
ENDBRANCH  15  16
ENDBRANCH   1  15
BRANCH   4  18
ATOM     18  C   UNL     1       5.911   3.667  14.463  0.00  0.00    +0.000 C 
BRANCH  18  19
ATOM     19  S   UNL     1       6.546   4.058  12.801  0.00  0.00    +0.000 S 
BRANCH  19  20
ATOM     20  C   UNL     1       5.605   2.856  11.796  0.00  0.00    +0.000 C 
BRANCH  20  21
ATOM     21  C   UNL     1       4.221   3.408  11.595  0.00  0.00    +0.000 C 
ATOM     22  C   UNL     1       3.791   3.993  10.268  0.00  0.00    +0.000 C 
ATOM     23  C   UNL     1       3.222   2.682  10.722  0.00  0.00    +0.000 C 
ENDBRANCH  20  21
ENDBRANCH  19  20
ENDBRANCH  18  19
ENDBRANCH   4  18
TORSDOF 7
ENDMDL
MODEL 9
REMARK VINA RESULT:      -6.7      3.638      8.166
REMARK  Name = 
REMARK  7 active torsions:
REMARK  status: ('A' for Active; 'I' for Inactive)
REMARK    1  A    between atoms: C_2  and  O_3
REMARK    2  A    between atoms: C_2  and  C_4
REMARK    3  A    between atoms: C_7  and  C_9
REMARK    4  A    between atoms: C_9  and  S_10
REMARK    5  A    between atoms: S_10  and  C_11
REMARK    6  A    between atoms: C_11  and  C_12
REMARK    7  A    between atoms: C_16  and  C_17
REMARK                            x       y       z     vdW  Elec       q    Type
REMARK                         _______ _______ _______ _____ _____    ______ ____
ROOT
ATOM      1  C   UNL     1       3.841   4.325  19.555  0.00  0.00    +0.000 C 
ATOM      2  C   UNL     1       2.643   5.070  20.131  0.00  0.00    +0.000 C 
ATOM      3  N   UNL     1       2.592   6.284  19.335  0.00  0.00    +0.000 N 
ATOM      4  C   UNL     1       2.084   7.518  19.679  0.00  0.00    +0.000 C 
ATOM      5  O   UNL     1       2.109   8.463  18.885  0.00  0.00    +0.000 OA
ATOM      6  C   UNL     1       3.121   6.049  18.002  0.00  0.00    +0.000 C 
ATOM      7  C   UNL     1       3.782   4.660  18.050  0.00  0.00    +0.000 C 
ENDROOT
BRANCH   7   8
ATOM      8  C   UNL     1       5.130   4.629  17.364  0.00  0.00    +0.000 A 
ATOM      9  C   UNL     1       5.264   4.350  15.997  0.00  0.00    +0.000 A 
ATOM     10  C   UNL     1       6.529   4.306  15.438  0.00  0.00    +0.000 A 
ATOM     11  N   UNL     1       7.665   4.514  16.138  0.00  0.00    +0.000 NA
ATOM     12  C   UNL     1       7.523   4.775  17.454  0.00  0.00    +0.000 A 
ATOM     13  C   UNL     1       6.300   4.844  18.101  0.00  0.00    +0.000 A 
ENDBRANCH   7   8
BRANCH   1  15
ATOM     14  O   UNL     1       2.650   2.264  19.933  0.00  0.00    +0.000 OA
ATOM     15  C   UNL     1       3.716   2.848  19.810  0.00  0.00    +0.000 C 
BRANCH  15  16
ATOM     16  O   UNL     1       4.899   2.206  19.908  0.00  0.00    +0.000 OA
ATOM     17  H   UNL     1       4.950   1.338  19.465  0.00  0.00    +0.000 HD
ENDBRANCH  15  16
ENDBRANCH   1  15
BRANCH   4  18
ATOM     18  C   UNL     1       1.512   7.707  21.073  0.00  0.00    +0.000 C 
BRANCH  18  19
ATOM     19  S   UNL     1      -0.059   8.626  21.046  0.00  0.00    +0.000 S 
BRANCH  19  20
ATOM     20  C   UNL     1       0.504  10.261  21.638  0.00  0.00    +0.000 C 
BRANCH  20  21
ATOM     21  C   UNL     1      -0.695  11.168  21.693  0.00  0.00    +0.000 C 
ATOM     22  C   UNL     1      -1.327  11.558  23.010  0.00  0.00    +0.000 C 
ATOM     23  C   UNL     1      -0.568  12.581  22.218  0.00  0.00    +0.000 C 
ENDBRANCH  20  21
ENDBRANCH  19  20
ENDBRANCH  18  19
ENDBRANCH   4  18
TORSDOF 7
ENDMDL
