MODEL 1
REMARK VINA RESULT:     -10.0      0.000      0.000
REMARK  Name = 
REMARK  5 active torsions:
REMARK  status: ('A' for Active; 'I' for Inactive)
REMARK    1  A    between atoms: C_1  and  N_2
REMARK    2  A    between atoms: N_2  and  N_3
REMARK    3  A    between atoms: C_6  and  C_7
REMARK    4  A    between atoms: C_10  and  O_11
REMARK    5  A    between atoms: O_11  and  C_12
REMARK                            x       y       z     vdW  Elec       q    Type
REMARK                         _______ _______ _______ _____ _____    ______ ____
ROOT
ATOM      1  C   UNL     1       6.990   6.631  17.511  0.00  0.00    +0.000 C 
ATOM      2  N   UNL     1       6.505   5.271  17.722  0.00  0.00    +0.000 N 
ATOM      3  C   UNL     1       5.217   5.197  18.320  0.00  0.00    +0.000 A 
ATOM      4  N   UNL     1       4.435   6.287  18.344  0.00  0.00    +0.000 NA
ATOM      5  C   UNL     1       3.214   6.205  18.930  0.00  0.00    +0.000 A 
ATOM      6  C   UNL     1       2.745   5.021  19.527  0.00  0.00    +0.000 A 
ATOM      7  C   UNL     1       1.516   4.828  20.229  0.00  0.00    +0.000 A 
ATOM      8  C   UNL     1       1.154   3.588  20.746  0.00  0.00    +0.000 A 
ATOM      9  C   UNL     1       2.031   2.523  20.618  0.00  0.00    +0.000 A 
ATOM     10  C   UNL     1       3.253   2.714  19.968  0.00  0.00    +0.000 A 
ATOM     11  C   UNL     1       3.624   3.937  19.419  0.00  0.00    +0.000 A 
ATOM     12  N   UNL     1       4.816   4.016  18.823  0.00  0.00    +0.000 NA
ENDROOT
BRANCH   5  13
ATOM     13  C   UNL     1       2.484   7.501  18.927  0.00  0.00    +0.000 A 
ATOM     14  C   UNL     1       2.437   8.353  17.811  0.00  0.00    +0.000 A 
ATOM     15  C   UNL     1       1.623   9.493  17.798  0.00  0.00    +0.000 A 
ATOM     16  C   UNL     1       0.890   9.847  18.926  0.00  0.00    +0.000 A 
ATOM     17  C   UNL     1       1.045   9.109  20.096  0.00  0.00    +0.000 A 
ATOM     18  C   UNL     1       1.805   7.933  20.081  0.00  0.00    +0.000 A 
BRANCH  16  19
ATOM     19  O   UNL     1       0.106  10.970  18.808  0.00  0.00    +0.000 OA
BRANCH  19  20
ATOM     20  C   UNL     1      -1.206  10.865  18.402  0.00  0.00    +0.000 A 
ATOM     21  C   UNL     1      -2.080  11.812  18.942  0.00  0.00    +0.000 A 
ATOM     22  C   UNL     1      -3.434  11.789  18.608  0.00  0.00    +0.000 A 
ATOM     23  C   UNL     1      -3.905  10.817  17.732  0.00  0.00    +0.000 A 
ATOM     24  F   UNL     1      -5.209  10.776  17.431  0.00  0.00    +0.000 F 
ATOM     25  C   UNL     1      -3.040   9.894  17.156  0.00  0.00    +0.000 A 
ATOM     26  C   UNL     1      -1.680   9.936  17.469  0.00  0.00    +0.000 A 
ENDBRANCH  19  20
ENDBRANCH  16  19
ENDBRANCH   5  13
BRANCH   2  27
ATOM     27  N   UNL     1       7.450   4.242  18.015  0.00  0.00    +0.000 NA
ATOM     28  H   UNL     1       7.108   3.345  17.671  0.00  0.00    +0.000 HD
ATOM     29  H   UNL     1       7.495   4.148  19.036  0.00  0.00    +0.000 HD
ENDBRANCH   2  27
TORSDOF 4
ENDMDL
MODEL 2
REMARK VINA RESULT:      -9.8      0.523      1.059
REMARK  Name = 
REMARK  5 active torsions:
REMARK  status: ('A' for Active; 'I' for Inactive)
REMARK    1  A    between atoms: C_1  and  N_2
REMARK    2  A    between atoms: N_2  and  N_3
REMARK    3  A    between atoms: C_6  and  C_7
REMARK    4  A    between atoms: C_10  and  O_11
REMARK    5  A    between atoms: O_11  and  C_12
REMARK                            x       y       z     vdW  Elec       q    Type
REMARK                         _______ _______ _______ _____ _____    ______ ____
ROOT
ATOM      1  C   UNL     1       7.000   6.574  17.349  0.00  0.00    +0.000 C 
ATOM      2  N   UNL     1       6.664   5.208  17.738  0.00  0.00    +0.000 N 
ATOM      3  C   UNL     1       5.439   5.088  18.449  0.00  0.00    +0.000 A 
ATOM      4  N   UNL     1       4.560   6.103  18.428  0.00  0.00    +0.000 NA
ATOM      5  C   UNL     1       3.401   5.981  19.123  0.00  0.00    +0.000 A 
ATOM      6  C   UNL     1       3.093   4.832  19.876  0.00  0.00    +0.000 A 
ATOM      7  C   UNL     1       1.946   4.612  20.697  0.00  0.00    +0.000 A 
ATOM      8  C   UNL     1       1.745   3.409  21.368  0.00  0.00    +0.000 A 
ATOM      9  C   UNL     1       2.707   2.417  21.275  0.00  0.00    +0.000 A 
ATOM     10  C   UNL     1       3.852   2.641  20.506  0.00  0.00    +0.000 A 
ATOM     11  C   UNL     1       4.061   3.823  19.804  0.00  0.00    +0.000 A 
ATOM     12  N   UNL     1       5.192   3.940  19.104  0.00  0.00    +0.000 NA
ENDROOT
BRANCH   5  13
ATOM     13  C   UNL     1       2.552   7.200  19.050  0.00  0.00    +0.000 A 
ATOM     14  C   UNL     1       1.831   7.701  20.147  0.00  0.00    +0.000 A 
ATOM     15  C   UNL     1       1.160   8.928  20.078  0.00  0.00    +0.000 A 
ATOM     16  C   UNL     1       1.134   9.650  18.889  0.00  0.00    +0.000 A 
ATOM     17  C   UNL     1       1.704   9.098  17.746  0.00  0.00    +0.000 A 
ATOM     18  C   UNL     1       2.433   7.906  17.838  0.00  0.00    +0.000 A 
BRANCH  16  19
ATOM     19  O   UNL     1       0.466  10.852  18.928  0.00  0.00    +0.000 OA
BRANCH  19  20
ATOM     20  C   UNL     1      -0.877  10.913  18.632  0.00  0.00    +0.000 A 
ATOM     21  C   UNL     1      -1.595  11.910  19.298  0.00  0.00    +0.000 A 
ATOM     22  C   UNL     1      -2.966  12.053  19.081  0.00  0.00    +0.000 A 
ATOM     23  C   UNL     1      -3.609  11.196  18.194  0.00  0.00    +0.000 A 
ATOM     24  F   UNL     1      -4.930  11.314  18.005  0.00  0.00    +0.000 F 
ATOM     25  C   UNL     1      -2.901  10.227  17.494  0.00  0.00    +0.000 A 
ATOM     26  C   UNL     1      -1.524  10.104  17.691  0.00  0.00    +0.000 A 
ENDBRANCH  19  20
ENDBRANCH  16  19
ENDBRANCH   5  13
BRANCH   2  27
ATOM     27  N   UNL     1       7.722   4.304  18.054  0.00  0.00    +0.000 NA
ATOM     28  H   UNL     1       8.569   4.565  17.547  0.00  0.00    +0.000 HD
ATOM     29  H   UNL     1       7.457   3.382  17.691  0.00  0.00    +0.000 HD
ENDBRANCH   2  27
TORSDOF 4
ENDMDL
MODEL 3
REMARK VINA RESULT:      -9.8      1.258      1.637
REMARK  Name = 
REMARK  5 active torsions:
REMARK  status: ('A' for Active; 'I' for Inactive)
REMARK    1  A    between atoms: C_1  and  N_2
REMARK    2  A    between atoms: N_2  and  N_3
REMARK    3  A    between atoms: C_6  and  C_7
REMARK    4  A    between atoms: C_10  and  O_11
REMARK    5  A    between atoms: O_11  and  C_12
REMARK                            x       y       z     vdW  Elec       q    Type
REMARK                         _______ _______ _______ _____ _____    ______ ____
ROOT
ATOM      1  C   UNL     1       7.314   6.821  17.456  0.00  0.00    +0.000 C 
ATOM      2  N   UNL     1       6.858   5.485  17.089  0.00  0.00    +0.000 N 
ATOM      3  C   UNL     1       5.508   5.211  17.443  0.00  0.00    +0.000 A 
ATOM      4  N   UNL     1       4.688   6.225  17.761  0.00  0.00    +0.000 NA
ATOM      5  C   UNL     1       3.407   5.948  18.111  0.00  0.00    +0.000 A 
ATOM      6  C   UNL     1       2.911   4.632  18.165  0.00  0.00    +0.000 A 
ATOM      7  C   UNL     1       1.612   4.209  18.580  0.00  0.00    +0.000 A 
ATOM      8  C   UNL     1       1.234   2.870  18.555  0.00  0.00    +0.000 A 
ATOM      9  C   UNL     1       2.160   1.917  18.163  0.00  0.00    +0.000 A 
ATOM     10  C   UNL     1       3.446   2.320  17.794  0.00  0.00    +0.000 A 
ATOM     11  C   UNL     1       3.837   3.654  17.784  0.00  0.00    +0.000 A 
ATOM     12  N   UNL     1       5.091   3.933  17.422  0.00  0.00    +0.000 NA
ENDROOT
BRANCH   5  13
ATOM     13  C   UNL     1       2.635   7.162  18.486  0.00  0.00    +0.000 A 
ATOM     14  C   UNL     1       2.068   7.350  19.758  0.00  0.00    +0.000 A 
ATOM     15  C   UNL     1       1.473   8.565  20.118  0.00  0.00    +0.000 A 
ATOM     16  C   UNL     1       1.366   9.598  19.193  0.00  0.00    +0.000 A 
ATOM     17  C   UNL     1       1.775   9.380  17.881  0.00  0.00    +0.000 A 
ATOM     18  C   UNL     1       2.433   8.190  17.545  0.00  0.00    +0.000 A 
BRANCH  16  19
ATOM     19  O   UNL     1       0.785  10.758  19.648  0.00  0.00    +0.000 OA
BRANCH  19  20
ATOM     20  C   UNL     1      -0.523  11.053  19.332  0.00  0.00    +0.000 A 
ATOM     21  C   UNL     1      -1.114  12.061  20.099  0.00  0.00    +0.000 A 
ATOM     22  C   UNL     1      -2.440  12.430  19.872  0.00  0.00    +0.000 A 
ATOM     23  C   UNL     1      -3.166  11.789  18.874  0.00  0.00    +0.000 A 
ATOM     24  F   UNL     1      -4.447  12.123  18.672  0.00  0.00    +0.000 F 
ATOM     25  C   UNL     1      -2.579  10.814  18.077  0.00  0.00    +0.000 A 
ATOM     26  C   UNL     1      -1.243  10.465  18.287  0.00  0.00    +0.000 A 
ENDBRANCH  19  20
ENDBRANCH  16  19
ENDBRANCH   5  13
BRANCH   2  27
ATOM     27  N   UNL     1       7.795   4.410  17.107  0.00  0.00    +0.000 NA
ATOM     28  H   UNL     1       8.372   4.462  17.948  0.00  0.00    +0.000 HD
ATOM     29  H   UNL     1       8.440   4.550  16.321  0.00  0.00    +0.000 HD
ENDBRANCH   2  27
TORSDOF 4
ENDMDL
MODEL 4
REMARK VINA RESULT:      -9.6      1.295      1.557
REMARK  Name = 
REMARK  5 active torsions:
REMARK  status: ('A' for Active; 'I' for Inactive)
REMARK    1  A    between atoms: C_1  and  N_2
REMARK    2  A    between atoms: N_2  and  N_3
REMARK    3  A    between atoms: C_6  and  C_7
REMARK    4  A    between atoms: C_10  and  O_11
REMARK    5  A    between atoms: O_11  and  C_12
REMARK                            x       y       z     vdW  Elec       q    Type
REMARK                         _______ _______ _______ _____ _____    ______ ____
ROOT
ATOM      1  C   UNL     1       7.424   6.673  17.566  0.00  0.00    +0.000 C 
ATOM      2  N   UNL     1       6.928   5.372  17.130  0.00  0.00    +0.000 N 
ATOM      3  C   UNL     1       5.575   5.114  17.484  0.00  0.00    +0.000 A 
ATOM      4  N   UNL     1       4.787   6.131  17.868  0.00  0.00    +0.000 NA
ATOM      5  C   UNL     1       3.503   5.868  18.218  0.00  0.00    +0.000 A 
ATOM      6  C   UNL     1       2.971   4.565  18.204  0.00  0.00    +0.000 A 
ATOM      7  C   UNL     1       1.665   4.154  18.610  0.00  0.00    +0.000 A 
ATOM      8  C   UNL     1       1.251   2.829  18.515  0.00  0.00    +0.000 A 
ATOM      9  C   UNL     1       2.146   1.875  18.059  0.00  0.00    +0.000 A 
ATOM     10  C   UNL     1       3.440   2.263  17.698  0.00  0.00    +0.000 A 
ATOM     11  C   UNL     1       3.866   3.585  17.758  0.00  0.00    +0.000 A 
ATOM     12  N   UNL     1       5.123   3.851  17.397  0.00  0.00    +0.000 NA
ENDROOT
BRANCH   5  13
ATOM     13  C   UNL     1       2.768   7.080  18.669  0.00  0.00    +0.000 A 
ATOM     14  C   UNL     1       2.549   8.197  17.845  0.00  0.00    +0.000 A 
ATOM     15  C   UNL     1       1.731   9.257  18.257  0.00  0.00    +0.000 A 
ATOM     16  C   UNL     1       1.169   9.259  19.529  0.00  0.00    +0.000 A 
ATOM     17  C   UNL     1       1.501   8.242  20.420  0.00  0.00    +0.000 A 
ATOM     18  C   UNL     1       2.261   7.152  19.980  0.00  0.00    +0.000 A 
BRANCH  16  19
ATOM     19  O   UNL     1       0.365  10.333  19.831  0.00  0.00    +0.000 OA
BRANCH  19  20
ATOM     20  C   UNL     1      -0.641  10.714  18.971  0.00  0.00    +0.000 A 
ATOM     21  C   UNL     1      -1.576   9.723  18.664  0.00  0.00    +0.000 A 
ATOM     22  C   UNL     1      -2.630   9.997  17.792  0.00  0.00    +0.000 A 
ATOM     23  C   UNL     1      -2.743  11.267  17.236  0.00  0.00    +0.000 A 
ATOM     24  F   UNL     1      -3.738  11.526  16.378  0.00  0.00    +0.000 F 
ATOM     25  C   UNL     1      -1.843  12.274  17.564  0.00  0.00    +0.000 A 
ATOM     26  C   UNL     1      -0.805  12.006  18.459  0.00  0.00    +0.000 A 
ENDBRANCH  19  20
ENDBRANCH  16  19
ENDBRANCH   5  13
BRANCH   2  27
ATOM     27  N   UNL     1       7.836   4.273  17.077  0.00  0.00    +0.000 NA
ATOM     28  H   UNL     1       8.133   4.110  16.114  0.00  0.00    +0.000 HD
ATOM     29  H   UNL     1       7.318   3.431  17.352  0.00  0.00    +0.000 HD
ENDBRANCH   2  27
TORSDOF 4
ENDMDL
MODEL 5
REMARK VINA RESULT:      -9.5      2.418      2.933
REMARK  Name = 
REMARK  5 active torsions:
REMARK  status: ('A' for Active; 'I' for Inactive)
REMARK    1  A    between atoms: C_1  and  N_2
REMARK    2  A    between atoms: N_2  and  N_3
REMARK    3  A    between atoms: C_6  and  C_7
REMARK    4  A    between atoms: C_10  and  O_11
REMARK    5  A    between atoms: O_11  and  C_12
REMARK                            x       y       z     vdW  Elec       q    Type
REMARK                         _______ _______ _______ _____ _____    ______ ____
ROOT
ATOM      1  C   UNL     1       7.182   7.083  17.370  0.00  0.00    +0.000 C 
ATOM      2  N   UNL     1       6.726   5.762  16.953  0.00  0.00    +0.000 N 
ATOM      3  C   UNL     1       5.395   5.451  17.347  0.00  0.00    +0.000 A 
ATOM      4  N   UNL     1       4.578   6.437  17.750  0.00  0.00    +0.000 NA
ATOM      5  C   UNL     1       3.316   6.125  18.138  0.00  0.00    +0.000 A 
ATOM      6  C   UNL     1       2.837   4.801  18.144  0.00  0.00    +0.000 A 
ATOM      7  C   UNL     1       1.561   4.340  18.588  0.00  0.00    +0.000 A 
ATOM      8  C   UNL     1       1.198   2.999  18.509  0.00  0.00    +0.000 A 
ATOM      9  C   UNL     1       2.117   2.080  18.030  0.00  0.00    +0.000 A 
ATOM     10  C   UNL     1       3.383   2.518  17.631  0.00  0.00    +0.000 A 
ATOM     11  C   UNL     1       3.757   3.856  17.675  0.00  0.00    +0.000 A 
ATOM     12  N   UNL     1       4.992   4.171  17.277  0.00  0.00    +0.000 NA
ENDROOT
BRANCH   5  13
ATOM     13  C   UNL     1       2.546   7.308  18.606  0.00  0.00    +0.000 A 
ATOM     14  C   UNL     1       2.165   8.361  17.758  0.00  0.00    +0.000 A 
ATOM     15  C   UNL     1       1.320   9.385  18.203  0.00  0.00    +0.000 A 
ATOM     16  C   UNL     1       0.892   9.420  19.527  0.00  0.00    +0.000 A 
ATOM     17  C   UNL     1       1.385   8.478  20.424  0.00  0.00    +0.000 A 
ATOM     18  C   UNL     1       2.172   7.418  19.959  0.00  0.00    +0.000 A 
BRANCH  16  19
ATOM     19  O   UNL     1       0.049  10.453  19.861  0.00  0.00    +0.000 OA
BRANCH  19  20
ATOM     20  C   UNL     1       0.406  11.757  19.599  0.00  0.00    +0.000 A 
ATOM     21  C   UNL     1      -0.450  12.455  18.743  0.00  0.00    +0.000 A 
ATOM     22  C   UNL     1      -0.175  13.779  18.401  0.00  0.00    +0.000 A 
ATOM     23  C   UNL     1       0.956  14.398  18.922  0.00  0.00    +0.000 A 
ATOM     24  F   UNL     1       1.237  15.661  18.573  0.00  0.00    +0.000 F 
ATOM     25  C   UNL     1       1.794  13.730  19.806  0.00  0.00    +0.000 A 
ATOM     26  C   UNL     1       1.503  12.414  20.170  0.00  0.00    +0.000 A 
ENDBRANCH  19  20
ENDBRANCH  16  19
ENDBRANCH   5  13
BRANCH   2  27
ATOM     27  N   UNL     1       7.676   4.699  16.877  0.00  0.00    +0.000 NA
ATOM     28  H   UNL     1       7.311   3.944  16.296  0.00  0.00    +0.000 HD
ATOM     29  H   UNL     1       7.770   4.303  17.819  0.00  0.00    +0.000 HD
ENDBRANCH   2  27
TORSDOF 4
ENDMDL
MODEL 6
REMARK VINA RESULT:      -9.5      1.265      3.256
REMARK  Name = 
REMARK  5 active torsions:
REMARK  status: ('A' for Active; 'I' for Inactive)
REMARK    1  A    between atoms: C_1  and  N_2
REMARK    2  A    between atoms: N_2  and  N_3
REMARK    3  A    between atoms: C_6  and  C_7
REMARK    4  A    between atoms: C_10  and  O_11
REMARK    5  A    between atoms: O_11  and  C_12
REMARK                            x       y       z     vdW  Elec       q    Type
REMARK                         _______ _______ _______ _____ _____    ______ ____
ROOT
ATOM      1  C   UNL     1       0.904   2.893  19.161  0.00  0.00    +0.000 C 
ATOM      2  N   UNL     1       2.333   2.627  19.032  0.00  0.00    +0.000 N 
ATOM      3  C   UNL     1       3.112   3.770  18.701  0.00  0.00    +0.000 A 
ATOM      4  N   UNL     1       2.584   4.995  18.848  0.00  0.00    +0.000 NA
ATOM      5  C   UNL     1       3.334   6.076  18.513  0.00  0.00    +0.000 A 
ATOM      6  C   UNL     1       4.641   5.956  18.006  0.00  0.00    +0.000 A 
ATOM      7  C   UNL     1       5.500   7.006  17.559  0.00  0.00    +0.000 A 
ATOM      8  C   UNL     1       6.792   6.753  17.107  0.00  0.00    +0.000 A 
ATOM      9  C   UNL     1       7.239   5.444  17.044  0.00  0.00    +0.000 A 
ATOM     10  C   UNL     1       6.389   4.408  17.441  0.00  0.00    +0.000 A 
ATOM     11  C   UNL     1       5.105   4.638  17.923  0.00  0.00    +0.000 A 
ATOM     12  N   UNL     1       4.371   3.579  18.271  0.00  0.00    +0.000 NA
ENDROOT
BRANCH   5  13
ATOM     13  C   UNL     1       2.602   7.360  18.680  0.00  0.00    +0.000 A 
ATOM     14  C   UNL     1       2.513   8.329  17.667  0.00  0.00    +0.000 A 
ATOM     15  C   UNL     1       1.697   9.459  17.810  0.00  0.00    +0.000 A 
ATOM     16  C   UNL     1       1.006   9.683  18.996  0.00  0.00    +0.000 A 
ATOM     17  C   UNL     1       1.205   8.821  20.070  0.00  0.00    +0.000 A 
ATOM     18  C   UNL     1       1.965   7.658  19.899  0.00  0.00    +0.000 A 
BRANCH  16  19
ATOM     19  O   UNL     1       0.216  10.808  19.031  0.00  0.00    +0.000 OA
BRANCH  19  20
ATOM     20  C   UNL     1      -1.073  10.770  18.546  0.00  0.00    +0.000 A 
ATOM     21  C   UNL     1      -1.960  11.680  19.127  0.00  0.00    +0.000 A 
ATOM     22  C   UNL     1      -3.294  11.718  18.720  0.00  0.00    +0.000 A 
ATOM     23  C   UNL     1      -3.730  10.845  17.729  0.00  0.00    +0.000 A 
ATOM     24  F   UNL     1      -5.016  10.861  17.355  0.00  0.00    +0.000 F 
ATOM     25  C   UNL     1      -2.850   9.963  17.114  0.00  0.00    +0.000 A 
ATOM     26  C   UNL     1      -1.509   9.945  17.503  0.00  0.00    +0.000 A 
ENDBRANCH  19  20
ENDBRANCH  16  19
ENDBRANCH   5  13
BRANCH   2  27
ATOM     27  N   UNL     1       2.753   1.354  18.543  0.00  0.00    +0.000 NA
ATOM     28  H   UNL     1       2.385   0.611  19.138  0.00  0.00    +0.000 HD
ATOM     29  H   UNL     1       3.773   1.308  18.643  0.00  0.00    +0.000 HD
ENDBRANCH   2  27
TORSDOF 4
ENDMDL
MODEL 7
REMARK VINA RESULT:      -9.4      1.099      1.107
REMARK  Name = 
REMARK  5 active torsions:
REMARK  status: ('A' for Active; 'I' for Inactive)
REMARK    1  A    between atoms: C_1  and  N_2
REMARK    2  A    between atoms: N_2  and  N_3
REMARK    3  A    between atoms: C_6  and  C_7
REMARK    4  A    between atoms: C_10  and  O_11
REMARK    5  A    between atoms: O_11  and  C_12
REMARK                            x       y       z     vdW  Elec       q    Type
REMARK                         _______ _______ _______ _____ _____    ______ ____
ROOT
ATOM      1  C   UNL     1       5.527   5.687  15.441  0.00  0.00    +0.000 C 
ATOM      2  N   UNL     1       5.166   4.428  16.082  0.00  0.00    +0.000 N 
ATOM      3  C   UNL     1       4.373   4.575  17.253  0.00  0.00    +0.000 A 
ATOM      4  N   UNL     1       3.761   5.745  17.495  0.00  0.00    +0.000 NA
ATOM      5  C   UNL     1       3.020   5.875  18.624  0.00  0.00    +0.000 A 
ATOM      6  C   UNL     1       2.879   4.831  19.556  0.00  0.00    +0.000 A 
ATOM      7  C   UNL     1       2.186   4.867  20.804  0.00  0.00    +0.000 A 
ATOM      8  C   UNL     1       2.095   3.745  21.624  0.00  0.00    +0.000 A 
ATOM      9  C   UNL     1       2.734   2.578  21.241  0.00  0.00    +0.000 A 
ATOM     10  C   UNL     1       3.449   2.548  20.041  0.00  0.00    +0.000 A 
ATOM     11  C   UNL     1       3.530   3.646  19.192  0.00  0.00    +0.000 A 
ATOM     12  N   UNL     1       4.243   3.516  18.071  0.00  0.00    +0.000 NA
ENDROOT
BRANCH   5  13
ATOM     13  C   UNL     1       2.447   7.239  18.783  0.00  0.00    +0.000 A 
ATOM     14  C   UNL     1       2.487   8.212  17.771  0.00  0.00    +0.000 A 
ATOM     15  C   UNL     1       1.812   9.432  17.907  0.00  0.00    +0.000 A 
ATOM     16  C   UNL     1       1.140   9.737  19.085  0.00  0.00    +0.000 A 
ATOM     17  C   UNL     1       1.221   8.858  20.160  0.00  0.00    +0.000 A 
ATOM     18  C   UNL     1       1.836   7.611  19.996  0.00  0.00    +0.000 A 
BRANCH  16  19
ATOM     19  O   UNL     1       0.492  10.950  19.113  0.00  0.00    +0.000 OA
BRANCH  19  20
ATOM     20  C   UNL     1      -0.848  11.031  18.806  0.00  0.00    +0.000 A 
ATOM     21  C   UNL     1      -1.568  12.001  19.508  0.00  0.00    +0.000 A 
ATOM     22  C   UNL     1      -2.936  12.160  19.285  0.00  0.00    +0.000 A 
ATOM     23  C   UNL     1      -3.575  11.347  18.354  0.00  0.00    +0.000 A 
ATOM     24  F   UNL     1      -4.893  11.479  18.157  0.00  0.00    +0.000 F 
ATOM     25  C   UNL     1      -2.864  10.406  17.619  0.00  0.00    +0.000 A 
ATOM     26  C   UNL     1      -1.489  10.267  17.823  0.00  0.00    +0.000 A 
ENDBRANCH  19  20
ENDBRANCH  16  19
ENDBRANCH   5  13
BRANCH   2  27
ATOM     27  N   UNL     1       6.083   3.336  16.016  0.00  0.00    +0.000 NA
ATOM     28  H   UNL     1       6.821   3.457  16.711  0.00  0.00    +0.000 HD
ATOM     29  H   UNL     1       6.552   3.382  15.105  0.00  0.00    +0.000 HD
ENDBRANCH   2  27
TORSDOF 4
ENDMDL
MODEL 8
REMARK VINA RESULT:      -9.2      2.762      3.493
REMARK  Name = 
REMARK  5 active torsions:
REMARK  status: ('A' for Active; 'I' for Inactive)
REMARK    1  A    between atoms: C_1  and  N_2
REMARK    2  A    between atoms: N_2  and  N_3
REMARK    3  A    between atoms: C_6  and  C_7
REMARK    4  A    between atoms: C_10  and  O_11
REMARK    5  A    between atoms: O_11  and  C_12
REMARK                            x       y       z     vdW  Elec       q    Type
REMARK                         _______ _______ _______ _____ _____    ______ ____
ROOT
ATOM      1  C   UNL     1       6.861   6.601  17.503  0.00  0.00    +0.000 C 
ATOM      2  N   UNL     1       6.442   5.233  17.788  0.00  0.00    +0.000 N 
ATOM      3  C   UNL     1       5.186   5.132  18.446  0.00  0.00    +0.000 A 
ATOM      4  N   UNL     1       4.361   6.191  18.463  0.00  0.00    +0.000 NA
ATOM      5  C   UNL     1       3.172   6.085  19.108  0.00  0.00    +0.000 A 
ATOM      6  C   UNL     1       2.778   4.908  19.770  0.00  0.00    +0.000 A 
ATOM      7  C   UNL     1       1.591   4.696  20.534  0.00  0.00    +0.000 A 
ATOM      8  C   UNL     1       1.303   3.464  21.115  0.00  0.00    +0.000 A 
ATOM      9  C   UNL     1       2.216   2.430  20.988  0.00  0.00    +0.000 A 
ATOM     10  C   UNL     1       3.400   2.643  20.276  0.00  0.00    +0.000 A 
ATOM     11  C   UNL     1       3.695   3.856  19.664  0.00  0.00    +0.000 A 
ATOM     12  N   UNL     1       4.856   3.958  19.012  0.00  0.00    +0.000 NA
ENDROOT
BRANCH   5  13
ATOM     13  C   UNL     1       2.390   7.350  19.087  0.00  0.00    +0.000 A 
ATOM     14  C   UNL     1       1.788   7.900  20.232  0.00  0.00    +0.000 A 
ATOM     15  C   UNL     1       1.183   9.162  20.202  0.00  0.00    +0.000 A 
ATOM     16  C   UNL     1       1.102   9.876  19.011  0.00  0.00    +0.000 A 
ATOM     17  C   UNL     1       1.547   9.284  17.833  0.00  0.00    +0.000 A 
ATOM     18  C   UNL     1       2.213   8.053  17.881  0.00  0.00    +0.000 A 
BRANCH  16  19
ATOM     19  O   UNL     1       0.508  11.114  19.089  0.00  0.00    +0.000 OA
BRANCH  19  20
ATOM     20  C   UNL     1       1.274  12.244  19.275  0.00  0.00    +0.000 A 
ATOM     21  C   UNL     1       1.132  12.868  20.516  0.00  0.00    +0.000 A 
ATOM     22  C   UNL     1       1.851  14.028  20.806  0.00  0.00    +0.000 A 
ATOM     23  C   UNL     1       2.713  14.553  19.850  0.00  0.00    +0.000 A 
ATOM     24  F   UNL     1       3.385  15.681  20.115  0.00  0.00    +0.000 F 
ATOM     25  C   UNL     1       2.895  13.920  18.626  0.00  0.00    +0.000 A 
ATOM     26  C   UNL     1       2.196  12.744  18.348  0.00  0.00    +0.000 A 
ENDBRANCH  19  20
ENDBRANCH  16  19
ENDBRANCH   5  13
BRANCH   2  27
ATOM     27  N   UNL     1       7.440   4.255  18.078  0.00  0.00    +0.000 NA
ATOM     28  H   UNL     1       7.829   4.417  19.007  0.00  0.00    +0.000 HD
ATOM     29  H   UNL     1       8.217   4.404  17.423  0.00  0.00    +0.000 HD
ENDBRANCH   2  27
TORSDOF 4
ENDMDL
MODEL 9
REMARK VINA RESULT:      -9.2      2.954      3.705
REMARK  Name = 
REMARK  5 active torsions:
REMARK  status: ('A' for Active; 'I' for Inactive)
REMARK    1  A    between atoms: C_1  and  N_2
REMARK    2  A    between atoms: N_2  and  N_3
REMARK    3  A    between atoms: C_6  and  C_7
REMARK    4  A    between atoms: C_10  and  O_11
REMARK    5  A    between atoms: O_11  and  C_12
REMARK                            x       y       z     vdW  Elec       q    Type
REMARK                         _______ _______ _______ _____ _____    ______ ____
ROOT
ATOM      1  C   UNL     1       7.288   6.643  17.988  0.00  0.00    +0.000 C 
ATOM      2  N   UNL     1       6.841   5.285  17.700  0.00  0.00    +0.000 N 
ATOM      3  C   UNL     1       5.467   5.050  17.980  0.00  0.00    +0.000 A 
ATOM      4  N   UNL     1       4.640   6.093  18.155  0.00  0.00    +0.000 NA
ATOM      5  C   UNL     1       3.334   5.855  18.436  0.00  0.00    +0.000 A 
ATOM      6  C   UNL     1       2.818   4.552  18.563  0.00  0.00    +0.000 A 
ATOM      7  C   UNL     1       1.488   4.174  18.919  0.00  0.00    +0.000 A 
ATOM      8  C   UNL     1       1.096   2.840  18.978  0.00  0.00    +0.000 A 
ATOM      9  C   UNL     1       2.034   1.851  18.731  0.00  0.00    +0.000 A 
ATOM     10  C   UNL     1       3.348   2.213  18.422  0.00  0.00    +0.000 A 
ATOM     11  C   UNL     1       3.756   3.539  18.330  0.00  0.00    +0.000 A 
ATOM     12  N   UNL     1       5.036   3.778  18.035  0.00  0.00    +0.000 NA
ENDROOT
BRANCH   5  13
ATOM     13  C   UNL     1       2.554   7.102  18.655  0.00  0.00    +0.000 A 
ATOM     14  C   UNL     1       2.052   7.484  19.911  0.00  0.00    +0.000 A 
ATOM     15  C   UNL     1       1.447   8.732  20.105  0.00  0.00    +0.000 A 
ATOM     16  C   UNL     1       1.265   9.600  19.033  0.00  0.00    +0.000 A 
ATOM     17  C   UNL     1       1.608   9.178  17.752  0.00  0.00    +0.000 A 
ATOM     18  C   UNL     1       2.275   7.960  17.575  0.00  0.00    +0.000 A 
BRANCH  16  19
ATOM     19  O   UNL     1       0.681  10.809  19.329  0.00  0.00    +0.000 OA
BRANCH  19  20
ATOM     20  C   UNL     1       1.456  11.934  19.503  0.00  0.00    +0.000 A 
ATOM     21  C   UNL     1       2.075  12.421  18.348  0.00  0.00    +0.000 A 
ATOM     22  C   UNL     1       2.894  13.549  18.412  0.00  0.00    +0.000 A 
ATOM     23  C   UNL     1       3.085  14.185  19.634  0.00  0.00    +0.000 A 
ATOM     24  F   UNL     1       3.892  15.251  19.704  0.00  0.00    +0.000 F 
ATOM     25  C   UNL     1       2.444  13.736  20.783  0.00  0.00    +0.000 A 
ATOM     26  C   UNL     1       1.603  12.624  20.712  0.00  0.00    +0.000 A 
ENDBRANCH  19  20
ENDBRANCH  16  19
ENDBRANCH   5  13
BRANCH   2  27
ATOM     27  N   UNL     1       7.761   4.208  17.872  0.00  0.00    +0.000 NA
ATOM     28  H   UNL     1       8.702   4.506  17.613  0.00  0.00    +0.000 HD
ATOM     29  H   UNL     1       7.509   3.476  17.199  0.00  0.00    +0.000 HD
ENDBRANCH   2  27
TORSDOF 4
ENDMDL
