MODEL 1
REMARK VINA RESULT:      -7.9      0.000      0.000
REMARK  Name = 
REMARK  4 active torsions:
REMARK  status: ('A' for Active; 'I' for Inactive)
REMARK    1  A    between atoms: C_5  and  O_6
REMARK    2  A    between atoms: C_13  and  O_14
REMARK    3  A    between atoms: N_17  and  C_18
REMARK    4  A    between atoms: C_18  and  C_19
REMARK                            x       y       z     vdW  Elec       q    Type
REMARK                         _______ _______ _______ _____ _____    ______ ____
ROOT
ATOM      1  O   UNL     1       1.701   6.040  20.961  0.00  0.00    +0.000 OA
ATOM      2  C   UNL     1       1.905   6.842  20.072  0.00  0.00    +0.000 C 
ATOM      3  C   UNL     1       1.574   8.272  20.105  0.00  0.00    +0.000 A 
ATOM      4  C   UNL     1       1.929   8.800  18.883  0.00  0.00    +0.000 A 
ATOM      5  C   UNL     1       1.745  10.134  18.572  0.00  0.00    +0.000 A 
ATOM      6  C   UNL     1       1.185  10.986  19.534  0.00  0.00    +0.000 A 
ATOM      7  N   UNL     1       0.995  12.302  19.288  0.00  0.00    +0.000 NA
ATOM      8  C   UNL     1       0.450  13.048  20.271  0.00  0.00    +0.000 A 
ATOM      9  C   UNL     1       0.085  12.508  21.486  0.00  0.00    +0.000 A 
ATOM     10  N   UNL     1       0.255  11.197  21.772  0.00  0.00    +0.000 NA
ATOM     11  C   UNL     1       0.806  10.438  20.800  0.00  0.00    +0.000 A 
ATOM     12  C   UNL     1       1.005   9.080  21.063  0.00  0.00    +0.000 A 
ATOM     13  C   UNL     1       2.468   7.723  18.068  0.00  0.00    +0.000 C 
ATOM     14  O   UNL     1       2.811   7.884  16.911  0.00  0.00    +0.000 OA
ATOM     15  N   UNL     1       2.450   6.600  18.838  0.00  0.00    +0.000 N 
ENDROOT
BRANCH   5  16
ATOM     16  O   UNL     1       2.104  10.621  17.341  0.00  0.00    +0.000 OA
ATOM     17  H   UNL     1       1.321  11.006  16.894  0.00  0.00    +0.000 HD
ENDBRANCH   5  16
BRANCH  12  18
ATOM     18  O   UNL     1       0.625   8.575  22.276  0.00  0.00    +0.000 OA
ATOM     19  H   UNL     1       1.155   9.061  22.944  0.00  0.00    +0.000 HD
ENDBRANCH  12  18
BRANCH  15  20
ATOM     20  C   UNL     1       2.826   5.287  18.368  0.00  0.00    +0.000 C 
BRANCH  20  21
ATOM     21  C   UNL     1       4.277   5.195  17.958  0.00  0.00    +0.000 A 
ATOM     22  C   UNL     1       5.298   5.515  18.867  0.00  0.00    +0.000 A 
ATOM     23  C   UNL     1       6.638   5.351  18.509  0.00  0.00    +0.000 A 
ATOM     24 CL   UNL     1       7.876   5.709  19.648  0.00  0.00    +0.000 Cl
ATOM     25  C   UNL     1       6.983   4.879  17.245  0.00  0.00    +0.000 A 
ATOM     26  C   UNL     1       5.975   4.592  16.329  0.00  0.00    +0.000 A 
ATOM     27 CL   UNL     1       6.388   4.000  14.767  0.00  0.00    +0.000 Cl
ATOM     28  C   UNL     1       4.630   4.756  16.673  0.00  0.00    +0.000 A 
ENDBRANCH  20  21
ENDBRANCH  15  20
TORSDOF 4
ENDMDL
MODEL 2
REMARK VINA RESULT:      -7.8      0.197      1.770
REMARK  Name = 
REMARK  4 active torsions:
REMARK  status: ('A' for Active; 'I' for Inactive)
REMARK    1  A    between atoms: C_5  and  O_6
REMARK    2  A    between atoms: C_13  and  O_14
REMARK    3  A    between atoms: N_17  and  C_18
REMARK    4  A    between atoms: C_18  and  C_19
REMARK                            x       y       z     vdW  Elec       q    Type
REMARK                         _______ _______ _______ _____ _____    ______ ____
ROOT
ATOM      1  O   UNL     1       1.743   5.963  20.838  0.00  0.00    +0.000 OA
ATOM      2  C   UNL     1       1.947   6.789  19.970  0.00  0.00    +0.000 C 
ATOM      3  C   UNL     1       1.603   8.214  20.035  0.00  0.00    +0.000 A 
ATOM      4  C   UNL     1       1.963   8.775  18.830  0.00  0.00    +0.000 A 
ATOM      5  C   UNL     1       1.770  10.114  18.550  0.00  0.00    +0.000 A 
ATOM      6  C   UNL     1       1.193  10.937  19.528  0.00  0.00    +0.000 A 
ATOM      7  N   UNL     1       0.994  12.258  19.312  0.00  0.00    +0.000 NA
ATOM      8  C   UNL     1       0.434  12.974  20.308  0.00  0.00    +0.000 A 
ATOM      9  C   UNL     1       0.064  12.401  21.506  0.00  0.00    +0.000 A 
ATOM     10  N   UNL     1       0.244  11.085  21.762  0.00  0.00    +0.000 NA
ATOM     11  C   UNL     1       0.810  10.355  20.776  0.00  0.00    +0.000 A 
ATOM     12  C   UNL     1       1.019   8.994  21.008  0.00  0.00    +0.000 A 
ATOM     13  C   UNL     1       2.518   7.723  17.993  0.00  0.00    +0.000 C 
ATOM     14  O   UNL     1       2.870   7.915  16.844  0.00  0.00    +0.000 OA
ATOM     15  N   UNL     1       2.504   6.582  18.735  0.00  0.00    +0.000 N 
ENDROOT
BRANCH   5  16
ATOM     16  O   UNL     1       2.134  10.635  17.334  0.00  0.00    +0.000 OA
ATOM     17  H   UNL     1       2.044  11.611  17.348  0.00  0.00    +0.000 HD
ENDBRANCH   5  16
BRANCH  12  18
ATOM     18  O   UNL     1       0.633   8.455  22.205  0.00  0.00    +0.000 OA
ATOM     19  H   UNL     1       1.462   8.306  22.708  0.00  0.00    +0.000 HD
ENDBRANCH  12  18
BRANCH  15  20
ATOM     20  C   UNL     1       2.897   5.284  18.236  0.00  0.00    +0.000 C 
BRANCH  20  21
ATOM     21  C   UNL     1       4.372   5.186  17.927  0.00  0.00    +0.000 A 
ATOM     22  C   UNL     1       4.813   4.904  16.624  0.00  0.00    +0.000 A 
ATOM     23  C   UNL     1       6.177   4.896  16.328  0.00  0.00    +0.000 A 
ATOM     24 CL   UNL     1       6.699   4.588  14.717  0.00  0.00    +0.000 Cl
ATOM     25  C   UNL     1       7.122   5.155  17.318  0.00  0.00    +0.000 A 
ATOM     26  C   UNL     1       6.690   5.402  18.618  0.00  0.00    +0.000 A 
ATOM     27 CL   UNL     1       7.847   5.733  19.849  0.00  0.00    +0.000 Cl
ATOM     28  C   UNL     1       5.328   5.409  18.930  0.00  0.00    +0.000 A 
ENDBRANCH  20  21
ENDBRANCH  15  20
TORSDOF 4
ENDMDL
MODEL 3
REMARK VINA RESULT:      -7.6      4.046      7.465
REMARK  Name = 
REMARK  4 active torsions:
REMARK  status: ('A' for Active; 'I' for Inactive)
REMARK    1  A    between atoms: C_5  and  O_6
REMARK    2  A    between atoms: C_13  and  O_14
REMARK    3  A    between atoms: N_17  and  C_18
REMARK    4  A    between atoms: C_18  and  C_19
REMARK                            x       y       z     vdW  Elec       q    Type
REMARK                         _______ _______ _______ _____ _____    ______ ____
ROOT
ATOM      1  O   UNL     1       0.750   8.395  21.332  0.00  0.00    +0.000 OA
ATOM      2  C   UNL     1       1.285   8.451  20.244  0.00  0.00    +0.000 C 
ATOM      3  C   UNL     1       2.100   7.398  19.626  0.00  0.00    +0.000 A 
ATOM      4  C   UNL     1       2.551   7.886  18.419  0.00  0.00    +0.000 A 
ATOM      5  C   UNL     1       3.358   7.147  17.577  0.00  0.00    +0.000 A 
ATOM      6  C   UNL     1       3.729   5.849  17.956  0.00  0.00    +0.000 A 
ATOM      7  N   UNL     1       4.506   5.077  17.163  0.00  0.00    +0.000 NA
ATOM      8  C   UNL     1       4.814   3.840  17.606  0.00  0.00    +0.000 A 
ATOM      9  C   UNL     1       4.369   3.364  18.822  0.00  0.00    +0.000 A 
ATOM     10  N   UNL     1       3.593   4.105  19.645  0.00  0.00    +0.000 NA
ATOM     11  C   UNL     1       3.270   5.344  19.212  0.00  0.00    +0.000 A 
ATOM     12  C   UNL     1       2.462   6.134  20.033  0.00  0.00    +0.000 A 
ATOM     13  C   UNL     1       2.046   9.242  18.267  0.00  0.00    +0.000 C 
ATOM     14  O   UNL     1       2.333   9.947  17.317  0.00  0.00    +0.000 OA
ATOM     15  N   UNL     1       1.285   9.504  19.365  0.00  0.00    +0.000 N 
ENDROOT
BRANCH   5  16
ATOM     16  O   UNL     1       3.794   7.672  16.387  0.00  0.00    +0.000 OA
ATOM     17  H   UNL     1       3.370   7.200  15.639  0.00  0.00    +0.000 HD
ENDBRANCH   5  16
BRANCH  12  18
ATOM     18  O   UNL     1       2.045   5.634  21.236  0.00  0.00    +0.000 OA
ATOM     19  H   UNL     1       2.859   5.336  21.696  0.00  0.00    +0.000 HD
ENDBRANCH  12  18
BRANCH  15  20
ATOM     20  C   UNL     1       0.669  10.782  19.641  0.00  0.00    +0.000 C 
BRANCH  20  21
ATOM     21  C   UNL     1      -0.735  10.895  19.095  0.00  0.00    +0.000 A 
ATOM     22  C   UNL     1      -1.696  11.680  19.751  0.00  0.00    +0.000 A 
ATOM     23  C   UNL     1      -2.967  11.847  19.197  0.00  0.00    +0.000 A 
ATOM     24 CL   UNL     1      -4.121  12.845  19.993  0.00  0.00    +0.000 Cl
ATOM     25  C   UNL     1      -3.306  11.229  17.995  0.00  0.00    +0.000 A 
ATOM     26  C   UNL     1      -2.367  10.423  17.359  0.00  0.00    +0.000 A 
ATOM     27 CL   UNL     1      -2.771   9.662  15.869  0.00  0.00    +0.000 Cl
ATOM     28  C   UNL     1      -1.093  10.244  17.904  0.00  0.00    +0.000 A 
ENDBRANCH  20  21
ENDBRANCH  15  20
TORSDOF 4
ENDMDL
MODEL 4
REMARK VINA RESULT:      -7.5      4.006      7.627
REMARK  Name = 
REMARK  4 active torsions:
REMARK  status: ('A' for Active; 'I' for Inactive)
REMARK    1  A    between atoms: C_5  and  O_6
REMARK    2  A    between atoms: C_13  and  O_14
REMARK    3  A    between atoms: N_17  and  C_18
REMARK    4  A    between atoms: C_18  and  C_19
REMARK                            x       y       z     vdW  Elec       q    Type
REMARK                         _______ _______ _______ _____ _____    ______ ____
ROOT
ATOM      1  O   UNL     1       0.792   8.299  21.463  0.00  0.00    +0.000 OA
ATOM      2  C   UNL     1       1.299   8.386  20.363  0.00  0.00    +0.000 C 
ATOM      3  C   UNL     1       2.079   7.343  19.685  0.00  0.00    +0.000 A 
ATOM      4  C   UNL     1       2.504   7.868  18.485  0.00  0.00    +0.000 A 
ATOM      5  C   UNL     1       3.275   7.147  17.594  0.00  0.00    +0.000 A 
ATOM      6  C   UNL     1       3.634   5.830  17.915  0.00  0.00    +0.000 A 
ATOM      7  N   UNL     1       4.376   5.075  17.073  0.00  0.00    +0.000 NA
ATOM      8  C   UNL     1       4.675   3.818  17.463  0.00  0.00    +0.000 A 
ATOM      9  C   UNL     1       4.255   3.306  18.673  0.00  0.00    +0.000 A 
ATOM     10  N   UNL     1       3.515   4.028  19.544  0.00  0.00    +0.000 NA
ATOM     11  C   UNL     1       3.202   5.287  19.165  0.00  0.00    +0.000 A 
ATOM     12  C   UNL     1       2.430   6.059  20.036  0.00  0.00    +0.000 A 
ATOM     13  C   UNL     1       2.018   9.236  18.396  0.00  0.00    +0.000 C 
ATOM     14  O   UNL     1       2.291   9.970  17.464  0.00  0.00    +0.000 OA
ATOM     15  N   UNL     1       1.292   9.470  19.524  0.00  0.00    +0.000 N 
ENDROOT
BRANCH   5  16
ATOM     16  O   UNL     1       3.686   7.707  16.411  0.00  0.00    +0.000 OA
ATOM     17  H   UNL     1       3.339   8.621  16.336  0.00  0.00    +0.000 HD
ENDBRANCH   5  16
BRANCH  12  18
ATOM     18  O   UNL     1       2.037   5.523  21.232  0.00  0.00    +0.000 OA
ATOM     19  H   UNL     1       2.821   5.042  21.576  0.00  0.00    +0.000 HD
ENDBRANCH  12  18
BRANCH  15  20
ATOM     20  C   UNL     1       0.706  10.746  19.862  0.00  0.00    +0.000 C 
BRANCH  20  21
ATOM     21  C   UNL     1      -0.654  10.960  19.239  0.00  0.00    +0.000 A 
ATOM     22  C   UNL     1      -1.005  10.306  18.048  0.00  0.00    +0.000 A 
ATOM     23  C   UNL     1      -2.291  10.443  17.520  0.00  0.00    +0.000 A 
ATOM     24 CL   UNL     1      -2.718   9.602  16.082  0.00  0.00    +0.000 Cl
ATOM     25  C   UNL     1      -3.240  11.238  18.158  0.00  0.00    +0.000 A 
ATOM     26  C   UNL     1      -2.885  11.915  19.322  0.00  0.00    +0.000 A 
ATOM     27 CL   UNL     1      -4.052  12.894  20.125  0.00  0.00    +0.000 Cl
ATOM     28  C   UNL     1      -1.601  11.790  19.858  0.00  0.00    +0.000 A 
ENDBRANCH  20  21
ENDBRANCH  15  20
TORSDOF 4
ENDMDL
MODEL 5
REMARK VINA RESULT:      -7.4      0.288      2.473
REMARK  Name = 
REMARK  4 active torsions:
REMARK  status: ('A' for Active; 'I' for Inactive)
REMARK    1  A    between atoms: C_5  and  O_6
REMARK    2  A    between atoms: C_13  and  O_14
REMARK    3  A    between atoms: N_17  and  C_18
REMARK    4  A    between atoms: C_18  and  C_19
REMARK                            x       y       z     vdW  Elec       q    Type
REMARK                         _______ _______ _______ _____ _____    ______ ____
ROOT
ATOM      1  O   UNL     1       2.964   7.796  16.761  0.00  0.00    +0.000 OA
ATOM      2  C   UNL     1       2.519   7.670  17.884  0.00  0.00    +0.000 C 
ATOM      3  C   UNL     1       1.973   8.743  18.722  0.00  0.00    +0.000 A 
ATOM      4  C   UNL     1       1.624   8.179  19.930  0.00  0.00    +0.000 A 
ATOM      5  C   UNL     1       1.079   8.918  20.962  0.00  0.00    +0.000 A 
ATOM      6  C   UNL     1       0.865  10.291  20.776  0.00  0.00    +0.000 A 
ATOM      7  N   UNL     1       0.322  11.059  21.748  0.00  0.00    +0.000 NA
ATOM      8  C   UNL     1       0.152  12.371  21.483  0.00  0.00    +0.000 A 
ATOM      9  C   UNL     1       0.516  12.930  20.277  0.00  0.00    +0.000 A 
ATOM     10  N   UNL     1       1.064  12.198  19.280  0.00  0.00    +0.000 NA
ATOM     11  C   UNL     1       1.235  10.881  19.527  0.00  0.00    +0.000 A 
ATOM     12  C   UNL     1       1.790  10.092  18.517  0.00  0.00    +0.000 A 
ATOM     13  C   UNL     1       1.955   6.763  19.876  0.00  0.00    +0.000 C 
ATOM     14  O   UNL     1       1.809   6.019  20.828  0.00  0.00    +0.000 OA
ATOM     15  N   UNL     1       2.454   6.523  18.633  0.00  0.00    +0.000 N 
ENDROOT
BRANCH   5  16
ATOM     16  O   UNL     1       0.752   8.322  22.153  0.00  0.00    +0.000 OA
ATOM     17  H   UNL     1       1.514   8.365  22.769  0.00  0.00    +0.000 HD
ENDBRANCH   5  16
BRANCH  12  18
ATOM     18  O   UNL     1       2.148  10.680  17.334  0.00  0.00    +0.000 OA
ATOM     19  H   UNL     1       2.639  11.493  17.581  0.00  0.00    +0.000 HD
ENDBRANCH  12  18
BRANCH  15  20
ATOM     20  C   UNL     1       2.982   5.249  18.201  0.00  0.00    +0.000 C 
BRANCH  20  21
ATOM     21  C   UNL     1       4.457   5.296  17.876  0.00  0.00    +0.000 A 
ATOM     22  C   UNL     1       5.405   5.518  18.887  0.00  0.00    +0.000 A 
ATOM     23  C   UNL     1       6.770   5.479  18.595  0.00  0.00    +0.000 A 
ATOM     24 CL   UNL     1       7.920   5.713  19.853  0.00  0.00    +0.000 Cl
ATOM     25  C   UNL     1       7.212   5.232  17.297  0.00  0.00    +0.000 A 
ATOM     26  C   UNL     1       6.275   5.045  16.286  0.00  0.00    +0.000 A 
ATOM     27 CL   UNL     1       6.809   4.730  14.680  0.00  0.00    +0.000 Cl
ATOM     28  C   UNL     1       4.906   5.086  16.564  0.00  0.00    +0.000 A 
ENDBRANCH  20  21
ENDBRANCH  15  20
TORSDOF 4
ENDMDL
MODEL 6
REMARK VINA RESULT:      -7.3      4.001      7.812
REMARK  Name = 
REMARK  4 active torsions:
REMARK  status: ('A' for Active; 'I' for Inactive)
REMARK    1  A    between atoms: C_5  and  O_6
REMARK    2  A    between atoms: C_13  and  O_14
REMARK    3  A    between atoms: N_17  and  C_18
REMARK    4  A    between atoms: C_18  and  C_19
REMARK                            x       y       z     vdW  Elec       q    Type
REMARK                         _______ _______ _______ _____ _____    ______ ____
ROOT
ATOM      1  O   UNL     1       2.343  10.149  17.362  0.00  0.00    +0.000 OA
ATOM      2  C   UNL     1       2.129   9.397  18.291  0.00  0.00    +0.000 C 
ATOM      3  C   UNL     1       2.566   7.999  18.390  0.00  0.00    +0.000 A 
ATOM      4  C   UNL     1       2.074   7.502  19.577  0.00  0.00    +0.000 A 
ATOM      5  C   UNL     1       2.297   6.200  19.983  0.00  0.00    +0.000 A 
ATOM      6  C   UNL     1       3.057   5.353  19.164  0.00  0.00    +0.000 A 
ATOM      7  N   UNL     1       3.317   4.074  19.519  0.00  0.00    +0.000 NA
ATOM      8  C   UNL     1       4.056   3.330  18.671  0.00  0.00    +0.000 A 
ATOM      9  C   UNL     1       4.533   3.832  17.478  0.00  0.00    +0.000 A 
ATOM     10  N   UNL     1       4.293   5.103  17.084  0.00  0.00    +0.000 NA
ATOM     11  C   UNL     1       3.559   5.864  17.927  0.00  0.00    +0.000 A 
ATOM     12  C   UNL     1       3.300   7.185  17.557  0.00  0.00    +0.000 A 
ATOM     13  C   UNL     1       1.318   8.560  20.228  0.00  0.00    +0.000 C 
ATOM     14  O   UNL     1       0.717   8.390  21.273  0.00  0.00    +0.000 OA
ATOM     15  N   UNL     1       1.412   9.659  19.430  0.00  0.00    +0.000 N 
ENDROOT
BRANCH   5  16
ATOM     16  O   UNL     1       1.784   5.739  21.168  0.00  0.00    +0.000 OA
ATOM     17  H   UNL     1       2.383   5.978  21.907  0.00  0.00    +0.000 HD
ENDBRANCH   5  16
BRANCH  12  18
ATOM     18  O   UNL     1       3.781   7.649  16.363  0.00  0.00    +0.000 OA
ATOM     19  H   UNL     1       3.010   8.049  15.905  0.00  0.00    +0.000 HD
ENDBRANCH  12  18
BRANCH  15  20
ATOM     20  C   UNL     1       0.725  10.906  19.679  0.00  0.00    +0.000 C 
BRANCH  20  21
ATOM     21  C   UNL     1      -0.676  10.936  19.115  0.00  0.00    +0.000 A 
ATOM     22  C   UNL     1      -1.685  11.681  19.746  0.00  0.00    +0.000 A 
ATOM     23  C   UNL     1      -2.956  11.771  19.176  0.00  0.00    +0.000 A 
ATOM     24 CL   UNL     1      -4.169  12.721  19.941  0.00  0.00    +0.000 Cl
ATOM     25  C   UNL     1      -3.248  11.117  17.981  0.00  0.00    +0.000 A 
ATOM     26  C   UNL     1      -2.260  10.350  17.370  0.00  0.00    +0.000 A 
ATOM     27 CL   UNL     1      -2.605   9.544  15.888  0.00  0.00    +0.000 Cl
ATOM     28  C   UNL     1      -0.985  10.248  17.932  0.00  0.00    +0.000 A 
ENDBRANCH  20  21
ENDBRANCH  15  20
TORSDOF 4
ENDMDL
MODEL 7
REMARK VINA RESULT:      -7.3      0.327      3.035
REMARK  Name = 
REMARK  4 active torsions:
REMARK  status: ('A' for Active; 'I' for Inactive)
REMARK    1  A    between atoms: C_5  and  O_6
REMARK    2  A    between atoms: C_13  and  O_14
REMARK    3  A    between atoms: N_17  and  C_18
REMARK    4  A    between atoms: C_18  and  C_19
REMARK                            x       y       z     vdW  Elec       q    Type
REMARK                         _______ _______ _______ _____ _____    ______ ____
ROOT
ATOM      1  O   UNL     1       2.942   7.731  16.748  0.00  0.00    +0.000 OA
ATOM      2  C   UNL     1       2.503   7.626  17.875  0.00  0.00    +0.000 C 
ATOM      3  C   UNL     1       1.982   8.719  18.705  0.00  0.00    +0.000 A 
ATOM      4  C   UNL     1       1.632   8.175  19.922  0.00  0.00    +0.000 A 
ATOM      5  C   UNL     1       1.109   8.935  20.950  0.00  0.00    +0.000 A 
ATOM      6  C   UNL     1       0.917  10.310  20.749  0.00  0.00    +0.000 A 
ATOM      7  N   UNL     1       0.396  11.098  21.716  0.00  0.00    +0.000 NA
ATOM      8  C   UNL     1       0.246  12.410  21.437  0.00  0.00    +0.000 A 
ATOM      9  C   UNL     1       0.611  12.948  20.221  0.00  0.00    +0.000 A 
ATOM     10  N   UNL     1       1.138  12.195  19.229  0.00  0.00    +0.000 NA
ATOM     11  C   UNL     1       1.288  10.878  19.491  0.00  0.00    +0.000 A 
ATOM     12  C   UNL     1       1.821  10.068  18.486  0.00  0.00    +0.000 A 
ATOM     13  C   UNL     1       1.938   6.753  19.882  0.00  0.00    +0.000 C 
ATOM     14  O   UNL     1       1.787   6.022  20.844  0.00  0.00    +0.000 OA
ATOM     15  N   UNL     1       2.423   6.490  18.638  0.00  0.00    +0.000 N 
ENDROOT
BRANCH   5  16
ATOM     16  O   UNL     1       0.781   8.358  22.150  0.00  0.00    +0.000 OA
ATOM     17  H   UNL     1       1.502   7.763  22.443  0.00  0.00    +0.000 HD
ENDBRANCH   5  16
BRANCH  12  18
ATOM     18  O   UNL     1       2.181  10.635  17.294  0.00  0.00    +0.000 OA
ATOM     19  H   UNL     1       2.430  11.561  17.505  0.00  0.00    +0.000 HD
ENDBRANCH  12  18
BRANCH  15  20
ATOM     20  C   UNL     1       2.926   5.201  18.218  0.00  0.00    +0.000 C 
BRANCH  20  21
ATOM     21  C   UNL     1       4.403   5.214  17.902  0.00  0.00    +0.000 A 
ATOM     22  C   UNL     1       4.853   5.054  16.582  0.00  0.00    +0.000 A 
ATOM     23  C   UNL     1       6.214   5.148  16.284  0.00  0.00    +0.000 A 
ATOM     24 CL   UNL     1       6.745   4.991  14.655  0.00  0.00    +0.000 Cl
ATOM     25  C   UNL     1       7.147   5.389  17.290  0.00  0.00    +0.000 A 
ATOM     26  C   UNL     1       6.708   5.514  18.606  0.00  0.00    +0.000 A 
ATOM     27 CL   UNL     1       7.850   5.820  19.857  0.00  0.00    +0.000 Cl
ATOM     28  C   UNL     1       5.350   5.418  18.918  0.00  0.00    +0.000 A 
ENDBRANCH  20  21
ENDBRANCH  15  20
TORSDOF 4
ENDMDL
MODEL 8
REMARK VINA RESULT:      -7.1      4.006      7.964
REMARK  Name = 
REMARK  4 active torsions:
REMARK  status: ('A' for Active; 'I' for Inactive)
REMARK    1  A    between atoms: C_5  and  O_6
REMARK    2  A    between atoms: C_13  and  O_14
REMARK    3  A    between atoms: N_17  and  C_18
REMARK    4  A    between atoms: C_18  and  C_19
REMARK                            x       y       z     vdW  Elec       q    Type
REMARK                         _______ _______ _______ _____ _____    ______ ____
ROOT
ATOM      1  O   UNL     1       2.267  10.271  17.420  0.00  0.00    +0.000 OA
ATOM      2  C   UNL     1       2.049   9.511  18.342  0.00  0.00    +0.000 C 
ATOM      3  C   UNL     1       2.488   8.114  18.433  0.00  0.00    +0.000 A 
ATOM      4  C   UNL     1       1.992   7.607  19.614  0.00  0.00    +0.000 A 
ATOM      5  C   UNL     1       2.215   6.303  20.011  0.00  0.00    +0.000 A 
ATOM      6  C   UNL     1       2.980   5.463  19.189  0.00  0.00    +0.000 A 
ATOM      7  N   UNL     1       3.240   4.182  19.536  0.00  0.00    +0.000 NA
ATOM      8  C   UNL     1       3.984   3.445  18.685  0.00  0.00    +0.000 A 
ATOM      9  C   UNL     1       4.465   3.957  17.499  0.00  0.00    +0.000 A 
ATOM     10  N   UNL     1       4.225   5.230  17.113  0.00  0.00    +0.000 NA
ATOM     11  C   UNL     1       3.487   5.984  17.958  0.00  0.00    +0.000 A 
ATOM     12  C   UNL     1       3.227   7.308  17.597  0.00  0.00    +0.000 A 
ATOM     13  C   UNL     1       1.231   8.660  20.270  0.00  0.00    +0.000 C 
ATOM     14  O   UNL     1       0.626   8.481  21.310  0.00  0.00    +0.000 OA
ATOM     15  N   UNL     1       1.327   9.764  19.480  0.00  0.00    +0.000 N 
ENDROOT
BRANCH   5  16
ATOM     16  O   UNL     1       1.697   5.832  21.191  0.00  0.00    +0.000 OA
ATOM     17  H   UNL     1       0.900   6.347  21.435  0.00  0.00    +0.000 HD
ENDBRANCH   5  16
BRANCH  12  18
ATOM     18  O   UNL     1       3.712   7.781  16.409  0.00  0.00    +0.000 OA
ATOM     19  H   UNL     1       3.284   8.654  16.276  0.00  0.00    +0.000 HD
ENDBRANCH  12  18
BRANCH  15  20
ATOM     20  C   UNL     1       0.638  11.008  19.736  0.00  0.00    +0.000 C 
BRANCH  20  21
ATOM     21  C   UNL     1      -0.733  11.069  19.104  0.00  0.00    +0.000 A 
ATOM     22  C   UNL     1      -1.012  10.351  17.930  0.00  0.00    +0.000 A 
ATOM     23  C   UNL     1      -2.302  10.346  17.396  0.00  0.00    +0.000 A 
ATOM     24 CL   UNL     1      -2.636   9.429  15.980  0.00  0.00    +0.000 Cl
ATOM     25  C   UNL     1      -3.329  11.059  18.011  0.00  0.00    +0.000 A 
ATOM     26  C   UNL     1      -3.049  11.799  19.157  0.00  0.00    +0.000 A 
ATOM     27 CL   UNL     1      -4.311  12.677  19.930  0.00  0.00    +0.000 Cl
ATOM     28  C   UNL     1      -1.761  11.816  19.698  0.00  0.00    +0.000 A 
ENDBRANCH  20  21
ENDBRANCH  15  20
TORSDOF 4
ENDMDL
MODEL 9
REMARK VINA RESULT:      -7.1      4.256      6.615
REMARK  Name = 
REMARK  4 active torsions:
REMARK  status: ('A' for Active; 'I' for Inactive)
REMARK    1  A    between atoms: C_5  and  O_6
REMARK    2  A    between atoms: C_13  and  O_14
REMARK    3  A    between atoms: N_17  and  C_18
REMARK    4  A    between atoms: C_18  and  C_19
REMARK                            x       y       z     vdW  Elec       q    Type
REMARK                         _______ _______ _______ _____ _____    ______ ____
ROOT
ATOM      1  O   UNL     1       5.237   7.012  15.058  0.00  0.00    +0.000 OA
ATOM      2  C   UNL     1       5.117   5.921  15.578  0.00  0.00    +0.000 C 
ATOM      3  C   UNL     1       4.417   5.634  16.836  0.00  0.00    +0.000 A 
ATOM      4  C   UNL     1       4.559   4.287  17.084  0.00  0.00    +0.000 A 
ATOM      5  C   UNL     1       4.022   3.679  18.202  0.00  0.00    +0.000 A 
ATOM      6  C   UNL     1       3.296   4.456  19.116  0.00  0.00    +0.000 A 
ATOM      7  N   UNL     1       2.737   3.910  20.219  0.00  0.00    +0.000 NA
ATOM      8  C   UNL     1       2.056   4.733  21.045  0.00  0.00    +0.000 A 
ATOM      9  C   UNL     1       1.929   6.083  20.795  0.00  0.00    +0.000 A 
ATOM     10  N   UNL     1       2.475   6.669  19.705  0.00  0.00    +0.000 NA
ATOM     11  C   UNL     1       3.155   5.857  18.865  0.00  0.00    +0.000 A 
ATOM     12  C   UNL     1       3.725   6.426  17.724  0.00  0.00    +0.000 A 
ATOM     13  C   UNL     1       5.355   3.714  16.008  0.00  0.00    +0.000 C 
ATOM     14  O   UNL     1       5.692   2.545  15.993  0.00  0.00    +0.000 OA
ATOM     15  N   UNL     1       5.628   4.726  15.140  0.00  0.00    +0.000 N 
ENDROOT
BRANCH   5  16
ATOM     16  O   UNL     1       4.192   2.336  18.418  0.00  0.00    +0.000 OA
ATOM     17  H   UNL     1       5.087   2.061  18.125  0.00  0.00    +0.000 HD
ENDBRANCH   5  16
BRANCH  12  18
ATOM     18  O   UNL     1       3.587   7.771  17.511  0.00  0.00    +0.000 OA
ATOM     19  H   UNL     1       3.042   7.856  16.699  0.00  0.00    +0.000 HD
ENDBRANCH  12  18
BRANCH  15  20
ATOM     20  C   UNL     1       6.472   4.591  13.974  0.00  0.00    +0.000 C 
BRANCH  20  21
ATOM     21  C   UNL     1       5.847   3.754  12.883  0.00  0.00    +0.000 A 
ATOM     22  C   UNL     1       4.784   4.258  12.116  0.00  0.00    +0.000 A 
ATOM     23  C   UNL     1       4.264   3.513  11.056  0.00  0.00    +0.000 A 
ATOM     24 CL   UNL     1       2.989   4.162  10.100  0.00  0.00    +0.000 Cl
ATOM     25  C   UNL     1       4.782   2.257  10.748  0.00  0.00    +0.000 A 
ATOM     26  C   UNL     1       5.814   1.740  11.526  0.00  0.00    +0.000 A 
ATOM     27 CL   UNL     1       6.468   0.192  11.151  0.00  0.00    +0.000 Cl
ATOM     28  C   UNL     1       6.340   2.473  12.593  0.00  0.00    +0.000 A 
ENDBRANCH  20  21
ENDBRANCH  15  20
TORSDOF 4
ENDMDL
