MODEL 1
REMARK VINA RESULT:      -6.8      0.000      0.000
REMARK  Name = 
REMARK  5 active torsions:
REMARK  status: ('A' for Active; 'I' for Inactive)
REMARK    1  A    between atoms: C_1  and  C_2
REMARK    2  A    between atoms: C_6  and  C_7
REMARK    3  A    between atoms: C_7  and  N_8
REMARK    4  A    between atoms: N_8  and  C_9
REMARK    5  A    between atoms: N_17  and  C_18
REMARK                            x       y       z     vdW  Elec       q    Type
REMARK                         _______ _______ _______ _____ _____    ______ ____
ROOT
ATOM      1  C   UNL     1       4.667   3.730  17.134  0.00  0.00    +0.000 C 
ATOM      2  C   UNL     1       5.208   3.611  15.677  0.00  0.00    +0.000 C 
ATOM      3  C   UNL     1       5.910   4.855  15.093  0.00  0.00    +0.000 C 
ATOM      4  C   UNL     1       6.852   5.632  16.025  0.00  0.00    +0.000 C 
ATOM      5  C   UNL     1       6.579   5.358  17.454  0.00  0.00    +0.000 A 
ATOM      6  C   UNL     1       5.638   4.488  17.984  0.00  0.00    +0.000 A 
ATOM      7  C   UNL     1       5.775   4.676  19.377  0.00  0.00    +0.000 A 
ATOM      8  N   UNL     1       6.736   5.540  19.697  0.00  0.00    +0.000 NA
ATOM      9  N   UNL     1       7.195   5.967  18.509  0.00  0.00    +0.000 N 
ATOM     10  C   UNL     1       8.152   7.047  18.474  0.00  0.00    +0.000 C 
ENDROOT
BRANCH   1  11
ATOM     11  N   UNL     1       4.409   2.348  17.572  0.00  0.00    +0.000 NA
ATOM     12  H   UNL     1       4.644   1.725  16.799  0.00  0.00    +0.000 HD
BRANCH  11  13
ATOM     13  C   UNL     1       3.033   2.057  17.960  0.00  0.00    +0.000 C 
BRANCH  13  19
ATOM     14  C   UNL     1       1.276   4.705  17.721  0.00  0.00    +0.000 C 
ATOM     15  C   UNL     1       1.765   4.092  18.994  0.00  0.00    +0.000 A 
ATOM     16  C   UNL     1       1.439   4.587  20.299  0.00  0.00    +0.000 A 
ATOM     17  C   UNL     1       1.981   3.824  21.307  0.00  0.00    +0.000 A 
ATOM     18  S   UNL     1       2.910   2.530  20.700  0.00  0.00    +0.000 S 
ATOM     19  C   UNL     1       2.562   2.956  19.076  0.00  0.00    +0.000 A 
ENDBRANCH  13  19
ENDBRANCH  11  13
ENDBRANCH   1  11
TORSDOF 3
ENDMDL
MODEL 2
REMARK VINA RESULT:      -6.7      1.807      2.256
REMARK  Name = 
REMARK  5 active torsions:
REMARK  status: ('A' for Active; 'I' for Inactive)
REMARK    1  A    between atoms: C_1  and  C_2
REMARK    2  A    between atoms: C_6  and  C_7
REMARK    3  A    between atoms: C_7  and  N_8
REMARK    4  A    between atoms: N_8  and  C_9
REMARK    5  A    between atoms: N_17  and  C_18
REMARK                            x       y       z     vdW  Elec       q    Type
REMARK                         _______ _______ _______ _____ _____    ______ ____
ROOT
ATOM      1  C   UNL     1       5.033   4.567  18.888  0.00  0.00    +0.000 C 
ATOM      2  C   UNL     1       4.128   4.741  17.631  0.00  0.00    +0.000 C 
ATOM      3  C   UNL     1       4.010   6.168  17.054  0.00  0.00    +0.000 C 
ATOM      4  C   UNL     1       5.292   7.011  16.996  0.00  0.00    +0.000 C 
ATOM      5  C   UNL     1       6.332   6.515  17.925  0.00  0.00    +0.000 A 
ATOM      6  C   UNL     1       6.265   5.407  18.757  0.00  0.00    +0.000 A 
ATOM      7  C   UNL     1       7.494   5.451  19.452  0.00  0.00    +0.000 A 
ATOM      8  N   UNL     1       8.278   6.457  19.066  0.00  0.00    +0.000 NA
ATOM      9  N   UNL     1       7.539   7.110  18.155  0.00  0.00    +0.000 N 
ATOM     10  C   UNL     1       8.022   8.366  17.631  0.00  0.00    +0.000 C 
ENDROOT
BRANCH   1  11
ATOM     11  N   UNL     1       5.281   3.119  18.996  0.00  0.00    +0.000 NA
ATOM     12  H   UNL     1       5.041   2.692  18.101  0.00  0.00    +0.000 HD
BRANCH  11  13
ATOM     13  C   UNL     1       4.516   2.425  20.027  0.00  0.00    +0.000 C 
BRANCH  13  19
ATOM     14  C   UNL     1       2.268   3.864  21.767  0.00  0.00    +0.000 C 
ATOM     15  C   UNL     1       2.044   3.130  20.483  0.00  0.00    +0.000 A 
ATOM     16  C   UNL     1       0.776   3.039  19.821  0.00  0.00    +0.000 A 
ATOM     17  C   UNL     1       0.843   2.342  18.637  0.00  0.00    +0.000 A 
ATOM     18  S   UNL     1       2.416   1.763  18.325  0.00  0.00    +0.000 S 
ATOM     19  C   UNL     1       3.034   2.477  19.757  0.00  0.00    +0.000 A 
ENDBRANCH  13  19
ENDBRANCH  11  13
ENDBRANCH   1  11
TORSDOF 3
ENDMDL
MODEL 3
REMARK VINA RESULT:      -6.5      1.808      2.622
REMARK  Name = 
REMARK  5 active torsions:
REMARK  status: ('A' for Active; 'I' for Inactive)
REMARK    1  A    between atoms: C_1  and  C_2
REMARK    2  A    between atoms: C_6  and  C_7
REMARK    3  A    between atoms: C_7  and  N_8
REMARK    4  A    between atoms: N_8  and  C_9
REMARK    5  A    between atoms: N_17  and  C_18
REMARK                            x       y       z     vdW  Elec       q    Type
REMARK                         _______ _______ _______ _____ _____    ______ ____
ROOT
ATOM      1  C   UNL     1       5.540   5.634  18.895  0.00  0.00    +0.000 C 
ATOM      2  C   UNL     1       4.152   6.175  18.437  0.00  0.00    +0.000 C 
ATOM      3  C   UNL     1       4.119   6.977  17.118  0.00  0.00    +0.000 C 
ATOM      4  C   UNL     1       4.976   6.453  15.956  0.00  0.00    +0.000 C 
ATOM      5  C   UNL     1       6.054   5.549  16.417  0.00  0.00    +0.000 A 
ATOM      6  C   UNL     1       6.313   5.133  17.715  0.00  0.00    +0.000 A 
ATOM      7  C   UNL     1       7.476   4.346  17.574  0.00  0.00    +0.000 A 
ATOM      8  N   UNL     1       7.886   4.236  16.311  0.00  0.00    +0.000 NA
ATOM      9  N   UNL     1       7.022   5.002  15.625  0.00  0.00    +0.000 N 
ATOM     10  C   UNL     1       7.262   5.245  14.222  0.00  0.00    +0.000 C 
ENDROOT
BRANCH   1  11
ATOM     11  N   UNL     1       5.248   4.618  19.919  0.00  0.00    +0.000 NA
ATOM     12  H   UNL     1       6.117   4.409  20.411  0.00  0.00    +0.000 HD
BRANCH  11  13
ATOM     13  C   UNL     1       4.720   3.353  19.417  0.00  0.00    +0.000 C 
BRANCH  13  19
ATOM     14  C   UNL     1       2.373   3.232  17.266  0.00  0.00    +0.000 C 
ATOM     15  C   UNL     1       2.207   3.127  18.748  0.00  0.00    +0.000 A 
ATOM     16  C   UNL     1       0.954   2.883  19.399  0.00  0.00    +0.000 A 
ATOM     17  C   UNL     1       1.075   2.791  20.767  0.00  0.00    +0.000 A 
ATOM     18  S   UNL     1       2.682   3.030  21.283  0.00  0.00    +0.000 S 
ATOM     19  C   UNL     1       3.241   3.219  19.673  0.00  0.00    +0.000 A 
ENDBRANCH  13  19
ENDBRANCH  11  13
ENDBRANCH   1  11
TORSDOF 3
ENDMDL
MODEL 4
REMARK VINA RESULT:      -6.5      2.557      3.126
REMARK  Name = 
REMARK  5 active torsions:
REMARK  status: ('A' for Active; 'I' for Inactive)
REMARK    1  A    between atoms: C_1  and  C_2
REMARK    2  A    between atoms: C_6  and  C_7
REMARK    3  A    between atoms: C_7  and  N_8
REMARK    4  A    between atoms: N_8  and  C_9
REMARK    5  A    between atoms: N_17  and  C_18
REMARK                            x       y       z     vdW  Elec       q    Type
REMARK                         _______ _______ _______ _____ _____    ______ ____
ROOT
ATOM      1  C   UNL     1       4.513   4.284  18.239  0.00  0.00    +0.000 C 
ATOM      2  C   UNL     1       5.684   4.571  17.251  0.00  0.00    +0.000 C 
ATOM      3  C   UNL     1       5.409   5.592  16.127  0.00  0.00    +0.000 C 
ATOM      4  C   UNL     1       4.612   6.851  16.500  0.00  0.00    +0.000 C 
ATOM      5  C   UNL     1       3.829   6.671  17.743  0.00  0.00    +0.000 A 
ATOM      6  C   UNL     1       3.790   5.553  18.564  0.00  0.00    +0.000 A 
ATOM      7  C   UNL     1       2.845   5.912  19.551  0.00  0.00    +0.000 A 
ATOM      8  N   UNL     1       2.370   7.147  19.397  0.00  0.00    +0.000 NA
ATOM      9  N   UNL     1       2.961   7.582  18.272  0.00  0.00    +0.000 N 
ATOM     10  C   UNL     1       2.552   8.847  17.710  0.00  0.00    +0.000 C 
ENDROOT
BRANCH   1  11
ATOM     11  N   UNL     1       5.129   3.610  19.394  0.00  0.00    +0.000 NA
ATOM     12  H   UNL     1       6.104   3.419  19.163  0.00  0.00    +0.000 HD
BRANCH  11  13
ATOM     13  C   UNL     1       4.520   2.342  19.781  0.00  0.00    +0.000 C 
BRANCH  13  19
ATOM     14  C   UNL     1       2.286   3.109  21.920  0.00  0.00    +0.000 C 
ATOM     15  C   UNL     1       2.038   2.721  20.497  0.00  0.00    +0.000 A 
ATOM     16  C   UNL     1       0.744   2.715  19.882  0.00  0.00    +0.000 A 
ATOM     17  C   UNL     1       0.789   2.358  18.554  0.00  0.00    +0.000 A 
ATOM     18  S   UNL     1       2.375   1.996  18.043  0.00  0.00    +0.000 S 
ATOM     19  C   UNL     1       3.025   2.354  19.589  0.00  0.00    +0.000 A 
ENDBRANCH  13  19
ENDBRANCH  11  13
ENDBRANCH   1  11
TORSDOF 3
ENDMDL
MODEL 5
REMARK VINA RESULT:      -6.4      1.921      2.977
REMARK  Name = 
REMARK  5 active torsions:
REMARK  status: ('A' for Active; 'I' for Inactive)
REMARK    1  A    between atoms: C_1  and  C_2
REMARK    2  A    between atoms: C_6  and  C_7
REMARK    3  A    between atoms: C_7  and  N_8
REMARK    4  A    between atoms: N_8  and  C_9
REMARK    5  A    between atoms: N_17  and  C_18
REMARK                            x       y       z     vdW  Elec       q    Type
REMARK                         _______ _______ _______ _____ _____    ______ ____
ROOT
ATOM      1  C   UNL     1       5.425   6.210  18.611  0.00  0.00    +0.000 C 
ATOM      2  C   UNL     1       4.102   6.744  17.983  0.00  0.00    +0.000 C 
ATOM      3  C   UNL     1       4.189   7.288  16.541  0.00  0.00    +0.000 C 
ATOM      4  C   UNL     1       5.057   6.504  15.545  0.00  0.00    +0.000 C 
ATOM      5  C   UNL     1       6.043   5.634  16.224  0.00  0.00    +0.000 A 
ATOM      6  C   UNL     1       6.211   5.449  17.589  0.00  0.00    +0.000 A 
ATOM      7  C   UNL     1       7.319   4.577  17.661  0.00  0.00    +0.000 A 
ATOM      8  N   UNL     1       7.776   4.209  16.465  0.00  0.00    +0.000 NA
ATOM      9  N   UNL     1       7.003   4.888  15.603  0.00  0.00    +0.000 N 
ATOM     10  C   UNL     1       7.323   4.851  14.195  0.00  0.00    +0.000 C 
ENDROOT
BRANCH   1  11
ATOM     11  N   UNL     1       5.012   5.421  19.784  0.00  0.00    +0.000 NA
ATOM     12  H   UNL     1       5.541   4.549  19.778  0.00  0.00    +0.000 HD
BRANCH  11  13
ATOM     13  C   UNL     1       3.597   5.069  19.839  0.00  0.00    +0.000 C 
BRANCH  13  19
ATOM     14  C   UNL     1       1.457   4.326  17.597  0.00  0.00    +0.000 C 
ATOM     15  C   UNL     1       2.429   3.380  18.227  0.00  0.00    +0.000 A 
ATOM     16  C   UNL     1       2.573   2.006  17.843  0.00  0.00    +0.000 A 
ATOM     17  C   UNL     1       3.563   1.359  18.547  0.00  0.00    +0.000 A 
ATOM     18  S   UNL     1       4.302   2.381  19.694  0.00  0.00    +0.000 S 
ATOM     19  C   UNL     1       3.330   3.715  19.230  0.00  0.00    +0.000 A 
ENDBRANCH  13  19
ENDBRANCH  11  13
ENDBRANCH   1  11
TORSDOF 3
ENDMDL
MODEL 6
REMARK VINA RESULT:      -6.4      1.030      1.578
REMARK  Name = 
REMARK  5 active torsions:
REMARK  status: ('A' for Active; 'I' for Inactive)
REMARK    1  A    between atoms: C_1  and  C_2
REMARK    2  A    between atoms: C_6  and  C_7
REMARK    3  A    between atoms: C_7  and  N_8
REMARK    4  A    between atoms: N_8  and  C_9
REMARK    5  A    between atoms: N_17  and  C_18
REMARK                            x       y       z     vdW  Elec       q    Type
REMARK                         _______ _______ _______ _____ _____    ______ ____
ROOT
ATOM      1  C   UNL     1       4.634   3.923  17.253  0.00  0.00    +0.000 C 
ATOM      2  C   UNL     1       4.990   3.967  15.736  0.00  0.00    +0.000 C 
ATOM      3  C   UNL     1       5.575   5.290  15.198  0.00  0.00    +0.000 C 
ATOM      4  C   UNL     1       6.604   6.013  16.081  0.00  0.00    +0.000 C 
ATOM      5  C   UNL     1       6.523   5.591  17.497  0.00  0.00    +0.000 A 
ATOM      6  C   UNL     1       5.682   4.635  18.050  0.00  0.00    +0.000 A 
ATOM      7  C   UNL     1       5.989   4.694  19.426  0.00  0.00    +0.000 A 
ATOM      8  N   UNL     1       6.958   5.563  19.711  0.00  0.00    +0.000 NA
ATOM      9  N   UNL     1       7.249   6.120  18.525  0.00  0.00    +0.000 N 
ATOM     10  C   UNL     1       8.162   7.238  18.481  0.00  0.00    +0.000 C 
ENDROOT
BRANCH   1  11
ATOM     11  N   UNL     1       4.475   2.496  17.578  0.00  0.00    +0.000 NA
ATOM     12  H   UNL     1       4.799   1.953  16.777  0.00  0.00    +0.000 HD
BRANCH  11  13
ATOM     13  C   UNL     1       3.111   2.065  17.869  0.00  0.00    +0.000 C 
BRANCH  13  19
ATOM     14  C   UNL     1       4.306   1.875  20.817  0.00  0.00    +0.000 C 
ATOM     15  C   UNL     1       3.103   2.664  20.410  0.00  0.00    +0.000 A 
ATOM     16  C   UNL     1       2.360   3.510  21.298  0.00  0.00    +0.000 A 
ATOM     17  C   UNL     1       1.321   4.157  20.671  0.00  0.00    +0.000 A 
ATOM     18  S   UNL     1       1.205   3.731  19.024  0.00  0.00    +0.000 S 
ATOM     19  C   UNL     1       2.575   2.705  19.125  0.00  0.00    +0.000 A 
ENDBRANCH  13  19
ENDBRANCH  11  13
ENDBRANCH   1  11
TORSDOF 3
ENDMDL
MODEL 7
REMARK VINA RESULT:      -6.3      1.472      1.564
REMARK  Name = 
REMARK  5 active torsions:
REMARK  status: ('A' for Active; 'I' for Inactive)
REMARK    1  A    between atoms: C_1  and  C_2
REMARK    2  A    between atoms: C_6  and  C_7
REMARK    3  A    between atoms: C_7  and  N_8
REMARK    4  A    between atoms: N_8  and  C_9
REMARK    5  A    between atoms: N_17  and  C_18
REMARK                            x       y       z     vdW  Elec       q    Type
REMARK                         _______ _______ _______ _____ _____    ______ ____
ROOT
ATOM      1  C   UNL     1       5.001   4.663  18.635  0.00  0.00    +0.000 C 
ATOM      2  C   UNL     1       4.272   4.820  17.266  0.00  0.00    +0.000 C 
ATOM      3  C   UNL     1       4.263   6.232  16.643  0.00  0.00    +0.000 C 
ATOM      4  C   UNL     1       5.561   7.048  16.732  0.00  0.00    +0.000 C 
ATOM      5  C   UNL     1       6.459   6.558  17.802  0.00  0.00    +0.000 A 
ATOM      6  C   UNL     1       6.259   5.475  18.646  0.00  0.00    +0.000 A 
ATOM      7  C   UNL     1       7.387   5.515  19.494  0.00  0.00    +0.000 A 
ATOM      8  N   UNL     1       8.238   6.493  19.189  0.00  0.00    +0.000 NA
ATOM      9  N   UNL     1       7.639   7.136  18.174  0.00  0.00    +0.000 N 
ATOM     10  C   UNL     1       8.215   8.367  17.686  0.00  0.00    +0.000 C 
ENDROOT
BRANCH   1  11
ATOM     11  N   UNL     1       5.200   3.214  18.811  0.00  0.00    +0.000 NA
ATOM     12  H   UNL     1       5.897   2.909  18.131  0.00  0.00    +0.000 HD
BRANCH  11  13
ATOM     13  C   UNL     1       4.012   2.388  18.615  0.00  0.00    +0.000 C 
BRANCH  13  19
ATOM     14  C   UNL     1       1.149   3.639  17.990  0.00  0.00    +0.000 C 
ATOM     15  C   UNL     1       1.654   3.241  19.340  0.00  0.00    +0.000 A 
ATOM     16  C   UNL     1       0.872   3.305  20.540  0.00  0.00    +0.000 A 
ATOM     17  C   UNL     1       1.554   2.845  21.643  0.00  0.00    +0.000 A 
ATOM     18  S   UNL     1       3.143   2.364  21.258  0.00  0.00    +0.000 S 
ATOM     19  C   UNL     1       2.921   2.730  19.597  0.00  0.00    +0.000 A 
ENDBRANCH  13  19
ENDBRANCH  11  13
ENDBRANCH   1  11
TORSDOF 3
ENDMDL
MODEL 8
REMARK VINA RESULT:      -6.2      4.477      5.859
REMARK  Name = 
REMARK  5 active torsions:
REMARK  status: ('A' for Active; 'I' for Inactive)
REMARK    1  A    between atoms: C_1  and  C_2
REMARK    2  A    between atoms: C_6  and  C_7
REMARK    3  A    between atoms: C_7  and  N_8
REMARK    4  A    between atoms: N_8  and  C_9
REMARK    5  A    between atoms: N_17  and  C_18
REMARK                            x       y       z     vdW  Elec       q    Type
REMARK                         _______ _______ _______ _____ _____    ______ ____
ROOT
ATOM      1  C   UNL     1       1.799   7.551  19.703  0.00  0.00    +0.000 C 
ATOM      2  C   UNL     1       2.248   8.107  18.318  0.00  0.00    +0.000 C 
ATOM      3  C   UNL     1       1.429   9.284  17.744  0.00  0.00    +0.000 C 
ATOM      4  C   UNL     1       0.998  10.384  18.725  0.00  0.00    +0.000 C 
ATOM      5  C   UNL     1       1.017   9.921  20.131  0.00  0.00    +0.000 A 
ATOM      6  C   UNL     1       1.404   8.676  20.608  0.00  0.00    +0.000 A 
ATOM      7  C   UNL     1       1.161   8.774  21.995  0.00  0.00    +0.000 A 
ATOM      8  N   UNL     1       0.711   9.971  22.366  0.00  0.00    +0.000 NA
ATOM      9  N   UNL     1       0.603  10.646  21.211  0.00  0.00    +0.000 N 
ATOM     10  C   UNL     1      -0.015  11.952  21.217  0.00  0.00    +0.000 C 
ENDROOT
BRANCH   1  11
ATOM     11  N   UNL     1       2.929   6.739  20.185  0.00  0.00    +0.000 NA
ATOM     12  H   UNL     1       3.735   7.355  20.293  0.00  0.00    +0.000 HD
BRANCH  11  13
ATOM     13  C   UNL     1       3.336   5.644  19.310  0.00  0.00    +0.000 C 
BRANCH  13  19
ATOM     14  C   UNL     1       2.516   3.369  17.235  0.00  0.00    +0.000 C 
ATOM     15  C   UNL     1       2.218   3.365  18.700  0.00  0.00    +0.000 A 
ATOM     16  C   UNL     1       1.575   2.282  19.385  0.00  0.00    +0.000 A 
ATOM     17  C   UNL     1       1.453   2.506  20.736  0.00  0.00    +0.000 A 
ATOM     18  S   UNL     1       2.074   4.027  21.190  0.00  0.00    +0.000 S 
ATOM     19  C   UNL     1       2.553   4.385  19.583  0.00  0.00    +0.000 A 
ENDBRANCH  13  19
ENDBRANCH  11  13
ENDBRANCH   1  11
TORSDOF 3
ENDMDL
MODEL 9
REMARK VINA RESULT:      -6.2      4.578      6.107
REMARK  Name = 
REMARK  5 active torsions:
REMARK  status: ('A' for Active; 'I' for Inactive)
REMARK    1  A    between atoms: C_1  and  C_2
REMARK    2  A    between atoms: C_6  and  C_7
REMARK    3  A    between atoms: C_7  and  N_8
REMARK    4  A    between atoms: N_8  and  C_9
REMARK    5  A    between atoms: N_17  and  C_18
REMARK                            x       y       z     vdW  Elec       q    Type
REMARK                         _______ _______ _______ _____ _____    ______ ____
ROOT
ATOM      1  C   UNL     1       1.629   7.586  19.800  0.00  0.00    +0.000 C 
ATOM      2  C   UNL     1       2.170   8.119  18.439  0.00  0.00    +0.000 C 
ATOM      3  C   UNL     1       1.466   9.360  17.850  0.00  0.00    +0.000 C 
ATOM      4  C   UNL     1       1.083  10.481  18.828  0.00  0.00    +0.000 C 
ATOM      5  C   UNL     1       1.014  10.004  20.228  0.00  0.00    +0.000 A 
ATOM      6  C   UNL     1       1.287   8.730  20.703  0.00  0.00    +0.000 A 
ATOM      7  C   UNL     1       1.001   8.832  22.082  0.00  0.00    +0.000 A 
ATOM      8  N   UNL     1       0.630  10.057  22.451  0.00  0.00    +0.000 NA
ATOM      9  N   UNL     1       0.616  10.749  21.301  0.00  0.00    +0.000 N 
ATOM     10  C   UNL     1       0.100  12.098  21.300  0.00  0.00    +0.000 C 
ENDROOT
BRANCH   1  11
ATOM     11  N   UNL     1       2.675   6.685  20.314  0.00  0.00    +0.000 NA
ATOM     12  H   UNL     1       3.468   6.728  19.673  0.00  0.00    +0.000 HD
BRANCH  11  13
ATOM     13  C   UNL     1       2.293   5.282  20.436  0.00  0.00    +0.000 C 
BRANCH  13  19
ATOM     14  C   UNL     1       0.741   2.823  19.134  0.00  0.00    +0.000 C 
ATOM     15  C   UNL     1       2.004   3.434  18.616  0.00  0.00    +0.000 A 
ATOM     16  C   UNL     1       2.652   3.029  17.402  0.00  0.00    +0.000 A 
ATOM     17  C   UNL     1       3.775   3.773  17.126  0.00  0.00    +0.000 A 
ATOM     18  S   UNL     1       4.082   4.938  18.333  0.00  0.00    +0.000 S 
ATOM     19  C   UNL     1       2.686   4.484  19.219  0.00  0.00    +0.000 A 
ENDBRANCH  13  19
ENDBRANCH  11  13
ENDBRANCH   1  11
TORSDOF 3
ENDMDL
