MODEL 1
REMARK VINA RESULT:      -8.2      0.000      0.000
REMARK  Name = 
REMARK  8 active torsions:
REMARK  status: ('A' for Active; 'I' for Inactive)
REMARK    1  A    between atoms: C_1  and  C_2
REMARK    2  A    between atoms: C_2  and  C_3
REMARK    3  A    between atoms: C_3  and  C_4
REMARK    4  A    between atoms: C_4  and  N_5
REMARK    5  A    between atoms: C_20  and  C_21
REMARK    6  A    between atoms: C_20  and  C_22
REMARK    7  A    between atoms: C_25  and  C_26
REMARK    8  A    between atoms: C_25  and  C_27
REMARK                            x       y       z     vdW  Elec       q    Type
REMARK                         _______ _______ _______ _____ _____    ______ ____
ROOT
ATOM      1  N   UNL     1       3.890   4.420  18.987  0.00  0.00    +0.000 N 
ATOM      2  C   UNL     1       3.126   5.112  19.943  0.00  0.00    +0.000 A 
ATOM      3  O   UNL     1       2.866   4.667  21.059  0.00  0.00    +0.000 OA
ATOM      4  C   UNL     1       2.616   6.453  19.604  0.00  0.00    +0.000 A 
ATOM      5  C   UNL     1       1.777   7.110  20.526  0.00  0.00    +0.000 A 
ATOM      6  C   UNL     1       1.278   8.403  20.294  0.00  0.00    +0.000 A 
ATOM      7  C   UNL     1       1.667   9.053  19.103  0.00  0.00    +0.000 A 
ATOM      8  C   UNL     1       2.482   8.348  18.182  0.00  0.00    +0.000 A 
ATOM      9  C   UNL     1       2.983   7.061  18.409  0.00  0.00    +0.000 A 
ATOM     10  C   UNL     1       3.868   6.349  17.467  0.00  0.00    +0.000 A 
ATOM     11  C   UNL     1       4.344   6.958  16.281  0.00  0.00    +0.000 A 
ATOM     12  C   UNL     1       5.179   6.284  15.387  0.00  0.00    +0.000 A 
ATOM     13  C   UNL     1       5.533   4.977  15.643  0.00  0.00    +0.000 A 
ATOM     14  C   UNL     1       5.078   4.351  16.804  0.00  0.00    +0.000 A 
ATOM     15  C   UNL     1       4.277   5.026  17.746  0.00  0.00    +0.000 A 
ATOM     16  C   UNL     1       1.215  10.471  18.750  0.00  0.00    +0.000 C 
ATOM     17  C   UNL     1       0.150  10.382  17.633  0.00  0.00    +0.000 C 
ATOM     18  C   UNL     1       2.390  11.339  18.236  0.00  0.00    +0.000 C 
ATOM     19  C   UNL     1       0.627  11.201  19.978  0.00  0.00    +0.000 C 
ATOM     20  C   UNL     1      -0.330  10.314  20.758  0.00  0.00    +0.000 C 
ATOM     21  C   UNL     1       0.378   9.070  21.339  0.00  0.00    +0.000 C 
ATOM     22  C   UNL     1       1.241   9.478  22.554  0.00  0.00    +0.000 C 
ATOM     23  C   UNL     1      -0.734   8.114  21.831  0.00  0.00    +0.000 C 
ENDROOT
BRANCH   1  24
ATOM     24  C   UNL     1       4.452   3.133  19.412  0.00  0.00    +0.000 C 
BRANCH  24  25
ATOM     25  C   UNL     1       3.429   1.994  19.374  0.00  0.00    +0.000 C 
BRANCH  25  27
ATOM     26  C   UNL     1       1.060   2.319  18.672  0.00  0.00    +0.000 C 
ATOM     27  C   UNL     1       2.487   2.130  18.184  0.00  0.00    +0.000 C 
ENDBRANCH  25  27
ENDBRANCH  24  25
ENDBRANCH   1  24
TORSDOF 3
ENDMDL
MODEL 2
REMARK VINA RESULT:      -7.8      1.467      4.088
REMARK  Name = 
REMARK  8 active torsions:
REMARK  status: ('A' for Active; 'I' for Inactive)
REMARK    1  A    between atoms: C_1  and  C_2
REMARK    2  A    between atoms: C_2  and  C_3
REMARK    3  A    between atoms: C_3  and  C_4
REMARK    4  A    between atoms: C_4  and  N_5
REMARK    5  A    between atoms: C_20  and  C_21
REMARK    6  A    between atoms: C_20  and  C_22
REMARK    7  A    between atoms: C_25  and  C_26
REMARK    8  A    between atoms: C_25  and  C_27
REMARK                            x       y       z     vdW  Elec       q    Type
REMARK                         _______ _______ _______ _____ _____    ______ ____
ROOT
ATOM      1  N   UNL     1       4.125   5.050  17.782  0.00  0.00    +0.000 N 
ATOM      2  C   UNL     1       3.643   6.338  17.487  0.00  0.00    +0.000 A 
ATOM      3  O   UNL     1       3.838   6.911  16.417  0.00  0.00    +0.000 OA
ATOM      4  C   UNL     1       2.843   7.044  18.505  0.00  0.00    +0.000 A 
ATOM      5  C   UNL     1       2.434   8.367  18.247  0.00  0.00    +0.000 A 
ATOM      6  C   UNL     1       1.642   9.095  19.149  0.00  0.00    +0.000 A 
ATOM      7  C   UNL     1       1.233   8.448  20.335  0.00  0.00    +0.000 A 
ATOM      8  C   UNL     1       1.693   7.129  20.580  0.00  0.00    +0.000 A 
ATOM      9  C   UNL     1       2.481   6.400  19.683  0.00  0.00    +0.000 A 
ATOM     10  C   UNL     1       2.920   5.010  19.922  0.00  0.00    +0.000 A 
ATOM     11  C   UNL     1       2.504   4.279  21.060  0.00  0.00    +0.000 A 
ATOM     12  C   UNL     1       2.922   2.966  21.290  0.00  0.00    +0.000 A 
ATOM     13  C   UNL     1       3.787   2.365  20.402  0.00  0.00    +0.000 A 
ATOM     14  C   UNL     1       4.215   3.062  19.272  0.00  0.00    +0.000 A 
ATOM     15  C   UNL     1       3.768   4.369  18.992  0.00  0.00    +0.000 A 
ATOM     16  C   UNL     1       0.346   9.124  21.382  0.00  0.00    +0.000 C 
ATOM     17  C   UNL     1       1.220   9.485  22.605  0.00  0.00    +0.000 C 
ATOM     18  C   UNL     1      -0.796   8.191  21.857  0.00  0.00    +0.000 C 
ATOM     19  C   UNL     1      -0.325  10.397  20.821  0.00  0.00    +0.000 C 
ATOM     20  C   UNL     1       0.660  11.260  20.048  0.00  0.00    +0.000 C 
ATOM     21  C   UNL     1       1.220  10.528  18.807  0.00  0.00    +0.000 C 
ATOM     22  C   UNL     1       0.146  10.481  17.698  0.00  0.00    +0.000 C 
ATOM     23  C   UNL     1       2.412  11.369  18.295  0.00  0.00    +0.000 C 
ENDROOT
BRANCH   1  24
ATOM     24  C   UNL     1       4.830   4.358  16.699  0.00  0.00    +0.000 C 
BRANCH  24  25
ATOM     25  C   UNL     1       6.345   4.581  16.736  0.00  0.00    +0.000 C 
BRANCH  25  27
ATOM     26  C   UNL     1       6.070   4.015  14.324  0.00  0.00    +0.000 C 
ATOM     27  C   UNL     1       6.916   4.770  15.335  0.00  0.00    +0.000 C 
ENDBRANCH  25  27
ENDBRANCH  24  25
ENDBRANCH   1  24
TORSDOF 3
ENDMDL
MODEL 3
REMARK VINA RESULT:      -7.8      1.479      4.109
REMARK  Name = 
REMARK  8 active torsions:
REMARK  status: ('A' for Active; 'I' for Inactive)
REMARK    1  A    between atoms: C_1  and  C_2
REMARK    2  A    between atoms: C_2  and  C_3
REMARK    3  A    between atoms: C_3  and  C_4
REMARK    4  A    between atoms: C_4  and  N_5
REMARK    5  A    between atoms: C_20  and  C_21
REMARK    6  A    between atoms: C_20  and  C_22
REMARK    7  A    between atoms: C_25  and  C_26
REMARK    8  A    between atoms: C_25  and  C_27
REMARK                            x       y       z     vdW  Elec       q    Type
REMARK                         _______ _______ _______ _____ _____    ______ ____
ROOT
ATOM      1  N   UNL     1       4.199   5.111  17.747  0.00  0.00    +0.000 N 
ATOM      2  C   UNL     1       3.702   6.395  17.461  0.00  0.00    +0.000 A 
ATOM      3  O   UNL     1       3.901   6.982  16.400  0.00  0.00    +0.000 OA
ATOM      4  C   UNL     1       2.881   7.078  18.478  0.00  0.00    +0.000 A 
ATOM      5  C   UNL     1       2.457   8.399  18.230  0.00  0.00    +0.000 A 
ATOM      6  C   UNL     1       1.645   9.105  19.132  0.00  0.00    +0.000 A 
ATOM      7  C   UNL     1       1.232   8.439  20.306  0.00  0.00    +0.000 A 
ATOM      8  C   UNL     1       1.707   7.124  20.541  0.00  0.00    +0.000 A 
ATOM      9  C   UNL     1       2.515   6.415  19.644  0.00  0.00    +0.000 A 
ATOM     10  C   UNL     1       2.970   5.030  19.873  0.00  0.00    +0.000 A 
ATOM     11  C   UNL     1       2.552   4.280  20.998  0.00  0.00    +0.000 A 
ATOM     12  C   UNL     1       2.986   2.970  21.217  0.00  0.00    +0.000 A 
ATOM     13  C   UNL     1       3.869   2.391  20.332  0.00  0.00    +0.000 A 
ATOM     14  C   UNL     1       4.300   3.107  19.215  0.00  0.00    +0.000 A 
ATOM     15  C   UNL     1       3.837   4.411  18.945  0.00  0.00    +0.000 A 
ATOM     16  C   UNL     1       0.324   9.090  21.350  0.00  0.00    +0.000 C 
ATOM     17  C   UNL     1       1.179   9.450  22.587  0.00  0.00    +0.000 C 
ATOM     18  C   UNL     1      -0.810   8.137  21.802  0.00  0.00    +0.000 C 
ATOM     19  C   UNL     1      -0.358  10.361  20.796  0.00  0.00    +0.000 C 
ATOM     20  C   UNL     1       0.623  11.245  20.044  0.00  0.00    +0.000 C 
ATOM     21  C   UNL     1       1.207  10.535  18.801  0.00  0.00    +0.000 C 
ATOM     22  C   UNL     1       0.146  10.487  17.680  0.00  0.00    +0.000 C 
ATOM     23  C   UNL     1       2.393  11.399  18.311  0.00  0.00    +0.000 C 
ENDROOT
BRANCH   1  24
ATOM     24  C   UNL     1       4.926   4.440  16.664  0.00  0.00    +0.000 C 
BRANCH  24  25
ATOM     25  C   UNL     1       6.363   4.945  16.509  0.00  0.00    +0.000 C 
BRANCH  25  27
ATOM     26  C   UNL     1       7.608   6.019  18.383  0.00  0.00    +0.000 C 
ATOM     27  C   UNL     1       7.182   4.695  17.770  0.00  0.00    +0.000 C 
ENDBRANCH  25  27
ENDBRANCH  24  25
ENDBRANCH   1  24
TORSDOF 3
ENDMDL
MODEL 4
REMARK VINA RESULT:      -7.5      5.453      8.596
REMARK  Name = 
REMARK  8 active torsions:
REMARK  status: ('A' for Active; 'I' for Inactive)
REMARK    1  A    between atoms: C_1  and  C_2
REMARK    2  A    between atoms: C_2  and  C_3
REMARK    3  A    between atoms: C_3  and  C_4
REMARK    4  A    between atoms: C_4  and  N_5
REMARK    5  A    between atoms: C_20  and  C_21
REMARK    6  A    between atoms: C_20  and  C_22
REMARK    7  A    between atoms: C_25  and  C_26
REMARK    8  A    between atoms: C_25  and  C_27
REMARK                            x       y       z     vdW  Elec       q    Type
REMARK                         _______ _______ _______ _____ _____    ______ ____
ROOT
ATOM      1  N   UNL     1      -1.237  11.376  19.009  0.00  0.00    +0.000 N 
ATOM      2  C   UNL     1      -1.570  11.915  20.265  0.00  0.00    +0.000 A 
ATOM      3  O   UNL     1      -0.742  12.187  21.131  0.00  0.00    +0.000 OA
ATOM      4  C   UNL     1      -2.989  12.187  20.563  0.00  0.00    +0.000 A 
ATOM      5  C   UNL     1      -3.334  12.642  21.851  0.00  0.00    +0.000 A 
ATOM      6  C   UNL     1      -4.656  12.957  22.204  0.00  0.00    +0.000 A 
ATOM      7  C   UNL     1      -5.650  12.828  21.209  0.00  0.00    +0.000 A 
ATOM      8  C   UNL     1      -5.273  12.333  19.936  0.00  0.00    +0.000 A 
ATOM      9  C   UNL     1      -3.956  12.019  19.579  0.00  0.00    +0.000 A 
ATOM     10  C   UNL     1      -3.563  11.547  18.238  0.00  0.00    +0.000 A 
ATOM     11  C   UNL     1      -4.493  11.447  17.175  0.00  0.00    +0.000 A 
ATOM     12  C   UNL     1      -4.122  10.995  15.907  0.00  0.00    +0.000 A 
ATOM     13  C   UNL     1      -2.820  10.606  15.679  0.00  0.00    +0.000 A 
ATOM     14  C   UNL     1      -1.881  10.692  16.708  0.00  0.00    +0.000 A 
ATOM     15  C   UNL     1      -2.219  11.192  17.981  0.00  0.00    +0.000 A 
ATOM     16  C   UNL     1      -7.120  13.168  21.462  0.00  0.00    +0.000 C 
ATOM     17  C   UNL     1      -7.916  11.847  21.564  0.00  0.00    +0.000 C 
ATOM     18  C   UNL     1      -7.721  14.012  20.311  0.00  0.00    +0.000 C 
ATOM     19  C   UNL     1      -7.298  13.991  22.757  0.00  0.00    +0.000 C 
ATOM     20  C   UNL     1      -6.485  13.417  23.906  0.00  0.00    +0.000 C 
ATOM     21  C   UNL     1      -4.968  13.458  23.618  0.00  0.00    +0.000 C 
ATOM     22  C   UNL     1      -4.446  14.905  23.761  0.00  0.00    +0.000 C 
ATOM     23  C   UNL     1      -4.286  12.586  24.698  0.00  0.00    +0.000 C 
ENDROOT
BRANCH   1  24
ATOM     24  C   UNL     1       0.195  11.217  18.731  0.00  0.00    +0.000 C 
BRANCH  24  25
ATOM     25  C   UNL     1       0.695   9.791  18.980  0.00  0.00    +0.000 C 
BRANCH  25  27
ATOM     26  C   UNL     1       2.303   8.041  18.230  0.00  0.00    +0.000 C 
ATOM     27  C   UNL     1       1.530   9.280  17.811  0.00  0.00    +0.000 C 
ENDBRANCH  25  27
ENDBRANCH  24  25
ENDBRANCH   1  24
TORSDOF 3
ENDMDL
MODEL 5
REMARK VINA RESULT:      -6.8      2.107      7.480
REMARK  Name = 
REMARK  8 active torsions:
REMARK  status: ('A' for Active; 'I' for Inactive)
REMARK    1  A    between atoms: C_1  and  C_2
REMARK    2  A    between atoms: C_2  and  C_3
REMARK    3  A    between atoms: C_3  and  C_4
REMARK    4  A    between atoms: C_4  and  N_5
REMARK    5  A    between atoms: C_20  and  C_21
REMARK    6  A    between atoms: C_20  and  C_22
REMARK    7  A    between atoms: C_25  and  C_26
REMARK    8  A    between atoms: C_25  and  C_27
REMARK                            x       y       z     vdW  Elec       q    Type
REMARK                         _______ _______ _______ _____ _____    ______ ____
ROOT
ATOM      1  N   UNL     1       1.557   9.880  18.814  0.00  0.00    +0.000 N 
ATOM      2  C   UNL     1       2.334   8.861  18.233  0.00  0.00    +0.000 A 
ATOM      3  O   UNL     1       3.073   9.035  17.267  0.00  0.00    +0.000 OA
ATOM      4  C   UNL     1       2.278   7.509  18.818  0.00  0.00    +0.000 A 
ATOM      5  C   UNL     1       2.986   6.468  18.185  0.00  0.00    +0.000 A 
ATOM      6  C   UNL     1       3.012   5.161  18.698  0.00  0.00    +0.000 A 
ATOM      7  C   UNL     1       2.319   4.914  19.903  0.00  0.00    +0.000 A 
ATOM      8  C   UNL     1       1.588   5.976  20.493  0.00  0.00    +0.000 A 
ATOM      9  C   UNL     1       1.561   7.280  19.986  0.00  0.00    +0.000 A 
ATOM     10  C   UNL     1       0.834   8.392  20.630  0.00  0.00    +0.000 A 
ATOM     11  C   UNL     1       0.165   8.234  21.867  0.00  0.00    +0.000 A 
ATOM     12  C   UNL     1      -0.526   9.285  22.474  0.00  0.00    +0.000 A 
ATOM     13  C   UNL     1      -0.588  10.509  21.846  0.00  0.00    +0.000 A 
ATOM     14  C   UNL     1       0.061  10.694  20.624  0.00  0.00    +0.000 A 
ATOM     15  C   UNL     1       0.807   9.664  20.016  0.00  0.00    +0.000 A 
ATOM     16  C   UNL     1       2.297   3.541  20.576  0.00  0.00    +0.000 C 
ATOM     17  C   UNL     1       0.901   2.912  20.359  0.00  0.00    +0.000 C 
ATOM     18  C   UNL     1       2.553   3.643  22.100  0.00  0.00    +0.000 C 
ATOM     19  C   UNL     1       3.388   2.610  20.004  0.00  0.00    +0.000 C 
ATOM     20  C   UNL     1       3.437   2.665  18.485  0.00  0.00    +0.000 C 
ATOM     21  C   UNL     1       3.808   4.074  17.969  0.00  0.00    +0.000 C 
ATOM     22  C   UNL     1       5.316   4.329  18.186  0.00  0.00    +0.000 C 
ATOM     23  C   UNL     1       3.528   4.079  16.448  0.00  0.00    +0.000 C 
ENDROOT
BRANCH   1  24
ATOM     24  C   UNL     1       1.725  11.224  18.253  0.00  0.00    +0.000 C 
BRANCH  24  25
ATOM     25  C   UNL     1       2.056  12.276  19.315  0.00  0.00    +0.000 C 
BRANCH  25  27
ATOM     26  C   UNL     1       0.206  13.855  18.772  0.00  0.00    +0.000 C 
ATOM     27  C   UNL     1       1.714  13.682  18.835  0.00  0.00    +0.000 C 
ENDBRANCH  25  27
ENDBRANCH  24  25
ENDBRANCH   1  24
TORSDOF 3
ENDMDL
MODEL 6
REMARK VINA RESULT:      -6.8      2.204      6.813
REMARK  Name = 
REMARK  8 active torsions:
REMARK  status: ('A' for Active; 'I' for Inactive)
REMARK    1  A    between atoms: C_1  and  C_2
REMARK    2  A    between atoms: C_2  and  C_3
REMARK    3  A    between atoms: C_3  and  C_4
REMARK    4  A    between atoms: C_4  and  N_5
REMARK    5  A    between atoms: C_20  and  C_21
REMARK    6  A    between atoms: C_20  and  C_22
REMARK    7  A    between atoms: C_25  and  C_26
REMARK    8  A    between atoms: C_25  and  C_27
REMARK                            x       y       z     vdW  Elec       q    Type
REMARK                         _______ _______ _______ _____ _____    ______ ____
ROOT
ATOM      1  N   UNL     1       0.045   9.734  20.800  0.00  0.00    +0.000 N 
ATOM      2  C   UNL     1       0.093   8.351  21.050  0.00  0.00    +0.000 A 
ATOM      3  O   UNL     1      -0.691   7.766  21.795  0.00  0.00    +0.000 OA
ATOM      4  C   UNL     1       1.126   7.545  20.374  0.00  0.00    +0.000 A 
ATOM      5  C   UNL     1       1.231   6.176  20.691  0.00  0.00    +0.000 A 
ATOM      6  C   UNL     1       2.165   5.333  20.066  0.00  0.00    +0.000 A 
ATOM      7  C   UNL     1       2.996   5.895  19.072  0.00  0.00    +0.000 A 
ATOM      8  C   UNL     1       2.888   7.283  18.806  0.00  0.00    +0.000 A 
ATOM      9  C   UNL     1       1.958   8.127  19.425  0.00  0.00    +0.000 A 
ATOM     10  C   UNL     1       1.820   9.562  19.110  0.00  0.00    +0.000 A 
ATOM     11  C   UNL     1       2.578  10.182  18.088  0.00  0.00    +0.000 A 
ATOM     12  C   UNL     1       2.451  11.541  17.793  0.00  0.00    +0.000 A 
ATOM     13  C   UNL     1       1.584  12.317  18.531  0.00  0.00    +0.000 A 
ATOM     14  C   UNL     1       0.824  11.734  19.545  0.00  0.00    +0.000 A 
ATOM     15  C   UNL     1       0.897  10.355  19.828  0.00  0.00    +0.000 A 
ATOM     16  C   UNL     1       4.031   5.075  18.300  0.00  0.00    +0.000 C 
ATOM     17  C   UNL     1       5.438   5.447  18.823  0.00  0.00    +0.000 C 
ATOM     18  C   UNL     1       3.981   5.370  16.781  0.00  0.00    +0.000 C 
ATOM     19  C   UNL     1       3.792   3.558  18.467  0.00  0.00    +0.000 C 
ATOM     20  C   UNL     1       3.515   3.186  19.915  0.00  0.00    +0.000 C 
ATOM     21  C   UNL     1       2.224   3.850  20.445  0.00  0.00    +0.000 C 
ATOM     22  C   UNL     1       0.988   3.134  19.857  0.00  0.00    +0.000 C 
ATOM     23  C   UNL     1       2.219   3.650  21.979  0.00  0.00    +0.000 C 
ENDROOT
BRANCH   1  24
ATOM     24  C   UNL     1      -1.061  10.469  21.423  0.00  0.00    +0.000 C 
BRANCH  24  25
ATOM     25  C   UNL     1      -0.700  11.035  22.799  0.00  0.00    +0.000 C 
BRANCH  25  27
ATOM     26  C   UNL     1      -2.782  12.282  23.368  0.00  0.00    +0.000 C 
ATOM     27  C   UNL     1      -1.310  12.415  23.012  0.00  0.00    +0.000 C 
ENDBRANCH  25  27
ENDBRANCH  24  25
ENDBRANCH   1  24
TORSDOF 3
ENDMDL
MODEL 7
REMARK VINA RESULT:      -6.7      5.240      8.350
REMARK  Name = 
REMARK  8 active torsions:
REMARK  status: ('A' for Active; 'I' for Inactive)
REMARK    1  A    between atoms: C_1  and  C_2
REMARK    2  A    between atoms: C_2  and  C_3
REMARK    3  A    between atoms: C_3  and  C_4
REMARK    4  A    between atoms: C_4  and  N_5
REMARK    5  A    between atoms: C_20  and  C_21
REMARK    6  A    between atoms: C_20  and  C_22
REMARK    7  A    between atoms: C_25  and  C_26
REMARK    8  A    between atoms: C_25  and  C_27
REMARK                            x       y       z     vdW  Elec       q    Type
REMARK                         _______ _______ _______ _____ _____    ______ ____
ROOT
ATOM      1  N   UNL     1      -0.952  10.779  19.607  0.00  0.00    +0.000 N 
ATOM      2  C   UNL     1      -1.149  11.606  20.728  0.00  0.00    +0.000 A 
ATOM      3  O   UNL     1      -0.316  11.753  21.620  0.00  0.00    +0.000 OA
ATOM      4  C   UNL     1      -2.414  12.354  20.841  0.00  0.00    +0.000 A 
ATOM      5  C   UNL     1      -2.650  13.113  22.005  0.00  0.00    +0.000 A 
ATOM      6  C   UNL     1      -3.813  13.881  22.174  0.00  0.00    +0.000 A 
ATOM      7  C   UNL     1      -4.750  13.897  21.118  0.00  0.00    +0.000 A 
ATOM      8  C   UNL     1      -4.497  13.093  19.978  0.00  0.00    +0.000 A 
ATOM      9  C   UNL     1      -3.339  12.328  19.804  0.00  0.00    +0.000 A 
ATOM     10  C   UNL     1      -3.061  11.528  18.594  0.00  0.00    +0.000 A 
ATOM     11  C   UNL     1      -3.925  11.540  17.473  0.00  0.00    +0.000 A 
ATOM     12  C   UNL     1      -3.665  10.780  16.331  0.00  0.00    +0.000 A 
ATOM     13  C   UNL     1      -2.550   9.971  16.293  0.00  0.00    +0.000 A 
ATOM     14  C   UNL     1      -1.681   9.939  17.384  0.00  0.00    +0.000 A 
ATOM     15  C   UNL     1      -1.895  10.734  18.528  0.00  0.00    +0.000 A 
ATOM     16  C   UNL     1      -6.040  14.717  21.171  0.00  0.00    +0.000 C 
ATOM     17  C   UNL     1      -7.225  13.749  21.394  0.00  0.00    +0.000 C 
ATOM     18  C   UNL     1      -6.283  15.491  19.852  0.00  0.00    +0.000 C 
ATOM     19  C   UNL     1      -5.999  15.767  22.302  0.00  0.00    +0.000 C 
ATOM     20  C   UNL     1      -5.468  15.179  23.599  0.00  0.00    +0.000 C 
ATOM     21  C   UNL     1      -4.008  14.693  23.458  0.00  0.00    +0.000 C 
ATOM     22  C   UNL     1      -3.052  15.907  23.431  0.00  0.00    +0.000 C 
ATOM     23  C   UNL     1      -3.694  13.856  24.720  0.00  0.00    +0.000 C 
ENDROOT
BRANCH   1  24
ATOM     24  C   UNL     1       0.361  10.135  19.498  0.00  0.00    +0.000 C 
BRANCH  24  25
ATOM     25  C   UNL     1       1.352  10.941  18.653  0.00  0.00    +0.000 C 
BRANCH  25  27
ATOM     26  C   UNL     1       1.761   8.596  17.915  0.00  0.00    +0.000 C 
ATOM     27  C   UNL     1       2.257  10.030  17.832  0.00  0.00    +0.000 C 
ENDBRANCH  25  27
ENDBRANCH  24  25
ENDBRANCH   1  24
TORSDOF 3
ENDMDL
MODEL 8
REMARK VINA RESULT:      -6.6      6.573      9.171
REMARK  Name = 
REMARK  8 active torsions:
REMARK  status: ('A' for Active; 'I' for Inactive)
REMARK    1  A    between atoms: C_1  and  C_2
REMARK    2  A    between atoms: C_2  and  C_3
REMARK    3  A    between atoms: C_3  and  C_4
REMARK    4  A    between atoms: C_4  and  N_5
REMARK    5  A    between atoms: C_20  and  C_21
REMARK    6  A    between atoms: C_20  and  C_22
REMARK    7  A    between atoms: C_25  and  C_26
REMARK    8  A    between atoms: C_25  and  C_27
REMARK                            x       y       z     vdW  Elec       q    Type
REMARK                         _______ _______ _______ _____ _____    ______ ____
ROOT
ATOM      1  N   UNL     1      -2.194  11.860  18.067  0.00  0.00    +0.000 N 
ATOM      2  C   UNL     1      -3.556  11.949  18.409  0.00  0.00    +0.000 A 
ATOM      3  O   UNL     1      -4.471  11.667  17.638  0.00  0.00    +0.000 OA
ATOM      4  C   UNL     1      -3.916  12.388  19.770  0.00  0.00    +0.000 A 
ATOM      5  C   UNL     1      -5.278  12.562  20.086  0.00  0.00    +0.000 A 
ATOM      6  C   UNL     1      -5.705  12.944  21.368  0.00  0.00    +0.000 A 
ATOM      7  C   UNL     1      -4.720  13.127  22.362  0.00  0.00    +0.000 A 
ATOM      8  C   UNL     1      -3.357  12.979  21.999  0.00  0.00    +0.000 A 
ATOM      9  C   UNL     1      -2.927  12.597  20.723  0.00  0.00    +0.000 A 
ATOM     10  C   UNL     1      -1.509  12.400  20.364  0.00  0.00    +0.000 A 
ATOM     11  C   UNL     1      -0.471  12.511  21.320  0.00  0.00    +0.000 A 
ATOM     12  C   UNL     1       0.872  12.329  20.979  0.00  0.00    +0.000 A 
ATOM     13  C   UNL     1       1.209  12.060  19.671  0.00  0.00    +0.000 A 
ATOM     14  C   UNL     1       0.207  11.946  18.706  0.00  0.00    +0.000 A 
ATOM     15  C   UNL     1      -1.157  12.075  19.035  0.00  0.00    +0.000 A 
ATOM     16  C   UNL     1      -5.060  13.514  23.802  0.00  0.00    +0.000 C 
ATOM     17  C   UNL     1      -4.678  14.997  24.013  0.00  0.00    +0.000 C 
ATOM     18  C   UNL     1      -4.279  12.657  24.828  0.00  0.00    +0.000 C 
ATOM     19  C   UNL     1      -6.561  13.310  24.104  0.00  0.00    +0.000 C 
ATOM     20  C   UNL     1      -7.441  13.850  22.987  0.00  0.00    +0.000 C 
ATOM     21  C   UNL     1      -7.201  13.108  21.653  0.00  0.00    +0.000 C 
ATOM     22  C   UNL     1      -7.856  11.709  21.708  0.00  0.00    +0.000 C 
ATOM     23  C   UNL     1      -7.909  13.932  20.552  0.00  0.00    +0.000 C 
ENDROOT
BRANCH   1  24
ATOM     24  C   UNL     1      -1.892  11.326  16.735  0.00  0.00    +0.000 C 
BRANCH  24  25
ATOM     25  C   UNL     1      -1.989   9.799  16.669  0.00  0.00    +0.000 C 
BRANCH  25  27
ATOM     26  C   UNL     1      -3.194  10.473  14.594  0.00  0.00    +0.000 C 
ATOM     27  C   UNL     1      -2.966   9.348  15.589  0.00  0.00    +0.000 C 
ENDBRANCH  25  27
ENDBRANCH  24  25
ENDBRANCH   1  24
TORSDOF 3
ENDMDL
MODEL 9
REMARK VINA RESULT:      -6.6      5.337      8.462
REMARK  Name = 
REMARK  8 active torsions:
REMARK  status: ('A' for Active; 'I' for Inactive)
REMARK    1  A    between atoms: C_1  and  C_2
REMARK    2  A    between atoms: C_2  and  C_3
REMARK    3  A    between atoms: C_3  and  C_4
REMARK    4  A    between atoms: C_4  and  N_5
REMARK    5  A    between atoms: C_20  and  C_21
REMARK    6  A    between atoms: C_20  and  C_22
REMARK    7  A    between atoms: C_25  and  C_26
REMARK    8  A    between atoms: C_25  and  C_27
REMARK                            x       y       z     vdW  Elec       q    Type
REMARK                         _______ _______ _______ _____ _____    ______ ____
ROOT
ATOM      1  N   UNL     1      -0.591  11.219  20.022  0.00  0.00    +0.000 N 
ATOM      2  C   UNL     1      -0.821  12.124  21.073  0.00  0.00    +0.000 A 
ATOM      3  O   UNL     1       0.024  12.420  21.914  0.00  0.00    +0.000 OA
ATOM      4  C   UNL     1      -2.142  12.773  21.171  0.00  0.00    +0.000 A 
ATOM      5  C   UNL     1      -2.404  13.611  22.273  0.00  0.00    +0.000 A 
ATOM      6  C   UNL     1      -3.623  14.293  22.421  0.00  0.00    +0.000 A 
ATOM      7  C   UNL     1      -4.591  14.136  21.406  0.00  0.00    +0.000 A 
ATOM      8  C   UNL     1      -4.308  13.256  20.331  0.00  0.00    +0.000 A 
ATOM      9  C   UNL     1      -3.094  12.576  20.178  0.00  0.00    +0.000 A 
ATOM     10  C   UNL     1      -2.788  11.697  19.033  0.00  0.00    +0.000 A 
ATOM     11  C   UNL     1      -3.686  11.535  17.951  0.00  0.00    +0.000 A 
ATOM     12  C   UNL     1      -3.400  10.700  16.869  0.00  0.00    +0.000 A 
ATOM     13  C   UNL     1      -2.222   9.985  16.858  0.00  0.00    +0.000 A 
ATOM     14  C   UNL     1      -1.318  10.123  17.911  0.00  0.00    +0.000 A 
ATOM     15  C   UNL     1      -1.561  10.998  18.989  0.00  0.00    +0.000 A 
ATOM     16  C   UNL     1      -5.944  14.848  21.438  0.00  0.00    +0.000 C 
ATOM     17  C   UNL     1      -7.035  13.810  21.792  0.00  0.00    +0.000 C 
ATOM     18  C   UNL     1      -6.296  15.477  20.068  0.00  0.00    +0.000 C 
ATOM     19  C   UNL     1      -5.957  15.996  22.471  0.00  0.00    +0.000 C 
ATOM     20  C   UNL     1      -5.335  15.574  23.793  0.00  0.00    +0.000 C 
ATOM     21  C   UNL     1      -3.844  15.199  23.636  0.00  0.00    +0.000 C 
ATOM     22  C   UNL     1      -2.998  16.480  23.465  0.00  0.00    +0.000 C 
ATOM     23  C   UNL     1      -3.418  14.508  24.952  0.00  0.00    +0.000 C 
ENDROOT
BRANCH   1  24
ATOM     24  C   UNL     1       0.768  10.678  19.916  0.00  0.00    +0.000 C 
BRANCH  24  25
ATOM     25  C   UNL     1       0.868   9.222  20.381  0.00  0.00    +0.000 C 
BRANCH  25  27
ATOM     26  C   UNL     1      -0.055   9.006  22.686  0.00  0.00    +0.000 C 
ATOM     27  C   UNL     1       1.216   9.132  21.862  0.00  0.00    +0.000 C 
ENDBRANCH  25  27
ENDBRANCH  24  25
ENDBRANCH   1  24
TORSDOF 3
ENDMDL
