MODEL 1
REMARK VINA RESULT:      -6.8      0.000      0.000
REMARK  Name = 
REMARK  8 active torsions:
REMARK  status: ('A' for Active; 'I' for Inactive)
REMARK    1  A    between atoms: C_1  and  C_2
REMARK    2  A    between atoms: C_2  and  O_3
REMARK    3  A    between atoms: O_3  and  C_4
REMARK    4  A    between atoms: C_4  and  O_5
REMARK    5  A    between atoms: C_7  and  C_8
REMARK    6  A    between atoms: C_15  and  C_16
REMARK    7  A    between atoms: C_15  and  C_17
REMARK    8  A    between atoms: C_19  and  C_20
REMARK                            x       y       z     vdW  Elec       q    Type
REMARK                         _______ _______ _______ _____ _____    ______ ____
ROOT
ATOM      1  C   UNL     1       5.313   4.922  18.471  0.00  0.00    +0.000 C 
ATOM      2  C   UNL     1       4.405   5.894  18.267  0.00  0.00    +0.000 C 
ATOM      3  C   UNL     1       4.373   6.814  17.073  0.00  0.00    +0.000 C 
ATOM      4  C   UNL     1       5.279   6.651  15.867  0.00  0.00    +0.000 C 
ATOM      5  N   UNL     1       3.623   7.874  16.985  0.00  0.00    +0.000 NA
ATOM      6  C   UNL     1       2.776   8.223  18.004  0.00  0.00    +0.000 C 
ATOM      7  C   UNL     1       2.586   7.463  19.085  0.00  0.00    +0.000 C 
ATOM      8  C   UNL     1       1.688   7.946  20.170  0.00  0.00    +0.000 C 
ATOM      9  O   UNL     1       1.438   7.252  21.143  0.00  0.00    +0.000 OA
ATOM     10  C   UNL     1       1.153   9.360  20.078  0.00  0.00    +0.000 C 
ATOM     11  C   UNL     1       0.814   9.748  18.636  0.00  0.00    +0.000 C 
ATOM     12  C   UNL     1      -0.371   8.911  18.111  0.00  0.00    +0.000 C 
ATOM     13  C   UNL     1       0.415  11.234  18.587  0.00  0.00    +0.000 C 
ATOM     14  C   UNL     1       2.063   9.535  17.761  0.00  0.00    +0.000 C 
ATOM     15  C   UNL     1       3.271   6.133  19.271  0.00  0.00    +0.000 C 
ENDROOT
BRANCH  15  16
ATOM     16  C   UNL     1       2.258   4.992  19.206  0.00  0.00    +0.000 A 
ATOM     17  C   UNL     1       1.624   4.508  18.011  0.00  0.00    +0.000 A 
ATOM     18  C   UNL     1       0.781   3.451  18.253  0.00  0.00    +0.000 A 
ATOM     19  S   UNL     1       0.730   3.030  19.907  0.00  0.00    +0.000 S 
ATOM     20  C   UNL     1       1.829   4.274  20.312  0.00  0.00    +0.000 A 
ENDBRANCH  15  16
BRANCH   1  21
ATOM     21  O   UNL     1       5.248   4.156  19.617  0.00  0.00    +0.000 OA
ATOM     22  H   UNL     1       5.416   4.741  20.374  0.00  0.00    +0.000 HD
ENDBRANCH   1  21
BRANCH   1  23
ATOM     23  O   UNL     1       6.239   4.606  17.518  0.00  0.00    +0.000 OA
BRANCH  23  25
ATOM     24  C   UNL     1       7.834   5.987  18.547  0.00  0.00    +0.000 C 
ATOM     25  C   UNL     1       7.627   4.665  17.824  0.00  0.00    +0.000 C 
ENDBRANCH  23  25
ENDBRANCH   1  23
TORSDOF 4
ENDMDL
MODEL 2
REMARK VINA RESULT:      -6.4      4.477      7.141
REMARK  Name = 
REMARK  8 active torsions:
REMARK  status: ('A' for Active; 'I' for Inactive)
REMARK    1  A    between atoms: C_1  and  C_2
REMARK    2  A    between atoms: C_2  and  O_3
REMARK    3  A    between atoms: O_3  and  C_4
REMARK    4  A    between atoms: C_4  and  O_5
REMARK    5  A    between atoms: C_7  and  C_8
REMARK    6  A    between atoms: C_15  and  C_16
REMARK    7  A    between atoms: C_15  and  C_17
REMARK    8  A    between atoms: C_19  and  C_20
REMARK                            x       y       z     vdW  Elec       q    Type
REMARK                         _______ _______ _______ _____ _____    ______ ____
ROOT
ATOM      1  C   UNL     1       1.446   9.488  18.692  0.00  0.00    +0.000 C 
ATOM      2  C   UNL     1       0.824  10.078  19.729  0.00  0.00    +0.000 C 
ATOM      3  C   UNL     1       0.670   9.475  21.103  0.00  0.00    +0.000 C 
ATOM      4  C   UNL     1       1.343   8.184  21.530  0.00  0.00    +0.000 C 
ATOM      5  N   UNL     1      -0.103   9.958  22.031  0.00  0.00    +0.000 NA
ATOM      6  C   UNL     1      -0.841  11.092  21.814  0.00  0.00    +0.000 C 
ATOM      7  C   UNL     1      -0.740  11.823  20.701  0.00  0.00    +0.000 C 
ATOM      8  C   UNL     1      -1.622  13.010  20.524  0.00  0.00    +0.000 C 
ATOM      9  O   UNL     1      -1.514  13.740  19.552  0.00  0.00    +0.000 OA
ATOM     10  C   UNL     1      -2.715  13.247  21.545  0.00  0.00    +0.000 C 
ATOM     11  C   UNL     1      -2.257  12.895  22.963  0.00  0.00    +0.000 C 
ATOM     12  C   UNL     1      -1.149  13.861  23.434  0.00  0.00    +0.000 C 
ATOM     13  C   UNL     1      -3.448  13.017  23.930  0.00  0.00    +0.000 C 
ATOM     14  C   UNL     1      -1.751  11.440  22.971  0.00  0.00    +0.000 C 
ATOM     15  C   UNL     1       0.217  11.479  19.590  0.00  0.00    +0.000 C 
ENDROOT
BRANCH  15  16
ATOM     16  C   UNL     1       1.324  12.527  19.488  0.00  0.00    +0.000 A 
ATOM     17  C   UNL     1       2.142  12.982  20.578  0.00  0.00    +0.000 A 
ATOM     18  C   UNL     1       3.077  13.908  20.184  0.00  0.00    +0.000 A 
ATOM     19  S   UNL     1       2.983  14.250  18.514  0.00  0.00    +0.000 S 
ATOM     20  C   UNL     1       1.677  13.168  18.311  0.00  0.00    +0.000 A 
ENDBRANCH  15  16
BRANCH   1  21
ATOM     21  O   UNL     1       1.504  10.135  17.473  0.00  0.00    +0.000 OA
ATOM     22  H   UNL     1       1.346   9.474  16.780  0.00  0.00    +0.000 HD
ENDBRANCH   1  21
BRANCH   1  23
ATOM     23  O   UNL     1       2.114   8.306  18.843  0.00  0.00    +0.000 OA
BRANCH  23  25
ATOM     24  C   UNL     1       3.073   6.318  18.045  0.00  0.00    +0.000 C 
ATOM     25  C   UNL     1       2.939   7.813  17.795  0.00  0.00    +0.000 C 
ENDBRANCH  23  25
ENDBRANCH   1  23
TORSDOF 4
ENDMDL
MODEL 3
REMARK VINA RESULT:      -6.2      2.496      4.976
REMARK  Name = 
REMARK  8 active torsions:
REMARK  status: ('A' for Active; 'I' for Inactive)
REMARK    1  A    between atoms: C_1  and  C_2
REMARK    2  A    between atoms: C_2  and  O_3
REMARK    3  A    between atoms: O_3  and  C_4
REMARK    4  A    between atoms: C_4  and  O_5
REMARK    5  A    between atoms: C_7  and  C_8
REMARK    6  A    between atoms: C_15  and  C_16
REMARK    7  A    between atoms: C_15  and  C_17
REMARK    8  A    between atoms: C_19  and  C_20
REMARK                            x       y       z     vdW  Elec       q    Type
REMARK                         _______ _______ _______ _____ _____    ______ ____
ROOT
ATOM      1  C   UNL     1       5.944   6.927  17.023  0.00  0.00    +0.000 C 
ATOM      2  C   UNL     1       5.297   6.048  17.810  0.00  0.00    +0.000 C 
ATOM      3  C   UNL     1       5.929   5.252  18.924  0.00  0.00    +0.000 C 
ATOM      4  C   UNL     1       7.354   5.466  19.400  0.00  0.00    +0.000 C 
ATOM      5  N   UNL     1       5.348   4.264  19.539  0.00  0.00    +0.000 NA
ATOM      6  C   UNL     1       4.075   3.880  19.208  0.00  0.00    +0.000 C 
ATOM      7  C   UNL     1       3.321   4.543  18.329  0.00  0.00    +0.000 C 
ATOM      8  C   UNL     1       1.968   4.023  17.987  0.00  0.00    +0.000 C 
ATOM      9  O   UNL     1       1.223   4.636  17.239  0.00  0.00    +0.000 OA
ATOM     10  C   UNL     1       1.565   2.668  18.530  0.00  0.00    +0.000 C 
ATOM     11  C   UNL     1       2.084   2.447  19.954  0.00  0.00    +0.000 C 
ATOM     12  C   UNL     1       1.397   3.416  20.940  0.00  0.00    +0.000 C 
ATOM     13  C   UNL     1       1.770   1.006  20.395  0.00  0.00    +0.000 C 
ATOM     14  C   UNL     1       3.610   2.653  19.961  0.00  0.00    +0.000 C 
ATOM     15  C   UNL     1       3.794   5.795  17.637  0.00  0.00    +0.000 C 
ENDROOT
BRANCH  15  16
ATOM     16  C   UNL     1       2.996   7.008  18.111  0.00  0.00    +0.000 A 
ATOM     17  C   UNL     1       2.572   8.102  17.281  0.00  0.00    +0.000 A 
ATOM     18  C   UNL     1       1.842   9.036  17.974  0.00  0.00    +0.000 A 
ATOM     19  S   UNL     1       1.662   8.624  19.620  0.00  0.00    +0.000 S 
ATOM     20  C   UNL     1       2.575   7.195  19.418  0.00  0.00    +0.000 A 
ENDBRANCH  15  16
BRANCH   1  21
ATOM     21  O   UNL     1       5.257   7.581  16.020  0.00  0.00    +0.000 OA
ATOM     22  H   UNL     1       4.371   7.186  15.962  0.00  0.00    +0.000 HD
ENDBRANCH   1  21
BRANCH   1  23
ATOM     23  O   UNL     1       7.246   7.266  17.260  0.00  0.00    +0.000 OA
BRANCH  23  25
ATOM     24  C   UNL     1       8.612   8.654  18.570  0.00  0.00    +0.000 C 
ATOM     25  C   UNL     1       7.609   8.631  17.426  0.00  0.00    +0.000 C 
ENDBRANCH  23  25
ENDBRANCH   1  23
TORSDOF 4
ENDMDL
MODEL 4
REMARK VINA RESULT:      -6.0      3.639      7.457
REMARK  Name = 
REMARK  8 active torsions:
REMARK  status: ('A' for Active; 'I' for Inactive)
REMARK    1  A    between atoms: C_1  and  C_2
REMARK    2  A    between atoms: C_2  and  O_3
REMARK    3  A    between atoms: O_3  and  C_4
REMARK    4  A    between atoms: C_4  and  O_5
REMARK    5  A    between atoms: C_7  and  C_8
REMARK    6  A    between atoms: C_15  and  C_16
REMARK    7  A    between atoms: C_15  and  C_17
REMARK    8  A    between atoms: C_19  and  C_20
REMARK                            x       y       z     vdW  Elec       q    Type
REMARK                         _______ _______ _______ _____ _____    ______ ____
ROOT
ATOM      1  C   UNL     1      -0.083  11.908  21.593  0.00  0.00    +0.000 C 
ATOM      2  C   UNL     1       0.328  10.714  21.128  0.00  0.00    +0.000 C 
ATOM      3  C   UNL     1       0.446   9.457  21.952  0.00  0.00    +0.000 C 
ATOM      4  C   UNL     1      -0.041   9.348  23.386  0.00  0.00    +0.000 C 
ATOM      5  N   UNL     1       1.034   8.369  21.548  0.00  0.00    +0.000 NA
ATOM      6  C   UNL     1       1.591   8.293  20.299  0.00  0.00    +0.000 C 
ATOM      7  C   UNL     1       1.479   9.265  19.392  0.00  0.00    +0.000 C 
ATOM      8  C   UNL     1       2.164   9.122  18.077  0.00  0.00    +0.000 C 
ATOM      9  O   UNL     1       2.031   9.959  17.199  0.00  0.00    +0.000 OA
ATOM     10  C   UNL     1       3.098   7.946  17.882  0.00  0.00    +0.000 C 
ATOM     11  C   UNL     1       2.569   6.680  18.562  0.00  0.00    +0.000 C 
ATOM     12  C   UNL     1       1.276   6.192  17.875  0.00  0.00    +0.000 C 
ATOM     13  C   UNL     1       3.624   5.564  18.454  0.00  0.00    +0.000 C 
ATOM     14  C   UNL     1       2.314   6.987  20.049  0.00  0.00    +0.000 C 
ATOM     15  C   UNL     1       0.704  10.532  19.653  0.00  0.00    +0.000 C 
ENDROOT
BRANCH  15  16
ATOM     16  C   UNL     1      -0.545  10.589  18.777  0.00  0.00    +0.000 A 
ATOM     17  C   UNL     1      -1.488   9.519  18.600  0.00  0.00    +0.000 A 
ATOM     18  C   UNL     1      -2.532   9.867  17.779  0.00  0.00    +0.000 A 
ATOM     19  S   UNL     1      -2.396  11.469  17.205  0.00  0.00    +0.000 S 
ATOM     20  C   UNL     1      -0.926  11.702  18.043  0.00  0.00    +0.000 A 
ENDBRANCH  15  16
BRANCH   1  21
ATOM     21  O   UNL     1      -0.130  12.994  20.741  0.00  0.00    +0.000 OA
ATOM     22  H   UNL     1       0.739  13.428  20.768  0.00  0.00    +0.000 HD
ENDBRANCH   1  21
BRANCH   1  23
ATOM     23  O   UNL     1      -0.557  12.049  22.867  0.00  0.00    +0.000 OA
BRANCH  23  25
ATOM     24  C   UNL     1      -2.859  12.130  23.314  0.00  0.00    +0.000 C 
ATOM     25  C   UNL     1      -1.603  12.971  23.142  0.00  0.00    +0.000 C 
ENDBRANCH  23  25
ENDBRANCH   1  23
TORSDOF 4
ENDMDL
MODEL 5
REMARK VINA RESULT:      -5.9      5.022      9.323
REMARK  Name = 
REMARK  8 active torsions:
REMARK  status: ('A' for Active; 'I' for Inactive)
REMARK    1  A    between atoms: C_1  and  C_2
REMARK    2  A    between atoms: C_2  and  O_3
REMARK    3  A    between atoms: O_3  and  C_4
REMARK    4  A    between atoms: C_4  and  O_5
REMARK    5  A    between atoms: C_7  and  C_8
REMARK    6  A    between atoms: C_15  and  C_16
REMARK    7  A    between atoms: C_15  and  C_17
REMARK    8  A    between atoms: C_19  and  C_20
REMARK                            x       y       z     vdW  Elec       q    Type
REMARK                         _______ _______ _______ _____ _____    ______ ____
ROOT
ATOM      1  C   UNL     1      -4.448  12.318  19.268  0.00  0.00    +0.000 C 
ATOM      2  C   UNL     1      -3.286  11.778  18.861  0.00  0.00    +0.000 C 
ATOM      3  C   UNL     1      -3.042  11.166  17.504  0.00  0.00    +0.000 C 
ATOM      4  C   UNL     1      -4.044  11.230  16.366  0.00  0.00    +0.000 C 
ATOM      5  N   UNL     1      -1.989  10.469  17.194  0.00  0.00    +0.000 NA
ATOM      6  C   UNL     1      -0.994  10.250  18.111  0.00  0.00    +0.000 C 
ATOM      7  C   UNL     1      -0.985  10.811  19.322  0.00  0.00    +0.000 C 
ATOM      8  C   UNL     1       0.107  10.474  20.276  0.00  0.00    +0.000 C 
ATOM      9  O   UNL     1       0.186  11.016  21.367  0.00  0.00    +0.000 OA
ATOM     10  C   UNL     1       1.078   9.377  19.892  0.00  0.00    +0.000 C 
ATOM     11  C   UNL     1       1.411   9.408  18.397  0.00  0.00    +0.000 C 
ATOM     12  C   UNL     1       2.198  10.687  18.041  0.00  0.00    +0.000 C 
ATOM     13  C   UNL     1       2.282   8.190  18.042  0.00  0.00    +0.000 C 
ATOM     14  C   UNL     1       0.097   9.336  17.597  0.00  0.00    +0.000 C 
ATOM     15  C   UNL     1      -2.060  11.762  19.782  0.00  0.00    +0.000 C 
ENDROOT
BRANCH  15  16
ATOM     16  C   UNL     1      -1.499  13.174  19.941  0.00  0.00    +0.000 A 
ATOM     17  C   UNL     1      -1.647  14.002  21.106  0.00  0.00    +0.000 A 
ATOM     18  C   UNL     1      -1.010  15.212  20.975  0.00  0.00    +0.000 A 
ATOM     19  S   UNL     1      -0.238  15.376  19.462  0.00  0.00    +0.000 S 
ATOM     20  C   UNL     1      -0.765  13.829  18.965  0.00  0.00    +0.000 A 
ENDBRANCH  15  16
BRANCH   1  21
ATOM     21  O   UNL     1      -4.554  12.830  20.546  0.00  0.00    +0.000 OA
ATOM     22  H   UNL     1      -4.753  12.092  21.145  0.00  0.00    +0.000 HD
ENDBRANCH   1  21
BRANCH   1  23
ATOM     23  O   UNL     1      -5.501  12.467  18.410  0.00  0.00    +0.000 OA
BRANCH  23  25
ATOM     24  C   UNL     1      -6.793  10.546  18.793  0.00  0.00    +0.000 C 
ATOM     25  C   UNL     1      -6.807  12.067  18.805  0.00  0.00    +0.000 C 
ENDBRANCH  23  25
ENDBRANCH   1  23
TORSDOF 4
ENDMDL
MODEL 6
REMARK VINA RESULT:      -5.9      2.328      5.590
REMARK  Name = 
REMARK  8 active torsions:
REMARK  status: ('A' for Active; 'I' for Inactive)
REMARK    1  A    between atoms: C_1  and  C_2
REMARK    2  A    between atoms: C_2  and  O_3
REMARK    3  A    between atoms: O_3  and  C_4
REMARK    4  A    between atoms: C_4  and  O_5
REMARK    5  A    between atoms: C_7  and  C_8
REMARK    6  A    between atoms: C_15  and  C_16
REMARK    7  A    between atoms: C_15  and  C_17
REMARK    8  A    between atoms: C_19  and  C_20
REMARK                            x       y       z     vdW  Elec       q    Type
REMARK                         _______ _______ _______ _____ _____    ______ ____
ROOT
ATOM      1  C   UNL     1       2.043   4.563  20.494  0.00  0.00    +0.000 C 
ATOM      2  C   UNL     1       2.679   4.597  19.309  0.00  0.00    +0.000 C 
ATOM      3  C   UNL     1       2.503   3.588  18.203  0.00  0.00    +0.000 C 
ATOM      4  C   UNL     1       1.458   2.488  18.231  0.00  0.00    +0.000 C 
ATOM      5  N   UNL     1       3.267   3.514  17.152  0.00  0.00    +0.000 NA
ATOM      6  C   UNL     1       4.307   4.388  16.974  0.00  0.00    +0.000 C 
ATOM      7  C   UNL     1       4.539   5.418  17.791  0.00  0.00    +0.000 C 
ATOM      8  C   UNL     1       5.725   6.286  17.555  0.00  0.00    +0.000 C 
ATOM      9  O   UNL     1       5.934   7.275  18.240  0.00  0.00    +0.000 OA
ATOM     10  C   UNL     1       6.717   5.866  16.490  0.00  0.00    +0.000 C 
ATOM     11  C   UNL     1       6.020   5.251  15.273  0.00  0.00    +0.000 C 
ATOM     12  C   UNL     1       5.173   6.311  14.537  0.00  0.00    +0.000 C 
ATOM     13  C   UNL     1       7.080   4.715  14.294  0.00  0.00    +0.000 C 
ATOM     14  C   UNL     1       5.138   4.081  15.748  0.00  0.00    +0.000 C 
ATOM     15  C   UNL     1       3.658   5.728  18.974  0.00  0.00    +0.000 C 
ENDROOT
BRANCH  15  16
ATOM     16  C   UNL     1       2.900   7.036  18.753  0.00  0.00    +0.000 A 
ATOM     17  C   UNL     1       2.771   7.721  17.496  0.00  0.00    +0.000 A 
ATOM     18  C   UNL     1       2.006   8.858  17.593  0.00  0.00    +0.000 A 
ATOM     19  S   UNL     1       1.441   9.124  19.182  0.00  0.00    +0.000 S 
ATOM     20  C   UNL     1       2.231   7.722  19.755  0.00  0.00    +0.000 A 
ENDBRANCH  15  16
BRANCH   1  21
ATOM     21  O   UNL     1       2.304   5.537  21.438  0.00  0.00    +0.000 OA
ATOM     22  H   UNL     1       1.791   6.326  21.199  0.00  0.00    +0.000 HD
ENDBRANCH   1  21
BRANCH   1  23
ATOM     23  O   UNL     1       1.064   3.644  20.749  0.00  0.00    +0.000 OA
BRANCH  23  25
ATOM     24  C   UNL     1       2.693   2.232  21.678  0.00  0.00    +0.000 C 
ATOM     25  C   UNL     1       1.241   2.679  21.778  0.00  0.00    +0.000 C 
ENDBRANCH  23  25
ENDBRANCH   1  23
TORSDOF 4
ENDMDL
MODEL 7
REMARK VINA RESULT:      -5.9      0.817      1.008
REMARK  Name = 
REMARK  8 active torsions:
REMARK  status: ('A' for Active; 'I' for Inactive)
REMARK    1  A    between atoms: C_1  and  C_2
REMARK    2  A    between atoms: C_2  and  O_3
REMARK    3  A    between atoms: O_3  and  C_4
REMARK    4  A    between atoms: C_4  and  O_5
REMARK    5  A    between atoms: C_7  and  C_8
REMARK    6  A    between atoms: C_15  and  C_16
REMARK    7  A    between atoms: C_15  and  C_17
REMARK    8  A    between atoms: C_19  and  C_20
REMARK                            x       y       z     vdW  Elec       q    Type
REMARK                         _______ _______ _______ _____ _____    ______ ____
ROOT
ATOM      1  C   UNL     1       5.288   5.099  18.210  0.00  0.00    +0.000 C 
ATOM      2  C   UNL     1       4.350   6.056  18.091  0.00  0.00    +0.000 C 
ATOM      3  C   UNL     1       4.226   7.009  16.929  0.00  0.00    +0.000 C 
ATOM      4  C   UNL     1       5.060   6.901  15.666  0.00  0.00    +0.000 C 
ATOM      5  N   UNL     1       3.450   8.053  16.919  0.00  0.00    +0.000 NA
ATOM      6  C   UNL     1       2.660   8.354  17.997  0.00  0.00    +0.000 C 
ATOM      7  C   UNL     1       2.551   7.559  19.063  0.00  0.00    +0.000 C 
ATOM      8  C   UNL     1       1.712   7.991  20.215  0.00  0.00    +0.000 C 
ATOM      9  O   UNL     1       1.536   7.263  21.179  0.00  0.00    +0.000 OA
ATOM     10  C   UNL     1       1.142   9.394  20.198  0.00  0.00    +0.000 C 
ATOM     11  C   UNL     1       0.709   9.816  18.791  0.00  0.00    +0.000 C 
ATOM     12  C   UNL     1      -0.489   8.967  18.313  0.00  0.00    +0.000 C 
ATOM     13  C   UNL     1       0.276  11.293  18.811  0.00  0.00    +0.000 C 
ATOM     14  C   UNL     1       1.906   9.656  17.836  0.00  0.00    +0.000 C 
ATOM     15  C   UNL     1       3.274   6.240  19.168  0.00  0.00    +0.000 C 
ENDROOT
BRANCH  15  16
ATOM     16  C   UNL     1       2.283   5.079  19.130  0.00  0.00    +0.000 A 
ATOM     17  C   UNL     1       1.619   4.589  17.954  0.00  0.00    +0.000 A 
ATOM     18  C   UNL     1       0.806   3.513  18.217  0.00  0.00    +0.000 A 
ATOM     19  S   UNL     1       0.820   3.082  19.869  0.00  0.00    +0.000 S 
ATOM     20  C   UNL     1       1.906   4.346  20.245  0.00  0.00    +0.000 A 
ENDBRANCH  15  16
BRANCH   1  21
ATOM     21  O   UNL     1       5.310   4.299  19.335  0.00  0.00    +0.000 OA
ATOM     22  H   UNL     1       6.187   4.386  19.744  0.00  0.00    +0.000 HD
ENDBRANCH   1  21
BRANCH   1  23
ATOM     23  O   UNL     1       6.162   4.831  17.194  0.00  0.00    +0.000 OA
BRANCH  23  25
ATOM     24  C   UNL     1       6.686   4.035  15.050  0.00  0.00    +0.000 C 
ATOM     25  C   UNL     1       5.941   3.718  16.338  0.00  0.00    +0.000 C 
ENDBRANCH  23  25
ENDBRANCH   1  23
TORSDOF 4
ENDMDL
MODEL 8
REMARK VINA RESULT:      -5.8      5.343      9.201
REMARK  Name = 
REMARK  8 active torsions:
REMARK  status: ('A' for Active; 'I' for Inactive)
REMARK    1  A    between atoms: C_1  and  C_2
REMARK    2  A    between atoms: C_2  and  O_3
REMARK    3  A    between atoms: O_3  and  C_4
REMARK    4  A    between atoms: C_4  and  O_5
REMARK    5  A    between atoms: C_7  and  C_8
REMARK    6  A    between atoms: C_15  and  C_16
REMARK    7  A    between atoms: C_15  and  C_17
REMARK    8  A    between atoms: C_19  and  C_20
REMARK                            x       y       z     vdW  Elec       q    Type
REMARK                         _______ _______ _______ _____ _____    ______ ____
ROOT
ATOM      1  C   UNL     1      -0.042  16.169  18.938  0.00  0.00    +0.000 C 
ATOM      2  C   UNL     1       0.415  14.904  18.956  0.00  0.00    +0.000 C 
ATOM      3  C   UNL     1       1.864  14.503  18.840  0.00  0.00    +0.000 C 
ATOM      4  C   UNL     1       3.010  15.498  18.849  0.00  0.00    +0.000 C 
ATOM      5  N   UNL     1       2.274  13.283  18.654  0.00  0.00    +0.000 NA
ATOM      6  C   UNL     1       1.381  12.247  18.559  0.00  0.00    +0.000 C 
ATOM      7  C   UNL     1       0.069  12.398  18.754  0.00  0.00    +0.000 C 
ATOM      8  C   UNL     1      -0.835  11.228  18.577  0.00  0.00    +0.000 C 
ATOM      9  O   UNL     1      -2.031  11.310  18.810  0.00  0.00    +0.000 OA
ATOM     10  C   UNL     1      -0.248   9.948  18.020  0.00  0.00    +0.000 C 
ATOM     11  C   UNL     1       1.166   9.692  18.551  0.00  0.00    +0.000 C 
ATOM     12  C   UNL     1       1.135   9.410  20.068  0.00  0.00    +0.000 C 
ATOM     13  C   UNL     1       1.763   8.463  17.843  0.00  0.00    +0.000 C 
ATOM     14  C   UNL     1       2.040  10.922  18.243  0.00  0.00    +0.000 C 
ATOM     15  C   UNL     1      -0.548  13.722  19.123  0.00  0.00    +0.000 C 
ENDROOT
BRANCH  15  16
ATOM     16  C   UNL     1      -1.095  13.683  20.548  0.00  0.00    +0.000 A 
ATOM     17  C   UNL     1      -0.326  13.401  21.728  0.00  0.00    +0.000 A 
ATOM     18  C   UNL     1      -1.078  13.466  22.876  0.00  0.00    +0.000 A 
ATOM     19  S   UNL     1      -2.709  13.856  22.558  0.00  0.00    +0.000 S 
ATOM     20  C   UNL     1      -2.420  13.926  20.876  0.00  0.00    +0.000 A 
ENDBRANCH  15  16
BRANCH   1  21
ATOM     21  O   UNL     1      -1.398  16.407  19.032  0.00  0.00    +0.000 OA
ATOM     22  H   UNL     1      -1.548  17.348  18.839  0.00  0.00    +0.000 HD
ENDBRANCH   1  21
BRANCH   1  23
ATOM     23  O   UNL     1       0.815  17.233  18.934  0.00  0.00    +0.000 OA
BRANCH  23  25
ATOM     24  C   UNL     1       1.055  18.271  16.843  0.00  0.00    +0.000 C 
ATOM     25  C   UNL     1       0.471  18.425  18.240  0.00  0.00    +0.000 C 
ENDBRANCH  23  25
ENDBRANCH   1  23
TORSDOF 4
ENDMDL
MODEL 9
REMARK VINA RESULT:      -5.8      6.177      8.575
REMARK  Name = 
REMARK  8 active torsions:
REMARK  status: ('A' for Active; 'I' for Inactive)
REMARK    1  A    between atoms: C_1  and  C_2
REMARK    2  A    between atoms: C_2  and  O_3
REMARK    3  A    between atoms: O_3  and  C_4
REMARK    4  A    between atoms: C_4  and  O_5
REMARK    5  A    between atoms: C_7  and  C_8
REMARK    6  A    between atoms: C_15  and  C_16
REMARK    7  A    between atoms: C_15  and  C_17
REMARK    8  A    between atoms: C_19  and  C_20
REMARK                            x       y       z     vdW  Elec       q    Type
REMARK                         _______ _______ _______ _____ _____    ______ ____
ROOT
ATOM      1  C   UNL     1      -1.591  10.902  18.407  0.00  0.00    +0.000 C 
ATOM      2  C   UNL     1      -1.762  11.803  19.392  0.00  0.00    +0.000 C 
ATOM      3  C   UNL     1      -3.076  12.446  19.759  0.00  0.00    +0.000 C 
ATOM      4  C   UNL     1      -4.406  12.034  19.157  0.00  0.00    +0.000 C 
ATOM      5  N   UNL     1      -3.194  13.458  20.568  0.00  0.00    +0.000 NA
ATOM      6  C   UNL     1      -2.094  14.012  21.168  0.00  0.00    +0.000 C 
ATOM      7  C   UNL     1      -0.867  13.500  21.053  0.00  0.00    +0.000 C 
ATOM      8  C   UNL     1       0.281  14.199  21.693  0.00  0.00    +0.000 C 
ATOM      9  O   UNL     1       1.406  13.728  21.665  0.00  0.00    +0.000 OA
ATOM     10  C   UNL     1       0.033  15.558  22.316  0.00  0.00    +0.000 C 
ATOM     11  C   UNL     1      -1.332  15.626  23.009  0.00  0.00    +0.000 C 
ATOM     12  C   UNL     1      -1.367  14.689  24.234  0.00  0.00    +0.000 C 
ATOM     13  C   UNL     1      -1.586  17.064  23.493  0.00  0.00    +0.000 C 
ATOM     14  C   UNL     1      -2.422  15.238  21.993  0.00  0.00    +0.000 C 
ATOM     15  C   UNL     1      -0.584  12.245  20.268  0.00  0.00    +0.000 C 
ENDROOT
BRANCH  15  16
ATOM     16  C   UNL     1      -0.163  11.110  21.200  0.00  0.00    +0.000 A 
ATOM     17  C   UNL     1      -0.856  10.713  22.394  0.00  0.00    +0.000 A 
ATOM     18  C   UNL     1      -0.263   9.641  23.015  0.00  0.00    +0.000 A 
ATOM     19  S   UNL     1       1.129   9.102  22.185  0.00  0.00    +0.000 S 
ATOM     20  C   UNL     1       0.954  10.314  20.995  0.00  0.00    +0.000 A 
ENDBRANCH  15  16
BRANCH   1  21
ATOM     21  O   UNL     1      -0.330  10.399  18.154  0.00  0.00    +0.000 OA
ATOM     22  H   UNL     1      -0.308  10.111  17.226  0.00  0.00    +0.000 HD
ENDBRANCH   1  21
BRANCH   1  23
ATOM     23  O   UNL     1      -2.654  10.395  17.716  0.00  0.00    +0.000 OA
BRANCH  23  25
ATOM     24  C   UNL     1      -3.093  10.930  15.473  0.00  0.00    +0.000 C 
ATOM     25  C   UNL     1      -2.475   9.892  16.398  0.00  0.00    +0.000 C 
ENDBRANCH  23  25
ENDBRANCH   1  23
TORSDOF 4
ENDMDL
