MODEL 1
REMARK VINA RESULT:      -8.2      0.000      0.000
REMARK  Name = 
REMARK  7 active torsions:
REMARK  status: ('A' for Active; 'I' for Inactive)
REMARK    1  A    between atoms: C_1  and  O_2
REMARK    2  A    between atoms: O_2  and  C_3
REMARK    3  A    between atoms: C_6  and  C_7
REMARK    4  A    between atoms: C_12  and  C_13
REMARK    5  A    between atoms: C_17  and  C_18
REMARK    6  A    between atoms: C_29  and  O_30
REMARK    7  A    between atoms: O_30  and  C_31
REMARK                            x       y       z     vdW  Elec       q    Type
REMARK                         _______ _______ _______ _____ _____    ______ ____
ROOT
ATOM      1  C   UNL     1      -0.931  12.200  21.714  0.00  0.00    +0.000 A 
ATOM      2  N   UNL     1      -0.424  12.597  20.557  0.00  0.00    +0.000 NA
ATOM      3  C   UNL     1       0.272  11.524  20.051  0.00  0.00    +0.000 A 
ATOM      4  C   UNL     1       0.961  11.387  18.838  0.00  0.00    +0.000 A 
ATOM      5  C   UNL     1       1.572  10.156  18.528  0.00  0.00    +0.000 A 
ATOM      6  C   UNL     1       1.513   9.058  19.404  0.00  0.00    +0.000 A 
ATOM      7  C   UNL     1       0.832   9.208  20.635  0.00  0.00    +0.000 A 
ATOM      8  C   UNL     1       0.228  10.445  20.918  0.00  0.00    +0.000 A 
ATOM      9  N   UNL     1      -0.501  10.913  21.985  0.00  0.00    +0.000 N 
ATOM     10  H   UNL     1      -0.729  10.381  22.811  0.00  0.00    +0.000 HD
ENDROOT
BRANCH   6  11
ATOM     11  C   UNL     1       2.142   7.756  19.085  0.00  0.00    +0.000 A 
ATOM     12  N   UNL     1       2.083   6.666  19.832  0.00  0.00    +0.000 NA
ATOM     13  C   UNL     1       2.824   5.703  19.188  0.00  0.00    +0.000 A 
ATOM     14  C   UNL     1       3.076   4.371  19.552  0.00  0.00    +0.000 A 
ATOM     15  C   UNL     1       3.882   3.578  18.721  0.00  0.00    +0.000 A 
ATOM     16  C   UNL     1       4.451   4.120  17.559  0.00  0.00    +0.000 A 
ATOM     17  C   UNL     1       4.195   5.449  17.174  0.00  0.00    +0.000 A 
ATOM     18  C   UNL     1       3.367   6.201  18.014  0.00  0.00    +0.000 A 
ATOM     19  N   UNL     1       2.889   7.490  17.950  0.00  0.00    +0.000 N 
ATOM     20  H   UNL     1       3.064   8.137  17.198  0.00  0.00    +0.000 HD
BRANCH  15  21
ATOM     21  C   UNL     1       4.118   2.147  19.064  0.00  0.00    +0.000 C 
ATOM     22  N   UNL     1       3.493   1.174  18.480  0.00  0.00    +0.000 NA
ATOM     23  N   UNL     1       5.022   1.784  20.017  0.00  0.00    +0.000 N 
ATOM     24  H   UNL     1       2.871   1.519  17.743  0.00  0.00    +0.000 HD
ATOM     25  H   UNL     1       5.022   2.349  20.857  0.00  0.00    +0.000 HD
ATOM     26  H   UNL     1       4.913   0.795  20.231  0.00  0.00    +0.000 HD
ENDBRANCH  15  21
ENDBRANCH   6  11
BRANCH   1  30
ATOM     27  C   UNL     1      -3.749  14.598  23.943  0.00  0.00    +0.000 A 
ATOM     28  C   UNL     1      -2.437  15.038  23.717  0.00  0.00    +0.000 A 
ATOM     29  C   UNL     1      -1.517  14.241  23.018  0.00  0.00    +0.000 A 
ATOM     30  C   UNL     1      -1.868  12.968  22.556  0.00  0.00    +0.000 A 
ATOM     31  C   UNL     1      -3.146  12.498  22.882  0.00  0.00    +0.000 A 
ATOM     32  C   UNL     1      -4.090  13.291  23.564  0.00  0.00    +0.000 A 
BRANCH  27  34
ATOM     33  C   UNL     1      -4.220  16.680  24.981  0.00  0.00    +0.000 C 
ATOM     34  O   UNL     1      -4.679  15.398  24.551  0.00  0.00    +0.000 OA
ENDBRANCH  27  34
BRANCH  32  35
ATOM     35  O   UNL     1      -5.272  12.620  23.732  0.00  0.00    +0.000 OA
ATOM     36  C   UNL     1      -6.349  12.851  22.840  0.00  0.00    +0.000 C 
ENDBRANCH  32  35
ENDBRANCH   1  30
TORSDOF 5
ENDMDL
MODEL 2
REMARK VINA RESULT:      -8.2      1.487      1.899
REMARK  Name = 
REMARK  7 active torsions:
REMARK  status: ('A' for Active; 'I' for Inactive)
REMARK    1  A    between atoms: C_1  and  O_2
REMARK    2  A    between atoms: O_2  and  C_3
REMARK    3  A    between atoms: C_6  and  C_7
REMARK    4  A    between atoms: C_12  and  C_13
REMARK    5  A    between atoms: C_17  and  C_18
REMARK    6  A    between atoms: C_29  and  O_30
REMARK    7  A    between atoms: O_30  and  C_31
REMARK                            x       y       z     vdW  Elec       q    Type
REMARK                         _______ _______ _______ _____ _____    ______ ____
ROOT
ATOM      1  C   UNL     1      -1.214  12.076  21.463  0.00  0.00    +0.000 A 
ATOM      2  N   UNL     1      -1.438  12.012  20.160  0.00  0.00    +0.000 NA
ATOM      3  C   UNL     1      -0.585  11.053  19.667  0.00  0.00    +0.000 A 
ATOM      4  C   UNL     1      -0.439  10.558  18.364  0.00  0.00    +0.000 A 
ATOM      5  C   UNL     1       0.495   9.532  18.116  0.00  0.00    +0.000 A 
ATOM      6  C   UNL     1       1.291   8.992  19.141  0.00  0.00    +0.000 A 
ATOM      7  C   UNL     1       1.152   9.508  20.451  0.00  0.00    +0.000 A 
ATOM      8  C   UNL     1       0.211  10.528  20.672  0.00  0.00    +0.000 A 
ATOM      9  N   UNL     1      -0.174  11.225  21.792  0.00  0.00    +0.000 N 
ATOM     10  H   UNL     1       0.206  11.096  22.717  0.00  0.00    +0.000 HD
ENDROOT
BRANCH   6  11
ATOM     11  C   UNL     1       2.268   7.907  18.896  0.00  0.00    +0.000 A 
ATOM     12  N   UNL     1       3.023   7.776  17.817  0.00  0.00    +0.000 NA
ATOM     13  C   UNL     1       3.755   6.624  17.983  0.00  0.00    +0.000 A 
ATOM     14  C   UNL     1       4.709   6.036  17.138  0.00  0.00    +0.000 A 
ATOM     15  C   UNL     1       5.323   4.837  17.531  0.00  0.00    +0.000 A 
ATOM     16  C   UNL     1       4.966   4.222  18.740  0.00  0.00    +0.000 A 
ATOM     17  C   UNL     1       4.023   4.807  19.604  0.00  0.00    +0.000 A 
ATOM     18  C   UNL     1       3.450   6.015  19.190  0.00  0.00    +0.000 A 
ATOM     19  N   UNL     1       2.536   6.866  19.768  0.00  0.00    +0.000 N 
ATOM     20  H   UNL     1       2.124   6.742  20.679  0.00  0.00    +0.000 HD
BRANCH  15  21
ATOM     21  C   UNL     1       6.376   4.226  16.670  0.00  0.00    +0.000 C 
ATOM     22  N   UNL     1       6.101   3.549  15.601  0.00  0.00    +0.000 NA
ATOM     23  N   UNL     1       7.699   4.358  16.966  0.00  0.00    +0.000 N 
ATOM     24  H   UNL     1       5.094   3.537  15.415  0.00  0.00    +0.000 HD
ATOM     25  H   UNL     1       7.942   4.252  17.944  0.00  0.00    +0.000 HD
ATOM     26  H   UNL     1       8.244   3.733  16.376  0.00  0.00    +0.000 HD
ENDBRANCH  15  21
ENDBRANCH   6  11
BRANCH   1  30
ATOM     27  C   UNL     1      -3.441  14.631  24.142  0.00  0.00    +0.000 A 
ATOM     28  C   UNL     1      -2.049  14.508  24.243  0.00  0.00    +0.000 A 
ATOM     29  C   UNL     1      -1.334  13.653  23.389  0.00  0.00    +0.000 A 
ATOM     30  C   UNL     1      -1.991  12.870  22.435  0.00  0.00    +0.000 A 
ATOM     31  C   UNL     1      -3.390  12.922  22.416  0.00  0.00    +0.000 A 
ATOM     32  C   UNL     1      -4.123  13.789  23.251  0.00  0.00    +0.000 A 
BRANCH  27  34
ATOM     33  C   UNL     1      -4.298  16.833  24.370  0.00  0.00    +0.000 C 
ATOM     34  O   UNL     1      -4.141  15.520  24.912  0.00  0.00    +0.000 OA
ENDBRANCH  27  34
BRANCH  32  35
ATOM     35  O   UNL     1      -5.469  13.677  23.020  0.00  0.00    +0.000 OA
ATOM     36  C   UNL     1      -6.262  12.847  23.852  0.00  0.00    +0.000 C 
ENDBRANCH  32  35
ENDBRANCH   1  30
TORSDOF 5
ENDMDL
MODEL 3
REMARK VINA RESULT:      -8.2      2.767      3.753
REMARK  Name = 
REMARK  7 active torsions:
REMARK  status: ('A' for Active; 'I' for Inactive)
REMARK    1  A    between atoms: C_1  and  O_2
REMARK    2  A    between atoms: O_2  and  C_3
REMARK    3  A    between atoms: C_6  and  C_7
REMARK    4  A    between atoms: C_12  and  C_13
REMARK    5  A    between atoms: C_17  and  C_18
REMARK    6  A    between atoms: C_29  and  O_30
REMARK    7  A    between atoms: O_30  and  C_31
REMARK                            x       y       z     vdW  Elec       q    Type
REMARK                         _______ _______ _______ _____ _____    ______ ____
ROOT
ATOM      1  C   UNL     1      -0.760  11.618  20.294  0.00  0.00    +0.000 A 
ATOM      2  N   UNL     1      -0.503  10.796  21.299  0.00  0.00    +0.000 NA
ATOM      3  C   UNL     1       0.285   9.792  20.787  0.00  0.00    +0.000 A 
ATOM      4  C   UNL     1       0.874   8.692  21.426  0.00  0.00    +0.000 A 
ATOM      5  C   UNL     1       1.681   7.812  20.679  0.00  0.00    +0.000 A 
ATOM      6  C   UNL     1       1.911   8.003  19.305  0.00  0.00    +0.000 A 
ATOM      7  C   UNL     1       1.300   9.105  18.662  0.00  0.00    +0.000 A 
ATOM      8  C   UNL     1       0.502   9.970  19.431  0.00  0.00    +0.000 A 
ATOM      9  N   UNL     1      -0.207  11.108  19.132  0.00  0.00    +0.000 N 
ATOM     10  H   UNL     1      -0.270  11.531  18.219  0.00  0.00    +0.000 HD
ENDROOT
BRANCH   6  11
ATOM     11  C   UNL     1       2.766   7.091  18.511  0.00  0.00    +0.000 A 
ATOM     12  N   UNL     1       3.565   7.449  17.519  0.00  0.00    +0.000 NA
ATOM     13  C   UNL     1       4.143   6.297  17.041  0.00  0.00    +0.000 A 
ATOM     14  C   UNL     1       5.071   6.123  16.002  0.00  0.00    +0.000 A 
ATOM     15  C   UNL     1       5.511   4.827  15.691  0.00  0.00    +0.000 A 
ATOM     16  C   UNL     1       5.008   3.721  16.392  0.00  0.00    +0.000 A 
ATOM     17  C   UNL     1       4.089   3.881  17.444  0.00  0.00    +0.000 A 
ATOM     18  C   UNL     1       3.692   5.190  17.742  0.00  0.00    +0.000 A 
ATOM     19  N   UNL     1       2.852   5.721  18.693  0.00  0.00    +0.000 N 
ATOM     20  H   UNL     1       2.371   5.193  19.403  0.00  0.00    +0.000 HD
BRANCH  15  21
ATOM     21  C   UNL     1       6.536   4.627  14.627  0.00  0.00    +0.000 C 
ATOM     22  N   UNL     1       6.445   3.694  13.733  0.00  0.00    +0.000 NA
ATOM     23  N   UNL     1       7.631   5.433  14.535  0.00  0.00    +0.000 N 
ATOM     24  H   UNL     1       5.574   3.164  13.833  0.00  0.00    +0.000 HD
ATOM     25  H   UNL     1       8.079   5.663  15.414  0.00  0.00    +0.000 HD
ATOM     26  H   UNL     1       8.291   5.036  13.871  0.00  0.00    +0.000 HD
ENDBRANCH  15  21
ENDBRANCH   6  11
BRANCH   1  30
ATOM     27  C   UNL     1      -2.742  15.412  20.871  0.00  0.00    +0.000 A 
ATOM     28  C   UNL     1      -3.415  14.201  21.082  0.00  0.00    +0.000 A 
ATOM     29  C   UNL     1      -2.774  12.970  20.864  0.00  0.00    +0.000 A 
ATOM     30  C   UNL     1      -1.457  12.914  20.394  0.00  0.00    +0.000 A 
ATOM     31  C   UNL     1      -0.835  14.130  20.086  0.00  0.00    +0.000 A 
ATOM     32  C   UNL     1      -1.454  15.375  20.318  0.00  0.00    +0.000 A 
BRANCH  27  34
ATOM     33  C   UNL     1      -3.171  17.088  22.497  0.00  0.00    +0.000 C 
ATOM     34  O   UNL     1      -3.328  16.616  21.158  0.00  0.00    +0.000 OA
ENDBRANCH  27  34
BRANCH  32  35
ATOM     35  O   UNL     1      -0.630  16.411  19.966  0.00  0.00    +0.000 OA
ATOM     36  C   UNL     1      -0.687  16.945  18.654  0.00  0.00    +0.000 C 
ENDBRANCH  32  35
ENDBRANCH   1  30
TORSDOF 5
ENDMDL
MODEL 4
REMARK VINA RESULT:      -8.1      2.547      3.469
REMARK  Name = 
REMARK  7 active torsions:
REMARK  status: ('A' for Active; 'I' for Inactive)
REMARK    1  A    between atoms: C_1  and  O_2
REMARK    2  A    between atoms: O_2  and  C_3
REMARK    3  A    between atoms: C_6  and  C_7
REMARK    4  A    between atoms: C_12  and  C_13
REMARK    5  A    between atoms: C_17  and  C_18
REMARK    6  A    between atoms: C_29  and  O_30
REMARK    7  A    between atoms: O_30  and  C_31
REMARK                            x       y       z     vdW  Elec       q    Type
REMARK                         _______ _______ _______ _____ _____    ______ ____
ROOT
ATOM      1  C   UNL     1      -0.362  11.427  20.431  0.00  0.00    +0.000 A 
ATOM      2  N   UNL     1      -0.229  10.484  21.351  0.00  0.00    +0.000 NA
ATOM      3  C   UNL     1       0.536   9.493  20.781  0.00  0.00    +0.000 A 
ATOM      4  C   UNL     1       1.012   8.294  21.327  0.00  0.00    +0.000 A 
ATOM      5  C   UNL     1       1.820   7.450  20.539  0.00  0.00    +0.000 A 
ATOM      6  C   UNL     1       2.162   7.776  19.216  0.00  0.00    +0.000 A 
ATOM      7  C   UNL     1       1.664   8.980  18.663  0.00  0.00    +0.000 A 
ATOM      8  C   UNL     1       0.863   9.805  19.471  0.00  0.00    +0.000 A 
ATOM      9  N   UNL     1       0.244  11.014  19.258  0.00  0.00    +0.000 N 
ATOM     10  H   UNL     1       0.274  11.538  18.398  0.00  0.00    +0.000 HD
ENDROOT
BRANCH   6  11
ATOM     11  C   UNL     1       3.019   6.904  18.381  0.00  0.00    +0.000 A 
ATOM     12  N   UNL     1       3.768   7.300  17.365  0.00  0.00    +0.000 NA
ATOM     13  C   UNL     1       4.369   6.174  16.853  0.00  0.00    +0.000 A 
ATOM     14  C   UNL     1       5.264   6.044  15.780  0.00  0.00    +0.000 A 
ATOM     15  C   UNL     1       5.739   4.768  15.439  0.00  0.00    +0.000 A 
ATOM     16  C   UNL     1       5.301   3.637  16.145  0.00  0.00    +0.000 A 
ATOM     17  C   UNL     1       4.416   3.754  17.232  0.00  0.00    +0.000 A 
ATOM     18  C   UNL     1       3.984   5.045  17.558  0.00  0.00    +0.000 A 
ATOM     19  N   UNL     1       3.160   5.536  18.544  0.00  0.00    +0.000 N 
ATOM     20  H   UNL     1       2.725   4.983  19.265  0.00  0.00    +0.000 HD
BRANCH  15  21
ATOM     21  C   UNL     1       6.730   4.615  14.336  0.00  0.00    +0.000 C 
ATOM     22  N   UNL     1       7.755   5.396  14.202  0.00  0.00    +0.000 NA
ATOM     23  N   UNL     1       6.611   3.628  13.405  0.00  0.00    +0.000 N 
ATOM     24  H   UNL     1       7.807   6.078  14.964  0.00  0.00    +0.000 HD
ATOM     25  H   UNL     1       5.673   3.465  13.058  0.00  0.00    +0.000 HD
ATOM     26  H   UNL     1       7.267   3.793  12.646  0.00  0.00    +0.000 HD
ENDBRANCH  15  21
ENDBRANCH   6  11
BRANCH   1  30
ATOM     27  C   UNL     1      -2.335  15.255  20.769  0.00  0.00    +0.000 A 
ATOM     28  C   UNL     1      -1.131  15.117  20.065  0.00  0.00    +0.000 A 
ATOM     29  C   UNL     1      -0.479  13.876  19.984  0.00  0.00    +0.000 A 
ATOM     30  C   UNL     1      -0.990  12.747  20.633  0.00  0.00    +0.000 A 
ATOM     31  C   UNL     1      -2.134  12.924  21.420  0.00  0.00    +0.000 A 
ATOM     32  C   UNL     1      -2.814  14.156  21.497  0.00  0.00    +0.000 A 
BRANCH  27  34
ATOM     33  C   UNL     1      -2.329  17.577  20.272  0.00  0.00    +0.000 C 
ATOM     34  O   UNL     1      -3.023  16.439  20.787  0.00  0.00    +0.000 OA
ENDBRANCH  27  34
BRANCH  32  35
ATOM     35  O   UNL     1      -3.919  14.063  22.301  0.00  0.00    +0.000 OA
ATOM     36  C   UNL     1      -4.198  12.850  22.979  0.00  0.00    +0.000 C 
ENDBRANCH  32  35
ENDBRANCH   1  30
TORSDOF 5
ENDMDL
MODEL 5
REMARK VINA RESULT:      -8.1      1.070      2.033
REMARK  Name = 
REMARK  7 active torsions:
REMARK  status: ('A' for Active; 'I' for Inactive)
REMARK    1  A    between atoms: C_1  and  O_2
REMARK    2  A    between atoms: O_2  and  C_3
REMARK    3  A    between atoms: C_6  and  C_7
REMARK    4  A    between atoms: C_12  and  C_13
REMARK    5  A    between atoms: C_17  and  C_18
REMARK    6  A    between atoms: C_29  and  O_30
REMARK    7  A    between atoms: O_30  and  C_31
REMARK                            x       y       z     vdW  Elec       q    Type
REMARK                         _______ _______ _______ _____ _____    ______ ____
ROOT
ATOM      1  C   UNL     1      -0.399  12.119  21.566  0.00  0.00    +0.000 A 
ATOM      2  N   UNL     1      -0.091  12.386  20.306  0.00  0.00    +0.000 NA
ATOM      3  C   UNL     1       0.540  11.267  19.816  0.00  0.00    +0.000 A 
ATOM      4  C   UNL     1       1.031  10.998  18.531  0.00  0.00    +0.000 A 
ATOM      5  C   UNL     1       1.614   9.742  18.265  0.00  0.00    +0.000 A 
ATOM      6  C   UNL     1       1.719   8.750  19.254  0.00  0.00    +0.000 A 
ATOM      7  C   UNL     1       1.238   9.033  20.554  0.00  0.00    +0.000 A 
ATOM      8  C   UNL     1       0.659  10.292  20.793  0.00  0.00    +0.000 A 
ATOM      9  N   UNL     1       0.097  10.872  21.905  0.00  0.00    +0.000 N 
ATOM     10  H   UNL     1       0.014  10.436  22.809  0.00  0.00    +0.000 HD
ENDROOT
BRANCH   6  11
ATOM     11  C   UNL     1       2.319   7.423  18.984  0.00  0.00    +0.000 A 
ATOM     12  N   UNL     1       2.411   6.426  19.849  0.00  0.00    +0.000 NA
ATOM     13  C   UNL     1       3.060   5.400  19.204  0.00  0.00    +0.000 A 
ATOM     14  C   UNL     1       3.401   4.121  19.668  0.00  0.00    +0.000 A 
ATOM     15  C   UNL     1       4.079   3.241  18.810  0.00  0.00    +0.000 A 
ATOM     16  C   UNL     1       4.434   3.648  17.515  0.00  0.00    +0.000 A 
ATOM     17  C   UNL     1       4.085   4.922  17.031  0.00  0.00    +0.000 A 
ATOM     18  C   UNL     1       3.388   5.762  17.907  0.00  0.00    +0.000 A 
ATOM     19  N   UNL     1       2.874   7.032  17.778  0.00  0.00    +0.000 N 
ATOM     20  H   UNL     1       2.906   7.588  16.939  0.00  0.00    +0.000 HD
BRANCH  15  21
ATOM     21  C   UNL     1       4.404   1.860  19.268  0.00  0.00    +0.000 C 
ATOM     22  N   UNL     1       5.093   1.621  20.338  0.00  0.00    +0.000 NA
ATOM     23  N   UNL     1       3.979   0.765  18.577  0.00  0.00    +0.000 N 
ATOM     24  H   UNL     1       5.332   2.486  20.830  0.00  0.00    +0.000 HD
ATOM     25  H   UNL     1       4.056   0.826  17.569  0.00  0.00    +0.000 HD
ATOM     26  H   UNL     1       4.442  -0.066  18.938  0.00  0.00    +0.000 HD
ENDBRANCH  15  21
ENDBRANCH   6  11
BRANCH   1  30
ATOM     27  C   UNL     1      -2.686  14.448  24.395  0.00  0.00    +0.000 A 
ATOM     28  C   UNL     1      -3.221  13.298  23.798  0.00  0.00    +0.000 A 
ATOM     29  C   UNL     1      -2.484  12.562  22.856  0.00  0.00    +0.000 A 
ATOM     30  C   UNL     1      -1.208  12.972  22.457  0.00  0.00    +0.000 A 
ATOM     31  C   UNL     1      -0.729  14.179  22.981  0.00  0.00    +0.000 A 
ATOM     32  C   UNL     1      -1.446  14.921  23.942  0.00  0.00    +0.000 A 
BRANCH  27  34
ATOM     33  C   UNL     1      -4.151  16.235  24.939  0.00  0.00    +0.000 C 
ATOM     34  O   UNL     1      -3.360  15.128  25.374  0.00  0.00    +0.000 OA
ENDBRANCH  27  34
BRANCH  32  35
ATOM     35  O   UNL     1      -0.753  16.041  24.320  0.00  0.00    +0.000 OA
ATOM     36  C   UNL     1      -0.729  17.176  23.471  0.00  0.00    +0.000 C 
ENDBRANCH  32  35
ENDBRANCH   1  30
TORSDOF 5
ENDMDL
MODEL 6
REMARK VINA RESULT:      -8.0      1.817      2.349
REMARK  Name = 
REMARK  7 active torsions:
REMARK  status: ('A' for Active; 'I' for Inactive)
REMARK    1  A    between atoms: C_1  and  O_2
REMARK    2  A    between atoms: O_2  and  C_3
REMARK    3  A    between atoms: C_6  and  C_7
REMARK    4  A    between atoms: C_12  and  C_13
REMARK    5  A    between atoms: C_17  and  C_18
REMARK    6  A    between atoms: C_29  and  O_30
REMARK    7  A    between atoms: O_30  and  C_31
REMARK                            x       y       z     vdW  Elec       q    Type
REMARK                         _______ _______ _______ _____ _____    ______ ____
ROOT
ATOM      1  C   UNL     1      -1.625  12.147  20.703  0.00  0.00    +0.000 A 
ATOM      2  N   UNL     1      -1.959  11.794  19.471  0.00  0.00    +0.000 NA
ATOM      3  C   UNL     1      -1.008  10.891  19.057  0.00  0.00    +0.000 A 
ATOM      4  C   UNL     1      -0.907  10.175  17.856  0.00  0.00    +0.000 A 
ATOM      5  C   UNL     1       0.157   9.267  17.682  0.00  0.00    +0.000 A 
ATOM      6  C   UNL     1       1.124   9.061  18.680  0.00  0.00    +0.000 A 
ATOM      7  C   UNL     1       1.028   9.799  19.883  0.00  0.00    +0.000 A 
ATOM      8  C   UNL     1      -0.045  10.695  20.033  0.00  0.00    +0.000 A 
ATOM      9  N   UNL     1      -0.432  11.536  21.048  0.00  0.00    +0.000 N 
ATOM     10  H   UNL     1       0.050  11.648  21.926  0.00  0.00    +0.000 HD
ENDROOT
BRANCH   6  11
ATOM     11  C   UNL     1       2.241   8.102  18.514  0.00  0.00    +0.000 A 
ATOM     12  N   UNL     1       3.158   8.141  17.560  0.00  0.00    +0.000 NA
ATOM     13  C   UNL     1       3.979   7.056  17.756  0.00  0.00    +0.000 A 
ATOM     14  C   UNL     1       5.107   6.641  17.031  0.00  0.00    +0.000 A 
ATOM     15  C   UNL     1       5.783   5.477  17.427  0.00  0.00    +0.000 A 
ATOM     16  C   UNL     1       5.319   4.725  18.517  0.00  0.00    +0.000 A 
ATOM     17  C   UNL     1       4.200   5.136  19.262  0.00  0.00    +0.000 A 
ATOM     18  C   UNL     1       3.566   6.315  18.852  0.00  0.00    +0.000 A 
ATOM     19  N   UNL     1       2.488   7.018  19.339  0.00  0.00    +0.000 N 
ATOM     20  H   UNL     1       1.961   6.775  20.162  0.00  0.00    +0.000 HD
BRANCH  15  21
ATOM     21  C   UNL     1       7.013   5.050  16.702  0.00  0.00    +0.000 C 
ATOM     22  N   UNL     1       7.862   4.207  17.197  0.00  0.00    +0.000 NA
ATOM     23  N   UNL     1       7.306   5.527  15.459  0.00  0.00    +0.000 N 
ATOM     24  H   UNL     1       7.551   3.854  18.107  0.00  0.00    +0.000 HD
ATOM     25  H   UNL     1       7.144   6.517  15.321  0.00  0.00    +0.000 HD
ATOM     26  H   UNL     1       8.256   5.265  15.209  0.00  0.00    +0.000 HD
ENDBRANCH  15  21
ENDBRANCH   6  11
BRANCH   1  30
ATOM     27  C   UNL     1      -4.054  14.782  23.114  0.00  0.00    +0.000 A 
ATOM     28  C   UNL     1      -2.734  15.113  22.780  0.00  0.00    +0.000 A 
ATOM     29  C   UNL     1      -1.939  14.238  22.021  0.00  0.00    +0.000 A 
ATOM     30  C   UNL     1      -2.427  12.995  21.606  0.00  0.00    +0.000 A 
ATOM     31  C   UNL     1      -3.709  12.633  22.037  0.00  0.00    +0.000 A 
ATOM     32  C   UNL     1      -4.529  13.505  22.782  0.00  0.00    +0.000 A 
BRANCH  27  34
ATOM     33  C   UNL     1      -4.262  16.379  24.859  0.00  0.00    +0.000 C 
ATOM     34  O   UNL     1      -4.866  15.660  23.782  0.00  0.00    +0.000 OA
ENDBRANCH  27  34
BRANCH  32  35
ATOM     35  O   UNL     1      -5.744  12.934  23.051  0.00  0.00    +0.000 OA
ATOM     36  C   UNL     1      -6.633  12.631  21.989  0.00  0.00    +0.000 C 
ENDBRANCH  32  35
ENDBRANCH   1  30
TORSDOF 5
ENDMDL
MODEL 7
REMARK VINA RESULT:      -8.0      1.154      1.725
REMARK  Name = 
REMARK  7 active torsions:
REMARK  status: ('A' for Active; 'I' for Inactive)
REMARK    1  A    between atoms: C_1  and  O_2
REMARK    2  A    between atoms: O_2  and  C_3
REMARK    3  A    between atoms: C_6  and  C_7
REMARK    4  A    between atoms: C_12  and  C_13
REMARK    5  A    between atoms: C_17  and  C_18
REMARK    6  A    between atoms: C_29  and  O_30
REMARK    7  A    between atoms: O_30  and  C_31
REMARK                            x       y       z     vdW  Elec       q    Type
REMARK                         _______ _______ _______ _____ _____    ______ ____
ROOT
ATOM      1  C   UNL     1      -1.067  12.697  22.503  0.00  0.00    +0.000 A 
ATOM      2  N   UNL     1      -0.523  12.978  21.329  0.00  0.00    +0.000 NA
ATOM      3  C   UNL     1       0.078  11.821  20.894  0.00  0.00    +0.000 A 
ATOM      4  C   UNL     1       0.757  11.551  19.698  0.00  0.00    +0.000 A 
ATOM      5  C   UNL     1       1.260  10.255  19.467  0.00  0.00    +0.000 A 
ATOM      6  C   UNL     1       1.101   9.221  20.407  0.00  0.00    +0.000 A 
ATOM      7  C   UNL     1       0.430   9.504  21.620  0.00  0.00    +0.000 A 
ATOM      8  C   UNL     1      -0.064  10.804  21.824  0.00  0.00    +0.000 A 
ATOM      9  N   UNL     1      -0.753  11.396  22.854  0.00  0.00    +0.000 N 
ATOM     10  H   UNL     1      -1.031  10.937  23.708  0.00  0.00    +0.000 HD
ENDROOT
BRANCH   6  11
ATOM     11  C   UNL     1       1.614   7.853  20.172  0.00  0.00    +0.000 A 
ATOM     12  N   UNL     1       2.242   7.438  19.083  0.00  0.00    +0.000 NA
ATOM     13  C   UNL     1       2.513   6.103  19.265  0.00  0.00    +0.000 A 
ATOM     14  C   UNL     1       3.168   5.196  18.418  0.00  0.00    +0.000 A 
ATOM     15  C   UNL     1       3.317   3.863  18.830  0.00  0.00    +0.000 A 
ATOM     16  C   UNL     1       2.794   3.439  20.061  0.00  0.00    +0.000 A 
ATOM     17  C   UNL     1       2.149   4.340  20.927  0.00  0.00    +0.000 A 
ATOM     18  C   UNL     1       2.041   5.666  20.493  0.00  0.00    +0.000 A 
ATOM     19  N   UNL     1       1.511   6.800  21.065  0.00  0.00    +0.000 N 
ATOM     20  H   UNL     1       1.106   6.850  21.986  0.00  0.00    +0.000 HD
BRANCH  15  21
ATOM     21  C   UNL     1       4.056   2.897  17.967  0.00  0.00    +0.000 C 
ATOM     22  N   UNL     1       4.911   3.272  17.070  0.00  0.00    +0.000 NA
ATOM     23  N   UNL     1       3.870   1.553  18.085  0.00  0.00    +0.000 N 
ATOM     24  H   UNL     1       5.036   4.289  17.074  0.00  0.00    +0.000 HD
ATOM     25  H   UNL     1       2.910   1.252  18.204  0.00  0.00    +0.000 HD
ATOM     26  H   UNL     1       4.317   1.077  17.305  0.00  0.00    +0.000 HD
ENDBRANCH  15  21
ENDBRANCH   6  11
BRANCH   1  30
ATOM     27  C   UNL     1      -3.607  15.506  24.582  0.00  0.00    +0.000 A 
ATOM     28  C   UNL     1      -2.211  15.621  24.620  0.00  0.00    +0.000 A 
ATOM     29  C   UNL     1      -1.390  14.688  23.967  0.00  0.00    +0.000 A 
ATOM     30  C   UNL     1      -1.937  13.594  23.289  0.00  0.00    +0.000 A 
ATOM     31  C   UNL     1      -3.326  13.432  23.350  0.00  0.00    +0.000 A 
ATOM     32  C   UNL     1      -4.168  14.369  23.982  0.00  0.00    +0.000 A 
BRANCH  27  34
ATOM     33  C   UNL     1      -3.869  17.766  25.259  0.00  0.00    +0.000 C 
ATOM     34  O   UNL     1      -4.421  16.453  25.144  0.00  0.00    +0.000 OA
ENDBRANCH  27  34
BRANCH  32  35
ATOM     35  O   UNL     1      -5.484  14.003  23.876  0.00  0.00    +0.000 OA
ATOM     36  C   UNL     1      -6.167  14.174  22.645  0.00  0.00    +0.000 C 
ENDBRANCH  32  35
ENDBRANCH   1  30
TORSDOF 5
ENDMDL
MODEL 8
REMARK VINA RESULT:      -8.0      2.539      3.702
REMARK  Name = 
REMARK  7 active torsions:
REMARK  status: ('A' for Active; 'I' for Inactive)
REMARK    1  A    between atoms: C_1  and  O_2
REMARK    2  A    between atoms: O_2  and  C_3
REMARK    3  A    between atoms: C_6  and  C_7
REMARK    4  A    between atoms: C_12  and  C_13
REMARK    5  A    between atoms: C_17  and  C_18
REMARK    6  A    between atoms: C_29  and  O_30
REMARK    7  A    between atoms: O_30  and  C_31
REMARK                            x       y       z     vdW  Elec       q    Type
REMARK                         _______ _______ _______ _____ _____    ______ ____
ROOT
ATOM      1  C   UNL     1      -0.707  11.458  20.525  0.00  0.00    +0.000 A 
ATOM      2  N   UNL     1      -0.466  10.582  21.488  0.00  0.00    +0.000 NA
ATOM      3  C   UNL     1       0.326   9.604  20.933  0.00  0.00    +0.000 A 
ATOM      4  C   UNL     1       0.903   8.470  21.520  0.00  0.00    +0.000 A 
ATOM      5  C   UNL     1       1.717   7.627  20.737  0.00  0.00    +0.000 A 
ATOM      6  C   UNL     1       1.964   7.890  19.379  0.00  0.00    +0.000 A 
ATOM      7  C   UNL     1       1.364   9.027  18.787  0.00  0.00    +0.000 A 
ATOM      8  C   UNL     1       0.560   9.853  19.591  0.00  0.00    +0.000 A 
ATOM      9  N   UNL     1      -0.142  11.008  19.344  0.00  0.00    +0.000 N 
ATOM     10  H   UNL     1      -0.193  11.479  18.455  0.00  0.00    +0.000 HD
ENDROOT
BRANCH   6  11
ATOM     11  C   UNL     1       2.825   7.019  18.548  0.00  0.00    +0.000 A 
ATOM     12  N   UNL     1       3.663   7.428  17.609  0.00  0.00    +0.000 NA
ATOM     13  C   UNL     1       4.233   6.301  17.066  0.00  0.00    +0.000 A 
ATOM     14  C   UNL     1       5.190   6.180  16.047  0.00  0.00    +0.000 A 
ATOM     15  C   UNL     1       5.615   4.900  15.657  0.00  0.00    +0.000 A 
ATOM     16  C   UNL     1       5.067   3.758  16.261  0.00  0.00    +0.000 A 
ATOM     17  C   UNL     1       4.118   3.864  17.294  0.00  0.00    +0.000 A 
ATOM     18  C   UNL     1       3.738   5.157  17.672  0.00  0.00    +0.000 A 
ATOM     19  N   UNL     1       2.878   5.638  18.633  0.00  0.00    +0.000 N 
ATOM     20  H   UNL     1       2.365   5.070  19.288  0.00  0.00    +0.000 HD
BRANCH  15  21
ATOM     21  C   UNL     1       6.668   4.754  14.613  0.00  0.00    +0.000 C 
ATOM     22  N   UNL     1       7.717   5.513  14.565  0.00  0.00    +0.000 NA
ATOM     23  N   UNL     1       6.584   3.795  13.648  0.00  0.00    +0.000 N 
ATOM     24  H   UNL     1       7.738   6.172  15.348  0.00  0.00    +0.000 HD
ATOM     25  H   UNL     1       5.666   3.666  13.240  0.00  0.00    +0.000 HD
ATOM     26  H   UNL     1       7.289   3.966  12.936  0.00  0.00    +0.000 HD
ENDBRANCH  15  21
ENDBRANCH   6  11
BRANCH   1  30
ATOM     27  C   UNL     1      -2.810  15.158  21.265  0.00  0.00    +0.000 A 
ATOM     28  C   UNL     1      -3.486  14.013  20.822  0.00  0.00    +0.000 A 
ATOM     29  C   UNL     1      -2.793  12.822  20.554  0.00  0.00    +0.000 A 
ATOM     30  C   UNL     1      -1.402  12.749  20.686  0.00  0.00    +0.000 A 
ATOM     31  C   UNL     1      -0.728  13.929  21.025  0.00  0.00    +0.000 A 
ATOM     32  C   UNL     1      -1.409  15.129  21.317  0.00  0.00    +0.000 A 
BRANCH  27  34
ATOM     33  C   UNL     1      -4.892  16.167  21.797  0.00  0.00    +0.000 C 
ATOM     34  O   UNL     1      -3.482  16.301  21.607  0.00  0.00    +0.000 OA
ENDBRANCH  27  34
BRANCH  32  35
ATOM     35  O   UNL     1      -0.531  16.126  21.653  0.00  0.00    +0.000 OA
ATOM     36  C   UNL     1       0.734  15.798  22.202  0.00  0.00    +0.000 C 
ENDBRANCH  32  35
ENDBRANCH   1  30
TORSDOF 5
ENDMDL
MODEL 9
REMARK VINA RESULT:      -7.9      4.496     11.556
REMARK  Name = 
REMARK  7 active torsions:
REMARK  status: ('A' for Active; 'I' for Inactive)
REMARK    1  A    between atoms: C_1  and  O_2
REMARK    2  A    between atoms: O_2  and  C_3
REMARK    3  A    between atoms: C_6  and  C_7
REMARK    4  A    between atoms: C_12  and  C_13
REMARK    5  A    between atoms: C_17  and  C_18
REMARK    6  A    between atoms: C_29  and  O_30
REMARK    7  A    between atoms: O_30  and  C_31
REMARK                            x       y       z     vdW  Elec       q    Type
REMARK                         _______ _______ _______ _____ _____    ______ ____
ROOT
ATOM      1  C   UNL     1       1.853   7.151  20.253  0.00  0.00    +0.000 A 
ATOM      2  N   UNL     1       1.880   8.094  19.325  0.00  0.00    +0.000 NA
ATOM      3  C   UNL     1       1.246   9.188  19.866  0.00  0.00    +0.000 A 
ATOM      4  C   UNL     1       1.036  10.466  19.330  0.00  0.00    +0.000 A 
ATOM      5  C   UNL     1       0.382  11.441  20.109  0.00  0.00    +0.000 A 
ATOM      6  C   UNL     1      -0.071  11.168  21.412  0.00  0.00    +0.000 A 
ATOM      7  C   UNL     1       0.128   9.871  21.941  0.00  0.00    +0.000 A 
ATOM      8  C   UNL     1       0.787   8.918  21.145  0.00  0.00    +0.000 A 
ATOM      9  N   UNL     1       1.143   7.606  21.350  0.00  0.00    +0.000 N 
ATOM     10  H   UNL     1       0.960   7.079  22.189  0.00  0.00    +0.000 HD
ENDROOT
BRANCH   6  11
ATOM     11  C   UNL     1      -0.750  12.187  22.244  0.00  0.00    +0.000 A 
ATOM     12  N   UNL     1      -0.202  13.301  22.702  0.00  0.00    +0.000 NA
ATOM     13  C   UNL     1      -1.164  13.936  23.451  0.00  0.00    +0.000 A 
ATOM     14  C   UNL     1      -1.102  15.154  24.146  0.00  0.00    +0.000 A 
ATOM     15  C   UNL     1      -2.231  15.594  24.855  0.00  0.00    +0.000 A 
ATOM     16  C   UNL     1      -3.395  14.811  24.889  0.00  0.00    +0.000 A 
ATOM     17  C   UNL     1      -3.477  13.597  24.185  0.00  0.00    +0.000 A 
ATOM     18  C   UNL     1      -2.340  13.203  23.470  0.00  0.00    +0.000 A 
ATOM     19  N   UNL     1      -2.066  12.120  22.667  0.00  0.00    +0.000 N 
ATOM     20  H   UNL     1      -2.721  11.391  22.433  0.00  0.00    +0.000 HD
BRANCH  15  21
ATOM     21  C   UNL     1      -2.201  16.909  25.556  0.00  0.00    +0.000 C 
ATOM     22  N   UNL     1      -3.147  17.785  25.443  0.00  0.00    +0.000 NA
ATOM     23  N   UNL     1      -1.164  17.257  26.369  0.00  0.00    +0.000 N 
ATOM     24  H   UNL     1      -3.913  17.435  24.860  0.00  0.00    +0.000 HD
ATOM     25  H   UNL     1      -0.240  17.023  26.024  0.00  0.00    +0.000 HD
ATOM     26  H   UNL     1      -1.234  18.243  26.608  0.00  0.00    +0.000 HD
ENDBRANCH  15  21
ENDBRANCH   6  11
BRANCH   1  30
ATOM     27  C   UNL     1       3.665   3.255  19.809  0.00  0.00    +0.000 A 
ATOM     28  C   UNL     1       2.518   3.439  20.594  0.00  0.00    +0.000 A 
ATOM     29  C   UNL     1       1.951   4.713  20.759  0.00  0.00    +0.000 A 
ATOM     30  C   UNL     1       2.532   5.843  20.176  0.00  0.00    +0.000 A 
ATOM     31  C   UNL     1       3.736   5.661  19.484  0.00  0.00    +0.000 A 
ATOM     32  C   UNL     1       4.309   4.387  19.290  0.00  0.00    +0.000 A 
BRANCH  27  34
ATOM     33  C   UNL     1       3.679   1.329  18.420  0.00  0.00    +0.000 C 
ATOM     34  O   UNL     1       4.180   2.008  19.573  0.00  0.00    +0.000 OA
ENDBRANCH  27  34
BRANCH  32  35
ATOM     35  O   UNL     1       5.462   4.470  18.556  0.00  0.00    +0.000 OA
ATOM     36  C   UNL     1       6.409   5.487  18.839  0.00  0.00    +0.000 C 
ENDBRANCH  32  35
ENDBRANCH   1  30
TORSDOF 5
ENDMDL
