MODEL 1
REMARK VINA RESULT:      -8.5      0.000      0.000
REMARK  Name = 
REMARK  8 active torsions:
REMARK  status: ('A' for Active; 'I' for Inactive)
REMARK    1  A    between atoms: C_1  and  C_2
REMARK    2  A    between atoms: C_6  and  C_7
REMARK    3  A    between atoms: C_11  and  C_12
REMARK    4  A    between atoms: C_13  and  C_14
REMARK    5  A    between atoms: N_16  and  C_17
REMARK    6  A    between atoms: C_17  and  C_18
REMARK    7  A    between atoms: C_18  and  O_19
REMARK    8  A    between atoms: O_19  and  C_20
REMARK                            x       y       z     vdW  Elec       q    Type
REMARK                         _______ _______ _______ _____ _____    ______ ____
ROOT
ATOM      1  C   UNL     1       4.548   4.449  16.850  0.00  0.00    +0.000 A 
ATOM      2  C   UNL     1       4.091   3.356  17.615  0.00  0.00    +0.000 A 
ATOM      3  N   UNL     1       3.295   3.717  18.619  0.00  0.00    +0.000 NA
ATOM      4  N   UNL     1       3.205   5.068  18.529  0.00  0.00    +0.000 N 
ATOM      5  C   UNL     1       2.476   5.939  19.363  0.00  0.00    +0.000 A 
ATOM      6  C   UNL     1       1.709   5.309  20.498  0.00  0.00    +0.000 C 
ATOM      7  C   UNL     1       2.505   7.276  19.119  0.00  0.00    +0.000 A 
ATOM      8  C   UNL     1       3.327   7.671  17.939  0.00  0.00    +0.000 A 
ATOM      9  N   UNL     1       4.013   6.890  17.161  0.00  0.00    +0.000 NA
ATOM     10  C   UNL     1       3.964   5.554  17.455  0.00  0.00    +0.000 A 
ENDROOT
BRANCH   1  16
ATOM     11  C   UNL     1       5.413   3.286  12.070  0.00  0.00    +0.000 C 
ATOM     12  C   UNL     1       5.871   3.919  13.349  0.00  0.00    +0.000 A 
ATOM     13  C   UNL     1       7.120   4.542  13.445  0.00  0.00    +0.000 A 
ATOM     14  C   UNL     1       7.522   5.122  14.647  0.00  0.00    +0.000 A 
ATOM     15  C   UNL     1       6.681   5.085  15.763  0.00  0.00    +0.000 A 
ATOM     16  C   UNL     1       5.425   4.465  15.690  0.00  0.00    +0.000 A 
ATOM     17  C   UNL     1       5.034   3.890  14.474  0.00  0.00    +0.000 A 
ENDBRANCH   1  16
BRANCH   7  18
ATOM     18  C   UNL     1       1.728   8.253  19.947  0.00  0.00    +0.000 C 
ATOM     19  O   UNL     1       1.494   8.049  21.132  0.00  0.00    +0.000 OA
ATOM     20  N   UNL     1       1.303   9.411  19.331  0.00  0.00    +0.000 N 
ATOM     21  H   UNL     1       1.435   9.569  18.341  0.00  0.00    +0.000 HD
BRANCH  20  22
ATOM     22  C   UNL     1       0.501  10.385  20.072  0.00  0.00    +0.000 C 
BRANCH  22  23
ATOM     23  C   UNL     1      -0.945  10.432  19.587  0.00  0.00    +0.000 C 
BRANCH  23  24
ATOM     24  O   UNL     1      -1.057   9.798  18.311  0.00  0.00    +0.000 OA
BRANCH  24  25
ATOM     25  C   UNL     1      -2.116  10.225  17.549  0.00  0.00    +0.000 A 
ATOM     26  C   UNL     1      -3.094  10.966  18.214  0.00  0.00    +0.000 A 
ATOM     27  C   UNL     1      -4.201  11.460  17.518  0.00  0.00    +0.000 A 
ATOM     28  C   UNL     1      -4.340  11.205  16.154  0.00  0.00    +0.000 A 
ATOM     29  C   UNL     1      -3.368  10.465  15.486  0.00  0.00    +0.000 A 
ATOM     30  C   UNL     1      -2.253   9.993  16.177  0.00  0.00    +0.000 A 
ENDBRANCH  24  25
ENDBRANCH  23  24
ENDBRANCH  22  23
ENDBRANCH  20  22
ENDBRANCH   7  18
TORSDOF 6
ENDMDL
MODEL 2
REMARK VINA RESULT:      -8.4      2.545      9.075
REMARK  Name = 
REMARK  8 active torsions:
REMARK  status: ('A' for Active; 'I' for Inactive)
REMARK    1  A    between atoms: C_1  and  C_2
REMARK    2  A    between atoms: C_6  and  C_7
REMARK    3  A    between atoms: C_11  and  C_12
REMARK    4  A    between atoms: C_13  and  C_14
REMARK    5  A    between atoms: N_16  and  C_17
REMARK    6  A    between atoms: C_17  and  C_18
REMARK    7  A    between atoms: C_18  and  O_19
REMARK    8  A    between atoms: O_19  and  C_20
REMARK                            x       y       z     vdW  Elec       q    Type
REMARK                         _______ _______ _______ _____ _____    ______ ____
ROOT
ATOM      1  C   UNL     1       0.833   9.849  19.876  0.00  0.00    +0.000 A 
ATOM      2  C   UNL     1       0.474   9.198  21.074  0.00  0.00    +0.000 A 
ATOM      3  N   UNL     1       0.980   7.971  21.175  0.00  0.00    +0.000 NA
ATOM      4  N   UNL     1       1.695   7.790  20.035  0.00  0.00    +0.000 N 
ATOM      5  C   UNL     1       2.429   6.650  19.653  0.00  0.00    +0.000 A 
ATOM      6  C   UNL     1       2.421   5.485  20.609  0.00  0.00    +0.000 C 
ATOM      7  C   UNL     1       3.088   6.650  18.464  0.00  0.00    +0.000 A 
ATOM      8  C   UNL     1       2.960   7.914  17.685  0.00  0.00    +0.000 A 
ATOM      9  N   UNL     1       2.283   8.974  18.011  0.00  0.00    +0.000 NA
ATOM     10  C   UNL     1       1.626   8.922  19.211  0.00  0.00    +0.000 A 
ENDROOT
BRANCH   1  16
ATOM     11  C   UNL     1       2.062  14.627  19.101  0.00  0.00    +0.000 C 
ATOM     12  C   UNL     1       1.058  13.519  19.000  0.00  0.00    +0.000 A 
ATOM     13  C   UNL     1      -0.206  13.732  18.442  0.00  0.00    +0.000 A 
ATOM     14  C   UNL     1      -1.122  12.684  18.362  0.00  0.00    +0.000 A 
ATOM     15  C   UNL     1      -0.782  11.415  18.837  0.00  0.00    +0.000 A 
ATOM     16  C   UNL     1       0.480  11.178  19.401  0.00  0.00    +0.000 A 
ATOM     17  C   UNL     1       1.389  12.240  19.472  0.00  0.00    +0.000 A 
ENDBRANCH   1  16
BRANCH   7  18
ATOM     18  C   UNL     1       3.913   5.484  18.011  0.00  0.00    +0.000 C 
ATOM     19  O   UNL     1       3.422   4.554  17.382  0.00  0.00    +0.000 OA
ATOM     20  N   UNL     1       5.259   5.503  18.310  0.00  0.00    +0.000 N 
ATOM     21  H   UNL     1       5.669   6.231  18.878  0.00  0.00    +0.000 HD
BRANCH  20  22
ATOM     22  C   UNL     1       6.110   4.374  17.935  0.00  0.00    +0.000 C 
BRANCH  22  23
ATOM     23  C   UNL     1       7.089   4.733  16.820  0.00  0.00    +0.000 C 
BRANCH  23  24
ATOM     24  O   UNL     1       6.416   5.454  15.787  0.00  0.00    +0.000 OA
BRANCH  24  25
ATOM     25  C   UNL     1       6.601   4.954  14.522  0.00  0.00    +0.000 A 
ATOM     26  C   UNL     1       5.631   4.058  14.067  0.00  0.00    +0.000 A 
ATOM     27  C   UNL     1       5.723   3.509  12.785  0.00  0.00    +0.000 A 
ATOM     28  C   UNL     1       6.792   3.846  11.956  0.00  0.00    +0.000 A 
ATOM     29  C   UNL     1       7.763   4.737  12.404  0.00  0.00    +0.000 A 
ATOM     30  C   UNL     1       7.657   5.302  13.675  0.00  0.00    +0.000 A 
ENDBRANCH  24  25
ENDBRANCH  23  24
ENDBRANCH  22  23
ENDBRANCH  20  22
ENDBRANCH   7  18
TORSDOF 6
ENDMDL
MODEL 3
REMARK VINA RESULT:      -8.2      1.964      2.902
REMARK  Name = 
REMARK  8 active torsions:
REMARK  status: ('A' for Active; 'I' for Inactive)
REMARK    1  A    between atoms: C_1  and  C_2
REMARK    2  A    between atoms: C_6  and  C_7
REMARK    3  A    between atoms: C_11  and  C_12
REMARK    4  A    between atoms: C_13  and  C_14
REMARK    5  A    between atoms: N_16  and  C_17
REMARK    6  A    between atoms: C_17  and  C_18
REMARK    7  A    between atoms: C_18  and  O_19
REMARK    8  A    between atoms: O_19  and  C_20
REMARK                            x       y       z     vdW  Elec       q    Type
REMARK                         _______ _______ _______ _____ _____    ______ ____
ROOT
ATOM      1  C   UNL     1       4.108   5.601  18.619  0.00  0.00    +0.000 A 
ATOM      2  C   UNL     1       3.621   5.005  19.800  0.00  0.00    +0.000 A 
ATOM      3  N   UNL     1       2.670   5.722  20.395  0.00  0.00    +0.000 NA
ATOM      4  N   UNL     1       2.507   6.814  19.605  0.00  0.00    +0.000 N 
ATOM      5  C   UNL     1       1.614   7.888  19.796  0.00  0.00    +0.000 A 
ATOM      6  C   UNL     1       0.739   7.833  21.022  0.00  0.00    +0.000 C 
ATOM      7  C   UNL     1       1.590   8.903  18.893  0.00  0.00    +0.000 A 
ATOM      8  C   UNL     1       2.541   8.742  17.756  0.00  0.00    +0.000 A 
ATOM      9  N   UNL     1       3.378   7.768  17.562  0.00  0.00    +0.000 NA
ATOM     10  C   UNL     1       3.376   6.775  18.505  0.00  0.00    +0.000 A 
ENDROOT
BRANCH   1  16
ATOM     11  C   UNL     1       5.490   4.208  14.027  0.00  0.00    +0.000 C 
ATOM     12  C   UNL     1       5.843   4.460  15.461  0.00  0.00    +0.000 A 
ATOM     13  C   UNL     1       7.146   4.272  15.933  0.00  0.00    +0.000 A 
ATOM     14  C   UNL     1       7.447   4.511  17.272  0.00  0.00    +0.000 A 
ATOM     15  C   UNL     1       6.450   4.941  18.152  0.00  0.00    +0.000 A 
ATOM     16  C   UNL     1       5.136   5.135  17.702  0.00  0.00    +0.000 A 
ATOM     17  C   UNL     1       4.850   4.893  16.353  0.00  0.00    +0.000 A 
ENDBRANCH   1  16
BRANCH   7  18
ATOM     18  C   UNL     1       0.644  10.057  19.018  0.00  0.00    +0.000 C 
ATOM     19  O   UNL     1       0.684  10.821  19.975  0.00  0.00    +0.000 OA
ATOM     20  N   UNL     1      -0.266  10.247  17.999  0.00  0.00    +0.000 N 
ATOM     21  H   UNL     1      -0.353   9.594  17.233  0.00  0.00    +0.000 HD
BRANCH  20  22
ATOM     22  C   UNL     1      -1.246  11.330  18.084  0.00  0.00    +0.000 C 
BRANCH  22  23
ATOM     23  C   UNL     1      -2.676  10.807  18.190  0.00  0.00    +0.000 C 
BRANCH  23  24
ATOM     24  O   UNL     1      -3.606  11.881  18.036  0.00  0.00    +0.000 OA
BRANCH  24  25
ATOM     25  C   UNL     1      -4.778  11.732  18.733  0.00  0.00    +0.000 A 
ATOM     26  C   UNL     1      -5.671  10.777  18.240  0.00  0.00    +0.000 A 
ATOM     27  C   UNL     1      -6.883  10.540  18.893  0.00  0.00    +0.000 A 
ATOM     28  C   UNL     1      -7.214  11.265  20.037  0.00  0.00    +0.000 A 
ATOM     29  C   UNL     1      -6.329  12.218  20.533  0.00  0.00    +0.000 A 
ATOM     30  C   UNL     1      -5.110  12.438  19.894  0.00  0.00    +0.000 A 
ENDBRANCH  24  25
ENDBRANCH  23  24
ENDBRANCH  22  23
ENDBRANCH  20  22
ENDBRANCH   7  18
TORSDOF 6
ENDMDL
MODEL 4
REMARK VINA RESULT:      -8.2      0.670      1.106
REMARK  Name = 
REMARK  8 active torsions:
REMARK  status: ('A' for Active; 'I' for Inactive)
REMARK    1  A    between atoms: C_1  and  C_2
REMARK    2  A    between atoms: C_6  and  C_7
REMARK    3  A    between atoms: C_11  and  C_12
REMARK    4  A    between atoms: C_13  and  C_14
REMARK    5  A    between atoms: N_16  and  C_17
REMARK    6  A    between atoms: C_17  and  C_18
REMARK    7  A    between atoms: C_18  and  O_19
REMARK    8  A    between atoms: O_19  and  C_20
REMARK                            x       y       z     vdW  Elec       q    Type
REMARK                         _______ _______ _______ _____ _____    ______ ____
ROOT
ATOM      1  C   UNL     1       4.794   4.203  16.758  0.00  0.00    +0.000 A 
ATOM      2  C   UNL     1       4.476   3.066  17.527  0.00  0.00    +0.000 A 
ATOM      3  N   UNL     1       3.702   3.341  18.574  0.00  0.00    +0.000 NA
ATOM      4  N   UNL     1       3.487   4.681  18.510  0.00  0.00    +0.000 N 
ATOM      5  C   UNL     1       2.725   5.473  19.392  0.00  0.00    +0.000 A 
ATOM      6  C   UNL     1       2.076   4.763  20.552  0.00  0.00    +0.000 C 
ATOM      7  C   UNL     1       2.622   6.809  19.167  0.00  0.00    +0.000 A 
ATOM      8  C   UNL     1       3.345   7.290  17.955  0.00  0.00    +0.000 A 
ATOM      9  N   UNL     1       4.059   6.583  17.133  0.00  0.00    +0.000 NA
ATOM     10  C   UNL     1       4.145   5.245  17.408  0.00  0.00    +0.000 A 
ENDROOT
BRANCH   1  16
ATOM     11  C   UNL     1       5.549   3.130  11.939  0.00  0.00    +0.000 C 
ATOM     12  C   UNL     1       5.997   3.812  13.195  0.00  0.00    +0.000 A 
ATOM     13  C   UNL     1       7.174   4.567  13.233  0.00  0.00    +0.000 A 
ATOM     14  C   UNL     1       7.568   5.189  14.416  0.00  0.00    +0.000 A 
ATOM     15  C   UNL     1       6.791   5.065  15.571  0.00  0.00    +0.000 A 
ATOM     16  C   UNL     1       5.608   4.312  15.557  0.00  0.00    +0.000 A 
ATOM     17  C   UNL     1       5.223   3.695  14.360  0.00  0.00    +0.000 A 
ENDBRANCH   1  16
BRANCH   7  18
ATOM     18  C   UNL     1       1.803   7.703  20.047  0.00  0.00    +0.000 C 
ATOM     19  O   UNL     1       1.306   7.298  21.092  0.00  0.00    +0.000 OA
ATOM     20  N   UNL     1       1.645   9.014  19.650  0.00  0.00    +0.000 N 
ATOM     21  H   UNL     1       1.996   9.349  18.764  0.00  0.00    +0.000 HD
BRANCH  20  22
ATOM     22  C   UNL     1       0.819   9.926  20.443  0.00  0.00    +0.000 C 
BRANCH  22  23
ATOM     23  C   UNL     1       0.237  11.058  19.600  0.00  0.00    +0.000 C 
BRANCH  23  24
ATOM     24  O   UNL     1      -0.090  10.581  18.294  0.00  0.00    +0.000 OA
BRANCH  24  25
ATOM     25  C   UNL     1      -1.415  10.697  17.954  0.00  0.00    +0.000 A 
ATOM     26  C   UNL     1      -1.860   9.873  16.917  0.00  0.00    +0.000 A 
ATOM     27  C   UNL     1      -3.197   9.907  16.513  0.00  0.00    +0.000 A 
ATOM     28  C   UNL     1      -4.094  10.772  17.137  0.00  0.00    +0.000 A 
ATOM     29  C   UNL     1      -3.657  11.596  18.170  0.00  0.00    +0.000 A 
ATOM     30  C   UNL     1      -2.328  11.546  18.588  0.00  0.00    +0.000 A 
ENDBRANCH  24  25
ENDBRANCH  23  24
ENDBRANCH  22  23
ENDBRANCH  20  22
ENDBRANCH   7  18
TORSDOF 6
ENDMDL
MODEL 5
REMARK VINA RESULT:      -8.1      3.030      4.563
REMARK  Name = 
REMARK  8 active torsions:
REMARK  status: ('A' for Active; 'I' for Inactive)
REMARK    1  A    between atoms: C_1  and  C_2
REMARK    2  A    between atoms: C_6  and  C_7
REMARK    3  A    between atoms: C_11  and  C_12
REMARK    4  A    between atoms: C_13  and  C_14
REMARK    5  A    between atoms: N_16  and  C_17
REMARK    6  A    between atoms: C_17  and  C_18
REMARK    7  A    between atoms: C_18  and  O_19
REMARK    8  A    between atoms: O_19  and  C_20
REMARK                            x       y       z     vdW  Elec       q    Type
REMARK                         _______ _______ _______ _____ _____    ______ ____
ROOT
ATOM      1  C   UNL     1       2.812   6.183  19.049  0.00  0.00    +0.000 A 
ATOM      2  C   UNL     1       2.325   5.780  20.309  0.00  0.00    +0.000 A 
ATOM      3  N   UNL     1       1.593   6.714  20.911  0.00  0.00    +0.000 NA
ATOM      4  N   UNL     1       1.577   7.761  20.047  0.00  0.00    +0.000 N 
ATOM      5  C   UNL     1       0.935   9.004  20.213  0.00  0.00    +0.000 A 
ATOM      6  C   UNL     1       0.181   9.211  21.501  0.00  0.00    +0.000 C 
ATOM      7  C   UNL     1       1.030   9.939  19.232  0.00  0.00    +0.000 A 
ATOM      8  C   UNL     1       1.823   9.512  18.044  0.00  0.00    +0.000 A 
ATOM      9  N   UNL     1       2.431   8.377  17.871  0.00  0.00    +0.000 NA
ATOM     10  C   UNL     1       2.318   7.472  18.892  0.00  0.00    +0.000 A 
ENDROOT
BRANCH   1  16
ATOM     11  C   UNL     1       7.060   5.765  16.455  0.00  0.00    +0.000 C 
ATOM     12  C   UNL     1       5.714   5.221  16.826  0.00  0.00    +0.000 A 
ATOM     13  C   UNL     1       5.243   4.018  16.290  0.00  0.00    +0.000 A 
ATOM     14  C   UNL     1       3.987   3.535  16.650  0.00  0.00    +0.000 A 
ATOM     15  C   UNL     1       3.189   4.248  17.549  0.00  0.00    +0.000 A 
ATOM     16  C   UNL     1       3.640   5.457  18.099  0.00  0.00    +0.000 A 
ATOM     17  C   UNL     1       4.906   5.928  17.729  0.00  0.00    +0.000 A 
ENDBRANCH   1  16
BRANCH   7  18
ATOM     18  C   UNL     1       0.346  11.268  19.331  0.00  0.00    +0.000 C 
ATOM     19  O   UNL     1       0.927  12.261  19.751  0.00  0.00    +0.000 OA
ATOM     20  N   UNL     1      -0.965  11.342  18.907  0.00  0.00    +0.000 N 
ATOM     21  H   UNL     1      -1.477  10.521  18.614  0.00  0.00    +0.000 HD
BRANCH  20  22
ATOM     22  C   UNL     1      -1.702  12.600  19.019  0.00  0.00    +0.000 C 
BRANCH  22  23
ATOM     23  C   UNL     1      -2.884  12.493  19.980  0.00  0.00    +0.000 C 
BRANCH  23  24
ATOM     24  O   UNL     1      -2.417  12.403  21.327  0.00  0.00    +0.000 OA
BRANCH  24  25
ATOM     25  C   UNL     1      -3.391  12.548  22.284  0.00  0.00    +0.000 A 
ATOM     26  C   UNL     1      -4.649  12.945  21.826  0.00  0.00    +0.000 A 
ATOM     27  C   UNL     1      -5.710  13.102  22.722  0.00  0.00    +0.000 A 
ATOM     28  C   UNL     1      -5.514  12.872  24.084  0.00  0.00    +0.000 A 
ATOM     29  C   UNL     1      -4.262  12.476  24.546  0.00  0.00    +0.000 A 
ATOM     30  C   UNL     1      -3.210  12.299  23.647  0.00  0.00    +0.000 A 
ENDBRANCH  24  25
ENDBRANCH  23  24
ENDBRANCH  22  23
ENDBRANCH  20  22
ENDBRANCH   7  18
TORSDOF 6
ENDMDL
MODEL 6
REMARK VINA RESULT:      -8.1      2.354      2.882
REMARK  Name = 
REMARK  8 active torsions:
REMARK  status: ('A' for Active; 'I' for Inactive)
REMARK    1  A    between atoms: C_1  and  C_2
REMARK    2  A    between atoms: C_6  and  C_7
REMARK    3  A    between atoms: C_11  and  C_12
REMARK    4  A    between atoms: C_13  and  C_14
REMARK    5  A    between atoms: N_16  and  C_17
REMARK    6  A    between atoms: C_17  and  C_18
REMARK    7  A    between atoms: C_18  and  O_19
REMARK    8  A    between atoms: O_19  and  C_20
REMARK                            x       y       z     vdW  Elec       q    Type
REMARK                         _______ _______ _______ _____ _____    ______ ____
ROOT
ATOM      1  C   UNL     1       4.551   4.410  17.042  0.00  0.00    +0.000 A 
ATOM      2  C   UNL     1       4.110   3.311  17.806  0.00  0.00    +0.000 A 
ATOM      3  N   UNL     1       3.289   3.657  18.795  0.00  0.00    +0.000 NA
ATOM      4  N   UNL     1       3.169   5.006  18.697  0.00  0.00    +0.000 N 
ATOM      5  C   UNL     1       2.406   5.863  19.515  0.00  0.00    +0.000 A 
ATOM      6  C   UNL     1       1.638   5.221  20.641  0.00  0.00    +0.000 C 
ATOM      7  C   UNL     1       2.406   7.199  19.263  0.00  0.00    +0.000 A 
ATOM      8  C   UNL     1       3.236   7.608  18.094  0.00  0.00    +0.000 A 
ATOM      9  N   UNL     1       3.953   6.840  17.331  0.00  0.00    +0.000 NA
ATOM     10  C   UNL     1       3.932   5.504  17.631  0.00  0.00    +0.000 A 
ENDROOT
BRANCH   1  16
ATOM     11  C   UNL     1       5.488   3.308  12.261  0.00  0.00    +0.000 C 
ATOM     12  C   UNL     1       5.927   3.925  13.554  0.00  0.00    +0.000 A 
ATOM     13  C   UNL     1       7.173   4.548  13.676  0.00  0.00    +0.000 A 
ATOM     14  C   UNL     1       7.557   5.113  14.891  0.00  0.00    +0.000 A 
ATOM     15  C   UNL     1       6.700   5.062  15.994  0.00  0.00    +0.000 A 
ATOM     16  C   UNL     1       5.446   4.442  15.895  0.00  0.00    +0.000 A 
ATOM     17  C   UNL     1       5.073   3.881  14.667  0.00  0.00    +0.000 A 
ENDBRANCH   1  16
BRANCH   7  18
ATOM     18  C   UNL     1       1.594   8.162  20.074  0.00  0.00    +0.000 C 
ATOM     19  O   UNL     1       1.537   8.086  21.296  0.00  0.00    +0.000 OA
ATOM     20  N   UNL     1       0.924   9.158  19.395  0.00  0.00    +0.000 N 
ATOM     21  H   UNL     1       0.911   9.199  18.385  0.00  0.00    +0.000 HD
BRANCH  20  22
ATOM     22  C   UNL     1       0.078  10.102  20.124  0.00  0.00    +0.000 C 
BRANCH  22  23
ATOM     23  C   UNL     1       0.828  11.376  20.504  0.00  0.00    +0.000 C 
BRANCH  23  24
ATOM     24  O   UNL     1       0.500  11.760  21.841  0.00  0.00    +0.000 OA
BRANCH  24  25
ATOM     25  C   UNL     1      -0.782  12.219  22.010  0.00  0.00    +0.000 A 
ATOM     26  C   UNL     1      -1.496  11.671  23.078  0.00  0.00    +0.000 A 
ATOM     27  C   UNL     1      -2.804  12.089  23.341  0.00  0.00    +0.000 A 
ATOM     28  C   UNL     1      -3.407  13.050  22.531  0.00  0.00    +0.000 A 
ATOM     29  C   UNL     1      -2.700  13.599  21.465  0.00  0.00    +0.000 A 
ATOM     30  C   UNL     1      -1.388  13.198  21.217  0.00  0.00    +0.000 A 
ENDBRANCH  24  25
ENDBRANCH  23  24
ENDBRANCH  22  23
ENDBRANCH  20  22
ENDBRANCH   7  18
TORSDOF 6
ENDMDL
MODEL 7
REMARK VINA RESULT:      -8.0      2.891      9.123
REMARK  Name = 
REMARK  8 active torsions:
REMARK  status: ('A' for Active; 'I' for Inactive)
REMARK    1  A    between atoms: C_1  and  C_2
REMARK    2  A    between atoms: C_6  and  C_7
REMARK    3  A    between atoms: C_11  and  C_12
REMARK    4  A    between atoms: C_13  and  C_14
REMARK    5  A    between atoms: N_16  and  C_17
REMARK    6  A    between atoms: C_17  and  C_18
REMARK    7  A    between atoms: C_18  and  O_19
REMARK    8  A    between atoms: O_19  and  C_20
REMARK                            x       y       z     vdW  Elec       q    Type
REMARK                         _______ _______ _______ _____ _____    ______ ____
ROOT
ATOM      1  C   UNL     1       1.010  10.312  20.216  0.00  0.00    +0.000 A 
ATOM      2  C   UNL     1       0.861   9.761  21.505  0.00  0.00    +0.000 A 
ATOM      3  N   UNL     1       1.150   8.463  21.556  0.00  0.00    +0.000 NA
ATOM      4  N   UNL     1       1.506   8.131  20.288  0.00  0.00    +0.000 N 
ATOM      5  C   UNL     1       1.904   6.867  19.809  0.00  0.00    +0.000 A 
ATOM      6  C   UNL     1       1.935   5.741  20.810  0.00  0.00    +0.000 C 
ATOM      7  C   UNL     1       2.226   6.723  18.497  0.00  0.00    +0.000 A 
ATOM      8  C   UNL     1       2.129   7.976  17.695  0.00  0.00    +0.000 A 
ATOM      9  N   UNL     1       1.757   9.149  18.110  0.00  0.00    +0.000 NA
ATOM     10  C   UNL     1       1.430   9.242  19.436  0.00  0.00    +0.000 A 
ENDROOT
BRANCH   1  16
ATOM     11  C   UNL     1       2.402  15.107  20.094  0.00  0.00    +0.000 C 
ATOM     12  C   UNL     1       1.453  14.027  19.673  0.00  0.00    +0.000 A 
ATOM     13  C   UNL     1       0.367  14.299  18.835  0.00  0.00    +0.000 A 
ATOM     14  C   UNL     1      -0.502  13.276  18.460  0.00  0.00    +0.000 A 
ATOM     15  C   UNL     1      -0.293  11.972  18.917  0.00  0.00    +0.000 A 
ATOM     16  C   UNL     1       0.789  11.675  19.759  0.00  0.00    +0.000 A 
ATOM     17  C   UNL     1       1.654  12.714  20.125  0.00  0.00    +0.000 A 
ENDBRANCH   1  16
BRANCH   7  18
ATOM     18  C   UNL     1       2.688   5.416  17.930  0.00  0.00    +0.000 C 
ATOM     19  O   UNL     1       1.894   4.560  17.558  0.00  0.00    +0.000 OA
ATOM     20  N   UNL     1       4.048   5.216  17.817  0.00  0.00    +0.000 N 
ATOM     21  H   UNL     1       4.716   5.885  18.173  0.00  0.00    +0.000 HD
BRANCH  20  22
ATOM     22  C   UNL     1       4.563   3.943  17.313  0.00  0.00    +0.000 C 
BRANCH  22  23
ATOM     23  C   UNL     1       5.283   4.100  15.976  0.00  0.00    +0.000 C 
BRANCH  23  24
ATOM     24  O   UNL     1       6.698   4.080  16.174  0.00  0.00    +0.000 OA
BRANCH  24  25
ATOM     25  C   UNL     1       7.171   5.034  17.040  0.00  0.00    +0.000 A 
ATOM     26  C   UNL     1       7.121   6.355  16.588  0.00  0.00    +0.000 A 
ATOM     27  C   UNL     1       7.562   7.398  17.406  0.00  0.00    +0.000 A 
ATOM     28  C   UNL     1       8.067   7.124  18.677  0.00  0.00    +0.000 A 
ATOM     29  C   UNL     1       8.121   5.810  19.132  0.00  0.00    +0.000 A 
ATOM     30  C   UNL     1       7.659   4.772  18.323  0.00  0.00    +0.000 A 
ENDBRANCH  24  25
ENDBRANCH  23  24
ENDBRANCH  22  23
ENDBRANCH  20  22
ENDBRANCH   7  18
TORSDOF 6
ENDMDL
MODEL 8
REMARK VINA RESULT:      -8.0      3.737      5.467
REMARK  Name = 
REMARK  8 active torsions:
REMARK  status: ('A' for Active; 'I' for Inactive)
REMARK    1  A    between atoms: C_1  and  C_2
REMARK    2  A    between atoms: C_6  and  C_7
REMARK    3  A    between atoms: C_11  and  C_12
REMARK    4  A    between atoms: C_13  and  C_14
REMARK    5  A    between atoms: N_16  and  C_17
REMARK    6  A    between atoms: C_17  and  C_18
REMARK    7  A    between atoms: C_18  and  O_19
REMARK    8  A    between atoms: O_19  and  C_20
REMARK                            x       y       z     vdW  Elec       q    Type
REMARK                         _______ _______ _______ _____ _____    ______ ____
ROOT
ATOM      1  C   UNL     1       2.197   7.451  19.110  0.00  0.00    +0.000 A 
ATOM      2  C   UNL     1       2.251   8.137  17.879  0.00  0.00    +0.000 A 
ATOM      3  N   UNL     1       1.730   9.360  17.938  0.00  0.00    +0.000 NA
ATOM      4  N   UNL     1       1.323   9.508  19.225  0.00  0.00    +0.000 N 
ATOM      5  C   UNL     1       0.703  10.630  19.808  0.00  0.00    +0.000 A 
ATOM      6  C   UNL     1       0.447  11.809  18.904  0.00  0.00    +0.000 C 
ATOM      7  C   UNL     1       0.363  10.597  21.123  0.00  0.00    +0.000 A 
ATOM      8  C   UNL     1       0.718   9.328  21.821  0.00  0.00    +0.000 A 
ATOM      9  N   UNL     1       1.281   8.277  21.306  0.00  0.00    +0.000 NA
ATOM     10  C   UNL     1       1.593   8.353  19.974  0.00  0.00    +0.000 A 
ENDROOT
BRANCH   1  16
ATOM     11  C   UNL     1       1.371   3.009  21.239  0.00  0.00    +0.000 C 
ATOM     12  C   UNL     1       2.274   3.924  20.469  0.00  0.00    +0.000 A 
ATOM     13  C   UNL     1       3.542   3.511  20.050  0.00  0.00    +0.000 A 
ATOM     14  C   UNL     1       4.362   4.383  19.336  0.00  0.00    +0.000 A 
ATOM     15  C   UNL     1       3.923   5.675  19.034  0.00  0.00    +0.000 A 
ATOM     16  C   UNL     1       2.655   6.112  19.445  0.00  0.00    +0.000 A 
ATOM     17  C   UNL     1       1.842   5.223  20.159  0.00  0.00    +0.000 A 
ENDBRANCH   1  16
BRANCH   7  18
ATOM     18  C   UNL     1      -0.270  11.767  21.812  0.00  0.00    +0.000 C 
ATOM     19  O   UNL     1       0.342  12.811  21.999  0.00  0.00    +0.000 OA
ATOM     20  N   UNL     1      -1.583  11.635  22.212  0.00  0.00    +0.000 N 
ATOM     21  H   UNL     1      -2.083  10.762  22.120  0.00  0.00    +0.000 HD
BRANCH  20  22
ATOM     22  C   UNL     1      -2.244  12.725  22.930  0.00  0.00    +0.000 C 
BRANCH  22  23
ATOM     23  C   UNL     1      -3.765  12.612  22.877  0.00  0.00    +0.000 C 
BRANCH  23  24
ATOM     24  O   UNL     1      -4.279  13.391  21.795  0.00  0.00    +0.000 OA
BRANCH  24  25
ATOM     25  C   UNL     1      -4.880  12.664  20.798  0.00  0.00    +0.000 A 
ATOM     26  C   UNL     1      -4.111  12.437  19.653  0.00  0.00    +0.000 A 
ATOM     27  C   UNL     1      -4.629  11.692  18.591  0.00  0.00    +0.000 A 
ATOM     28  C   UNL     1      -5.923  11.177  18.664  0.00  0.00    +0.000 A 
ATOM     29  C   UNL     1      -6.694  11.401  19.801  0.00  0.00    +0.000 A 
ATOM     30  C   UNL     1      -6.168  12.126  20.870  0.00  0.00    +0.000 A 
ENDBRANCH  24  25
ENDBRANCH  23  24
ENDBRANCH  22  23
ENDBRANCH  20  22
ENDBRANCH   7  18
TORSDOF 6
ENDMDL
MODEL 9
REMARK VINA RESULT:      -8.0      4.057      6.312
REMARK  Name = 
REMARK  8 active torsions:
REMARK  status: ('A' for Active; 'I' for Inactive)
REMARK    1  A    between atoms: C_1  and  C_2
REMARK    2  A    between atoms: C_6  and  C_7
REMARK    3  A    between atoms: C_11  and  C_12
REMARK    4  A    between atoms: C_13  and  C_14
REMARK    5  A    between atoms: N_16  and  C_17
REMARK    6  A    between atoms: C_17  and  C_18
REMARK    7  A    between atoms: C_18  and  O_19
REMARK    8  A    between atoms: O_19  and  C_20
REMARK                            x       y       z     vdW  Elec       q    Type
REMARK                         _______ _______ _______ _____ _____    ______ ____
ROOT
ATOM      1  C   UNL     1       2.276   7.363  19.071  0.00  0.00    +0.000 A 
ATOM      2  C   UNL     1       2.297   8.046  17.838  0.00  0.00    +0.000 A 
ATOM      3  N   UNL     1       1.768   9.265  17.906  0.00  0.00    +0.000 NA
ATOM      4  N   UNL     1       1.390   9.413  19.202  0.00  0.00    +0.000 N 
ATOM      5  C   UNL     1       0.775  10.533  19.796  0.00  0.00    +0.000 A 
ATOM      6  C   UNL     1       0.490  11.708  18.895  0.00  0.00    +0.000 C 
ATOM      7  C   UNL     1       0.466  10.501  21.118  0.00  0.00    +0.000 A 
ATOM      8  C   UNL     1       0.846   9.236  21.811  0.00  0.00    +0.000 A 
ATOM      9  N   UNL     1       1.405   8.189  21.286  0.00  0.00    +0.000 NA
ATOM     10  C   UNL     1       1.685   8.263  19.948  0.00  0.00    +0.000 A 
ENDROOT
BRANCH   1  16
ATOM     11  C   UNL     1       1.495   2.887  21.146  0.00  0.00    +0.000 C 
ATOM     12  C   UNL     1       2.392   3.824  20.397  0.00  0.00    +0.000 A 
ATOM     13  C   UNL     1       3.673   3.436  19.991  0.00  0.00    +0.000 A 
ATOM     14  C   UNL     1       4.488   4.328  19.297  0.00  0.00    +0.000 A 
ATOM     15  C   UNL     1       4.031   5.615  19.001  0.00  0.00    +0.000 A 
ATOM     16  C   UNL     1       2.751   6.028  19.400  0.00  0.00    +0.000 A 
ATOM     17  C   UNL     1       1.943   5.119  20.094  0.00  0.00    +0.000 A 
ENDBRANCH   1  16
BRANCH   7  18
ATOM     18  C   UNL     1      -0.159  11.668  21.819  0.00  0.00    +0.000 C 
ATOM     19  O   UNL     1       0.413  12.748  21.905  0.00  0.00    +0.000 OA
ATOM     20  N   UNL     1      -1.421  11.491  22.348  0.00  0.00    +0.000 N 
ATOM     21  H   UNL     1      -1.881  10.592  22.338  0.00  0.00    +0.000 HD
BRANCH  20  22
ATOM     22  C   UNL     1      -2.067  12.578  23.082  0.00  0.00    +0.000 C 
BRANCH  22  23
ATOM     23  C   UNL     1      -3.353  13.048  22.407  0.00  0.00    +0.000 C 
BRANCH  23  24
ATOM     24  O   UNL     1      -4.486  12.433  23.026  0.00  0.00    +0.000 OA
BRANCH  24  25
ATOM     25  C   UNL     1      -5.534  13.283  23.278  0.00  0.00    +0.000 A 
ATOM     26  C   UNL     1      -6.609  12.740  23.986  0.00  0.00    +0.000 A 
ATOM     27  C   UNL     1      -7.715  13.532  24.306  0.00  0.00    +0.000 A 
ATOM     28  C   UNL     1      -7.756  14.869  23.910  0.00  0.00    +0.000 A 
ATOM     29  C   UNL     1      -6.688  15.414  23.204  0.00  0.00    +0.000 A 
ATOM     30  C   UNL     1      -5.575  14.629  22.904  0.00  0.00    +0.000 A 
ENDBRANCH  24  25
ENDBRANCH  23  24
ENDBRANCH  22  23
ENDBRANCH  20  22
ENDBRANCH   7  18
TORSDOF 6
ENDMDL
