MODEL 1
REMARK VINA RESULT:      -6.8      0.000      0.000
REMARK  Name = 
REMARK  3 active torsions:
REMARK  status: ('A' for Active; 'I' for Inactive)
REMARK    1  A    between atoms: C_1  and  C_2
REMARK    2  A    between atoms: N_10  and  C_11
REMARK    3  A    between atoms: C_11  and  C_12
REMARK                            x       y       z     vdW  Elec       q    Type
REMARK                         _______ _______ _______ _____ _____    ______ ____
ROOT
ATOM      1  C   UNL     1       0.566   2.406  18.932  0.00  0.00    +0.000 C 
ATOM      2  C   UNL     1       1.403   3.551  18.380  0.00  0.00    +0.000 C 
ATOM      3  C   UNL     1       2.608   3.069  17.655  0.00  0.00    +0.000 C 
ATOM      4  O   UNL     1       2.736   1.960  17.165  0.00  0.00    +0.000 OA
ATOM      5  N   UNL     1       3.599   4.067  17.390  0.00  0.00    +0.000 N 
ATOM      6  N   UNL     1       4.534   3.886  16.310  0.00  0.00    +0.000 NA
ATOM      7  C   UNL     1       5.279   4.946  16.280  0.00  0.00    +0.000 C 
ATOM      8  S   UNL     1       4.961   6.164  17.513  0.00  0.00    +0.000 S 
ATOM      9  C   UNL     1       3.678   5.170  18.121  0.00  0.00    +0.000 C 
ATOM     10  N   UNL     1       2.880   5.429  19.145  0.00  0.00    +0.000 N 
ATOM     11  C   UNL     1       1.778   4.548  19.424  0.00  0.00    +0.000 C 
ATOM     12  O   UNL     1       1.108   4.759  20.422  0.00  0.00    +0.000 OA
ENDROOT
BRANCH  10  13
ATOM     13  C   UNL     1       3.002   6.646  19.991  0.00  0.00    +0.000 C 
BRANCH  13  14
ATOM     14  C   UNL     1       2.080   7.759  19.550  0.00  0.00    +0.000 A 
ATOM     15  C   UNL     1       1.273   8.435  20.480  0.00  0.00    +0.000 A 
ATOM     16  C   UNL     1       0.503   9.538  20.092  0.00  0.00    +0.000 A 
ATOM     17  C   UNL     1       0.522   9.975  18.771  0.00  0.00    +0.000 A 
ATOM     18  C   UNL     1       1.304   9.308  17.835  0.00  0.00    +0.000 A 
ATOM     19  C   UNL     1       2.078   8.208  18.223  0.00  0.00    +0.000 A 
ENDBRANCH  13  14
ENDBRANCH  10  13
TORSDOF 2
ENDMDL
MODEL 2
REMARK VINA RESULT:      -6.8      2.445      4.780
REMARK  Name = 
REMARK  3 active torsions:
REMARK  status: ('A' for Active; 'I' for Inactive)
REMARK    1  A    between atoms: C_1  and  C_2
REMARK    2  A    between atoms: N_10  and  C_11
REMARK    3  A    between atoms: C_11  and  C_12
REMARK                            x       y       z     vdW  Elec       q    Type
REMARK                         _______ _______ _______ _____ _____    ______ ____
ROOT
ATOM      1  C   UNL     1       3.557   1.176  18.552  0.00  0.00    +0.000 C 
ATOM      2  C   UNL     1       3.670   2.646  18.932  0.00  0.00    +0.000 C 
ATOM      3  C   UNL     1       2.430   3.159  19.570  0.00  0.00    +0.000 C 
ATOM      4  O   UNL     1       1.591   2.472  20.127  0.00  0.00    +0.000 OA
ATOM      5  N   UNL     1       2.337   4.584  19.661  0.00  0.00    +0.000 N 
ATOM      6  N   UNL     1       1.490   5.189  20.655  0.00  0.00    +0.000 NA
ATOM      7  C   UNL     1       1.628   6.473  20.533  0.00  0.00    +0.000 C 
ATOM      8  S   UNL     1       2.700   7.026  19.248  0.00  0.00    +0.000 S 
ATOM      9  C   UNL     1       3.023   5.372  18.844  0.00  0.00    +0.000 C 
ATOM     10  N   UNL     1       3.817   4.922  17.887  0.00  0.00    +0.000 N 
ATOM     11  C   UNL     1       4.071   3.510  17.783  0.00  0.00    +0.000 C 
ATOM     12  O   UNL     1       4.736   3.109  16.843  0.00  0.00    +0.000 OA
ENDROOT
BRANCH  10  13
ATOM     13  C   UNL     1       4.548   5.809  16.943  0.00  0.00    +0.000 C 
BRANCH  13  14
ATOM     14  C   UNL     1       5.890   6.251  17.478  0.00  0.00    +0.000 A 
ATOM     15  C   UNL     1       6.470   7.458  17.055  0.00  0.00    +0.000 A 
ATOM     16  C   UNL     1       7.659   7.923  17.630  0.00  0.00    +0.000 A 
ATOM     17  C   UNL     1       8.286   7.187  18.630  0.00  0.00    +0.000 A 
ATOM     18  C   UNL     1       7.734   5.982  19.050  0.00  0.00    +0.000 A 
ATOM     19  C   UNL     1       6.543   5.519  18.478  0.00  0.00    +0.000 A 
ENDBRANCH  13  14
ENDBRANCH  10  13
TORSDOF 2
ENDMDL
MODEL 3
REMARK VINA RESULT:      -6.7      2.472      4.708
REMARK  Name = 
REMARK  3 active torsions:
REMARK  status: ('A' for Active; 'I' for Inactive)
REMARK    1  A    between atoms: C_1  and  C_2
REMARK    2  A    between atoms: N_10  and  C_11
REMARK    3  A    between atoms: C_11  and  C_12
REMARK                            x       y       z     vdW  Elec       q    Type
REMARK                         _______ _______ _______ _____ _____    ______ ____
ROOT
ATOM      1  C   UNL     1       3.579   1.118  18.830  0.00  0.00    +0.000 C 
ATOM      2  C   UNL     1       3.660   2.603  19.153  0.00  0.00    +0.000 C 
ATOM      3  C   UNL     1       2.406   3.115  19.764  0.00  0.00    +0.000 C 
ATOM      4  O   UNL     1       1.577   2.433  20.343  0.00  0.00    +0.000 OA
ATOM      5  N   UNL     1       2.283   4.541  19.798  0.00  0.00    +0.000 N 
ATOM      6  N   UNL     1       1.417   5.166  20.764  0.00  0.00    +0.000 NA
ATOM      7  C   UNL     1       1.529   6.446  20.592  0.00  0.00    +0.000 C 
ATOM      8  S   UNL     1       2.597   6.972  19.293  0.00  0.00    +0.000 S 
ATOM      9  C   UNL     1       2.957   5.310  18.956  0.00  0.00    +0.000 C 
ATOM     10  N   UNL     1       3.766   4.840  18.021  0.00  0.00    +0.000 N 
ATOM     11  C   UNL     1       4.050   3.431  17.974  0.00  0.00    +0.000 C 
ATOM     12  O   UNL     1       4.729   3.008  17.053  0.00  0.00    +0.000 OA
ENDROOT
BRANCH  10  13
ATOM     13  C   UNL     1       4.485   5.704  17.047  0.00  0.00    +0.000 C 
BRANCH  13  14
ATOM     14  C   UNL     1       5.768   6.271  17.606  0.00  0.00    +0.000 A 
ATOM     15  C   UNL     1       6.494   5.578  18.589  0.00  0.00    +0.000 A 
ATOM     16  C   UNL     1       7.737   6.047  19.027  0.00  0.00    +0.000 A 
ATOM     17  C   UNL     1       8.271   7.217  18.494  0.00  0.00    +0.000 A 
ATOM     18  C   UNL     1       7.559   7.924  17.531  0.00  0.00    +0.000 A 
ATOM     19  C   UNL     1       6.318   7.453  17.090  0.00  0.00    +0.000 A 
ENDBRANCH  13  14
ENDBRANCH  10  13
TORSDOF 2
ENDMDL
MODEL 4
REMARK VINA RESULT:      -6.7      1.824      2.254
REMARK  Name = 
REMARK  3 active torsions:
REMARK  status: ('A' for Active; 'I' for Inactive)
REMARK    1  A    between atoms: C_1  and  C_2
REMARK    2  A    between atoms: N_10  and  C_11
REMARK    3  A    between atoms: C_11  and  C_12
REMARK                            x       y       z     vdW  Elec       q    Type
REMARK                         _______ _______ _______ _____ _____    ______ ____
ROOT
ATOM      1  C   UNL     1       2.308   2.233  18.852  0.00  0.00    +0.000 C 
ATOM      2  C   UNL     1       3.254   3.250  18.229  0.00  0.00    +0.000 C 
ATOM      3  C   UNL     1       4.522   3.380  18.994  0.00  0.00    +0.000 C 
ATOM      4  O   UNL     1       4.980   2.534  19.743  0.00  0.00    +0.000 OA
ATOM      5  N   UNL     1       5.315   4.526  18.667  0.00  0.00    +0.000 N 
ATOM      6  N   UNL     1       6.730   4.522  18.931  0.00  0.00    +0.000 NA
ATOM      7  C   UNL     1       7.192   5.657  18.506  0.00  0.00    +0.000 C 
ATOM      8  S   UNL     1       6.014   6.779  17.830  0.00  0.00    +0.000 S 
ATOM      9  C   UNL     1       4.773   5.604  18.117  0.00  0.00    +0.000 C 
ATOM     10  N   UNL     1       3.483   5.718  17.847  0.00  0.00    +0.000 N 
ATOM     11  C   UNL     1       2.618   4.584  18.029  0.00  0.00    +0.000 C 
ATOM     12  O   UNL     1       1.420   4.737  17.856  0.00  0.00    +0.000 OA
ENDROOT
BRANCH  10  13
ATOM     13  C   UNL     1       2.872   6.947  17.272  0.00  0.00    +0.000 C 
BRANCH  13  14
ATOM     14  C   UNL     1       2.259   7.841  18.324  0.00  0.00    +0.000 A 
ATOM     15  C   UNL     1       1.650   9.056  17.969  0.00  0.00    +0.000 A 
ATOM     16  C   UNL     1       0.986   9.832  18.925  0.00  0.00    +0.000 A 
ATOM     17  C   UNL     1       0.926   9.409  20.250  0.00  0.00    +0.000 A 
ATOM     18  C   UNL     1       1.536   8.217  20.622  0.00  0.00    +0.000 A 
ATOM     19  C   UNL     1       2.197   7.439  19.664  0.00  0.00    +0.000 A 
ENDBRANCH  13  14
ENDBRANCH  10  13
TORSDOF 2
ENDMDL
MODEL 5
REMARK VINA RESULT:      -6.7      2.550      4.670
REMARK  Name = 
REMARK  3 active torsions:
REMARK  status: ('A' for Active; 'I' for Inactive)
REMARK    1  A    between atoms: C_1  and  C_2
REMARK    2  A    between atoms: N_10  and  C_11
REMARK    3  A    between atoms: C_11  and  C_12
REMARK                            x       y       z     vdW  Elec       q    Type
REMARK                         _______ _______ _______ _____ _____    ______ ____
ROOT
ATOM      1  C   UNL     1       1.271   6.582  21.024  0.00  0.00    +0.000 C 
ATOM      2  C   UNL     1       1.669   5.653  19.886  0.00  0.00    +0.000 C 
ATOM      3  C   UNL     1       1.990   4.283  20.364  0.00  0.00    +0.000 C 
ATOM      4  O   UNL     1       1.599   3.794  21.410  0.00  0.00    +0.000 OA
ATOM      5  N   UNL     1       2.674   3.453  19.419  0.00  0.00    +0.000 N 
ATOM      6  N   UNL     1       2.602   2.019  19.535  0.00  0.00    +0.000 NA
ATOM      7  C   UNL     1       3.272   1.531  18.539  0.00  0.00    +0.000 C 
ATOM      8  S   UNL     1       4.040   2.696  17.463  0.00  0.00    +0.000 S 
ATOM      9  C   UNL     1       3.377   3.976  18.424  0.00  0.00    +0.000 C 
ATOM     10  N   UNL     1       3.521   5.278  18.235  0.00  0.00    +0.000 N 
ATOM     11  C   UNL     1       2.784   6.199  19.057  0.00  0.00    +0.000 C 
ATOM     12  O   UNL     1       2.996   7.392  18.923  0.00  0.00    +0.000 OA
ENDROOT
BRANCH  10  13
ATOM     13  C   UNL     1       4.348   5.861  17.145  0.00  0.00    +0.000 C 
BRANCH  13  14
ATOM     14  C   UNL     1       5.743   6.221  17.599  0.00  0.00    +0.000 A 
ATOM     15  C   UNL     1       6.388   7.366  17.103  0.00  0.00    +0.000 A 
ATOM     16  C   UNL     1       7.633   7.761  17.604  0.00  0.00    +0.000 A 
ATOM     17  C   UNL     1       8.255   7.016  18.602  0.00  0.00    +0.000 A 
ATOM     18  C   UNL     1       7.637   5.872  19.094  0.00  0.00    +0.000 A 
ATOM     19  C   UNL     1       6.390   5.478  18.596  0.00  0.00    +0.000 A 
ENDBRANCH  13  14
ENDBRANCH  10  13
TORSDOF 2
ENDMDL
MODEL 6
REMARK VINA RESULT:      -6.6      2.898      4.718
REMARK  Name = 
REMARK  3 active torsions:
REMARK  status: ('A' for Active; 'I' for Inactive)
REMARK    1  A    between atoms: C_1  and  C_2
REMARK    2  A    between atoms: N_10  and  C_11
REMARK    3  A    between atoms: C_11  and  C_12
REMARK                            x       y       z     vdW  Elec       q    Type
REMARK                         _______ _______ _______ _____ _____    ______ ____
ROOT
ATOM      1  C   UNL     1       5.108   3.890  14.228  0.00  0.00    +0.000 C 
ATOM      2  C   UNL     1       5.276   4.605  15.561  0.00  0.00    +0.000 C 
ATOM      3  C   UNL     1       6.593   5.286  15.673  0.00  0.00    +0.000 C 
ATOM      4  O   UNL     1       7.289   5.628  14.732  0.00  0.00    +0.000 OA
ATOM      5  N   UNL     1       6.954   5.700  16.994  0.00  0.00    +0.000 N 
ATOM      6  N   UNL     1       7.904   6.766  17.181  0.00  0.00    +0.000 NA
ATOM      7  C   UNL     1       8.010   6.951  18.460  0.00  0.00    +0.000 C 
ATOM      8  S   UNL     1       7.060   5.882  19.488  0.00  0.00    +0.000 S 
ATOM      9  C   UNL     1       6.428   5.122  18.065  0.00  0.00    +0.000 C 
ATOM     10  N   UNL     1       5.560   4.125  18.007  0.00  0.00    +0.000 N 
ATOM     11  C   UNL     1       5.044   3.709  16.731  0.00  0.00    +0.000 C 
ATOM     12  O   UNL     1       4.312   2.734  16.694  0.00  0.00    +0.000 OA
ENDROOT
BRANCH  10  13
ATOM     13  C   UNL     1       5.008   3.449  19.211  0.00  0.00    +0.000 C 
BRANCH  13  14
ATOM     14  C   UNL     1       3.610   3.908  19.550  0.00  0.00    +0.000 A 
ATOM     15  C   UNL     1       2.561   2.984  19.684  0.00  0.00    +0.000 A 
ATOM     16  C   UNL     1       1.291   3.396  20.105  0.00  0.00    +0.000 A 
ATOM     17  C   UNL     1       1.050   4.736  20.392  0.00  0.00    +0.000 A 
ATOM     18  C   UNL     1       2.073   5.667  20.249  0.00  0.00    +0.000 A 
ATOM     19  C   UNL     1       3.343   5.255  19.832  0.00  0.00    +0.000 A 
ENDBRANCH  13  14
ENDBRANCH  10  13
TORSDOF 2
ENDMDL
MODEL 7
REMARK VINA RESULT:      -6.6      0.127      1.110
REMARK  Name = 
REMARK  3 active torsions:
REMARK  status: ('A' for Active; 'I' for Inactive)
REMARK    1  A    between atoms: C_1  and  C_2
REMARK    2  A    between atoms: N_10  and  C_11
REMARK    3  A    between atoms: C_11  and  C_12
REMARK                            x       y       z     vdW  Elec       q    Type
REMARK                         _______ _______ _______ _____ _____    ______ ____
ROOT
ATOM      1  C   UNL     1       0.478   2.425  18.906  0.00  0.00    +0.000 C 
ATOM      2  C   UNL     1       1.352   3.561  18.393  0.00  0.00    +0.000 C 
ATOM      3  C   UNL     1       2.568   3.065  17.697  0.00  0.00    +0.000 C 
ATOM      4  O   UNL     1       2.689   1.959  17.198  0.00  0.00    +0.000 OA
ATOM      5  N   UNL     1       3.584   4.047  17.473  0.00  0.00    +0.000 N 
ATOM      6  N   UNL     1       4.547   3.861  16.418  0.00  0.00    +0.000 NA
ATOM      7  C   UNL     1       5.312   4.908  16.422  0.00  0.00    +0.000 C 
ATOM      8  S   UNL     1       4.980   6.117  17.660  0.00  0.00    +0.000 S 
ATOM      9  C   UNL     1       3.662   5.140  18.219  0.00  0.00    +0.000 C 
ATOM     10  N   UNL     1       2.840   5.402  19.223  0.00  0.00    +0.000 N 
ATOM     11  C   UNL     1       1.714   4.539  19.459  0.00  0.00    +0.000 C 
ATOM     12  O   UNL     1       1.020   4.750  20.440  0.00  0.00    +0.000 OA
ENDROOT
BRANCH  10  13
ATOM     13  C   UNL     1       2.959   6.607  20.086  0.00  0.00    +0.000 C 
BRANCH  13  14
ATOM     14  C   UNL     1       2.157   7.778  19.571  0.00  0.00    +0.000 A 
ATOM     15  C   UNL     1       2.173   8.117  18.208  0.00  0.00    +0.000 A 
ATOM     16  C   UNL     1       1.347   9.131  17.711  0.00  0.00    +0.000 A 
ATOM     17  C   UNL     1       0.497   9.824  18.568  0.00  0.00    +0.000 A 
ATOM     18  C   UNL     1       0.480   9.512  19.923  0.00  0.00    +0.000 A 
ATOM     19  C   UNL     1       1.303   8.495  20.419  0.00  0.00    +0.000 A 
ENDBRANCH  13  14
ENDBRANCH  10  13
TORSDOF 2
ENDMDL
MODEL 8
REMARK VINA RESULT:      -6.5      2.523      5.784
REMARK  Name = 
REMARK  3 active torsions:
REMARK  status: ('A' for Active; 'I' for Inactive)
REMARK    1  A    between atoms: C_1  and  C_2
REMARK    2  A    between atoms: N_10  and  C_11
REMARK    3  A    between atoms: C_11  and  C_12
REMARK                            x       y       z     vdW  Elec       q    Type
REMARK                         _______ _______ _______ _____ _____    ______ ____
ROOT
ATOM      1  C   UNL     1       2.585   8.092  18.182  0.00  0.00    +0.000 C 
ATOM      2  C   UNL     1       2.913   6.607  18.223  0.00  0.00    +0.000 C 
ATOM      3  C   UNL     1       2.424   5.956  19.466  0.00  0.00    +0.000 C 
ATOM      4  O   UNL     1       1.522   6.378  20.171  0.00  0.00    +0.000 OA
ATOM      5  N   UNL     1       2.965   4.657  19.727  0.00  0.00    +0.000 N 
ATOM      6  N   UNL     1       2.247   3.733  20.567  0.00  0.00    +0.000 NA
ATOM      7  C   UNL     1       2.942   2.639  20.597  0.00  0.00    +0.000 C 
ATOM      8  S   UNL     1       4.458   2.649  19.700  0.00  0.00    +0.000 S 
ATOM      9  C   UNL     1       4.122   4.276  19.206  0.00  0.00    +0.000 C 
ATOM     10  N   UNL     1       4.869   5.050  18.435  0.00  0.00    +0.000 N 
ATOM     11  C   UNL     1       4.365   6.330  18.017  0.00  0.00    +0.000 C 
ATOM     12  O   UNL     1       5.103   7.061  17.379  0.00  0.00    +0.000 OA
ENDROOT
BRANCH  10  13
ATOM     13  C   UNL     1       6.189   4.634  17.890  0.00  0.00    +0.000 C 
BRANCH  13  14
ATOM     14  C   UNL     1       6.188   4.513  16.385  0.00  0.00    +0.000 A 
ATOM     15  C   UNL     1       7.267   4.992  15.624  0.00  0.00    +0.000 A 
ATOM     16  C   UNL     1       7.319   4.783  14.241  0.00  0.00    +0.000 A 
ATOM     17  C   UNL     1       6.292   4.099  13.598  0.00  0.00    +0.000 A 
ATOM     18  C   UNL     1       5.208   3.631  14.334  0.00  0.00    +0.000 A 
ATOM     19  C   UNL     1       5.158   3.837  15.717  0.00  0.00    +0.000 A 
ENDBRANCH  13  14
ENDBRANCH  10  13
TORSDOF 2
ENDMDL
MODEL 9
REMARK VINA RESULT:      -6.5      1.864      2.157
REMARK  Name = 
REMARK  3 active torsions:
REMARK  status: ('A' for Active; 'I' for Inactive)
REMARK    1  A    between atoms: C_1  and  C_2
REMARK    2  A    between atoms: N_10  and  C_11
REMARK    3  A    between atoms: C_11  and  C_12
REMARK                            x       y       z     vdW  Elec       q    Type
REMARK                         _______ _______ _______ _____ _____    ______ ____
ROOT
ATOM      1  C   UNL     1       2.358   2.232  18.765  0.00  0.00    +0.000 C 
ATOM      2  C   UNL     1       3.311   3.274  18.197  0.00  0.00    +0.000 C 
ATOM      3  C   UNL     1       4.536   3.427  19.026  0.00  0.00    +0.000 C 
ATOM      4  O   UNL     1       4.974   2.587  19.793  0.00  0.00    +0.000 OA
ATOM      5  N   UNL     1       5.318   4.593  18.747  0.00  0.00    +0.000 N 
ATOM      6  N   UNL     1       6.717   4.619  19.084  0.00  0.00    +0.000 NA
ATOM      7  C   UNL     1       7.174   5.767  18.690  0.00  0.00    +0.000 C 
ATOM      8  S   UNL     1       6.007   6.867  17.962  0.00  0.00    +0.000 S 
ATOM      9  C   UNL     1       4.780   5.662  18.177  0.00  0.00    +0.000 C 
ATOM     10  N   UNL     1       3.503   5.750  17.842  0.00  0.00    +0.000 N 
ATOM     11  C   UNL     1       2.656   4.596  17.973  0.00  0.00    +0.000 C 
ATOM     12  O   UNL     1       1.465   4.722  17.740  0.00  0.00    +0.000 OA
ENDROOT
BRANCH  10  13
ATOM     13  C   UNL     1       2.894   6.969  17.245  0.00  0.00    +0.000 C 
BRANCH  13  14
ATOM     14  C   UNL     1       2.158   7.812  18.259  0.00  0.00    +0.000 A 
ATOM     15  C   UNL     1       2.158   7.464  19.620  0.00  0.00    +0.000 A 
ATOM     16  C   UNL     1       1.570   8.302  20.575  0.00  0.00    +0.000 A 
ATOM     17  C   UNL     1       0.970   9.494  20.183  0.00  0.00    +0.000 A 
ATOM     18  C   UNL     1       0.948   9.847  18.839  0.00  0.00    +0.000 A 
ATOM     19  C   UNL     1       1.538   9.011  17.884  0.00  0.00    +0.000 A 
ENDBRANCH  13  14
ENDBRANCH  10  13
TORSDOF 2
ENDMDL
