MODEL 1
REMARK VINA RESULT:      -9.3      0.000      0.000
REMARK  Name = 
REMARK  6 active torsions:
REMARK  status: ('A' for Active; 'I' for Inactive)
REMARK    1  A    between atoms: C_1  and  C_2
REMARK    2  A    between atoms: N_7  and  C_8
REMARK    3  A    between atoms: C_11  and  N_12
REMARK    4  A    between atoms: C_13  and  C_15
REMARK    5  A    between atoms: C_18  and  C_19
REMARK    6  A    between atoms: N_21  and  C_22
REMARK                            x       y       z     vdW  Elec       q    Type
REMARK                         _______ _______ _______ _____ _____    ______ ____
ROOT
ATOM      1  N   UNL     1       1.105   8.850  21.101  0.00  0.00    +0.000 N 
ATOM      2  C   UNL     1       1.586   8.492  19.861  0.00  0.00    +0.000 C 
ATOM      3  O   UNL     1       1.559   9.249  18.898  0.00  0.00    +0.000 OA
ATOM      4  H   UNL     1       1.084   8.120  21.803  0.00  0.00    +0.000 HD
ENDROOT
BRANCH   2   5
ATOM      5  C   UNL     1       2.119   7.137  19.803  0.00  0.00    +0.000 A 
ATOM      6  C   UNL     1       1.758   6.016  20.563  0.00  0.00    +0.000 A 
ATOM      7  C   UNL     1       2.550   4.937  20.177  0.00  0.00    +0.000 A 
ATOM      8  C   UNL     1       2.718   3.595  20.507  0.00  0.00    +0.000 A 
ATOM      9  C   UNL     1       1.996   2.760  21.494  0.00  0.00    +0.000 C 
ATOM     10  N   UNL     1       3.713   3.061  19.751  0.00  0.00    +0.000 NA
ATOM     11  N   UNL     1       4.145   4.099  18.979  0.00  0.00    +0.000 N 
ATOM     12  C   UNL     1       3.432   5.218  19.220  0.00  0.00    +0.000 A 
ATOM     13  S   UNL     1       3.395   6.768  18.660  0.00  0.00    +0.000 S 
BRANCH  11  14
ATOM     14  C   UNL     1       5.252   3.998  18.050  0.00  0.00    +0.000 C 
ATOM     15  C   UNL     1       6.440   4.860  18.472  0.00  0.00    +0.000 C 
ATOM     16  C   UNL     1       7.591   4.626  17.506  0.00  0.00    +0.000 C 
ATOM     17  O   UNL     1       7.183   4.883  16.163  0.00  0.00    +0.000 OA
ATOM     18  C   UNL     1       6.121   4.035  15.731  0.00  0.00    +0.000 C 
ATOM     19  C   UNL     1       4.880   4.243  16.590  0.00  0.00    +0.000 C 
ENDBRANCH  11  14
ENDBRANCH   2   5
BRANCH   1  23
ATOM     20  C   UNL     1      -2.043  11.657  21.956  0.00  0.00    +0.000 C 
ATOM     21  C   UNL     1      -1.321  11.727  20.591  0.00  0.00    +0.000 C 
ATOM     22  C   UNL     1      -0.541  10.452  20.274  0.00  0.00    +0.000 C 
ATOM     23  C   UNL     1       0.431  10.092  21.398  0.00  0.00    +0.000 C 
ATOM     24  C   UNL     1      -0.317   9.948  22.726  0.00  0.00    +0.000 C 
ATOM     25  C   UNL     1      -1.069  11.224  23.073  0.00  0.00    +0.000 C 
BRANCH  20  32
ATOM     26  C   UNL     1      -7.342  14.726  21.895  0.00  0.00    +0.000 C 
ATOM     27  C   UNL     1      -6.502  14.394  23.102  0.00  0.00    +0.000 C 
ATOM     28  O   UNL     1      -7.045  14.050  24.153  0.00  0.00    +0.000 OA
ATOM     29  N   UNL     1      -5.129  14.478  22.965  0.00  0.00    +0.000 N 
ATOM     30  C   UNL     1      -4.262  14.007  24.045  0.00  0.00    +0.000 C 
ATOM     31  C   UNL     1      -3.531  12.718  23.612  0.00  0.00    +0.000 C 
ATOM     32  N   UNL     1      -2.777  12.884  22.344  0.00  0.00    +0.000 NA
ATOM     33  C   UNL     1      -3.647  13.438  21.283  0.00  0.00    +0.000 C 
ATOM     34  C   UNL     1      -4.411  14.705  21.716  0.00  0.00    +0.000 C 
ENDBRANCH  20  32
ENDBRANCH   1  23
TORSDOF 4
ENDMDL
MODEL 2
REMARK VINA RESULT:      -9.2      2.632     11.928
REMARK  Name = 
REMARK  6 active torsions:
REMARK  status: ('A' for Active; 'I' for Inactive)
REMARK    1  A    between atoms: C_1  and  C_2
REMARK    2  A    between atoms: N_7  and  C_8
REMARK    3  A    between atoms: C_11  and  N_12
REMARK    4  A    between atoms: C_13  and  C_15
REMARK    5  A    between atoms: C_18  and  C_19
REMARK    6  A    between atoms: N_21  and  C_22
REMARK                            x       y       z     vdW  Elec       q    Type
REMARK                         _______ _______ _______ _____ _____    ______ ____
ROOT
ATOM      1  N   UNL     1       0.532   9.741  20.036  0.00  0.00    +0.000 N 
ATOM      2  C   UNL     1       0.527  10.758  20.965  0.00  0.00    +0.000 C 
ATOM      3  O   UNL     1       1.533  11.097  21.578  0.00  0.00    +0.000 OA
ATOM      4  H   UNL     1      -0.369   9.474  19.657  0.00  0.00    +0.000 HD
ENDROOT
BRANCH   2   5
ATOM      5  C   UNL     1      -0.776  11.382  21.151  0.00  0.00    +0.000 A 
ATOM      6  C   UNL     1      -1.426  11.722  22.346  0.00  0.00    +0.000 A 
ATOM      7  C   UNL     1      -2.665  12.280  22.041  0.00  0.00    +0.000 A 
ATOM      8  C   UNL     1      -3.768  12.803  22.710  0.00  0.00    +0.000 A 
ATOM      9  C   UNL     1      -4.005  12.979  24.161  0.00  0.00    +0.000 C 
ATOM     10  N   UNL     1      -4.710  13.183  21.808  0.00  0.00    +0.000 NA
ATOM     11  N   UNL     1      -4.165  12.871  20.598  0.00  0.00    +0.000 N 
ATOM     12  C   UNL     1      -2.930  12.349  20.737  0.00  0.00    +0.000 A 
ATOM     13  S   UNL     1      -1.736  11.794  19.745  0.00  0.00    +0.000 S 
BRANCH  11  14
ATOM     14  C   UNL     1      -4.857  13.053  19.338  0.00  0.00    +0.000 C 
ATOM     15  C   UNL     1      -6.133  13.878  19.494  0.00  0.00    +0.000 C 
ATOM     16  C   UNL     1      -6.748  14.107  18.122  0.00  0.00    +0.000 C 
ATOM     17  O   UNL     1      -6.980  12.866  17.460  0.00  0.00    +0.000 OA
ATOM     18  C   UNL     1      -5.787  12.116  17.242  0.00  0.00    +0.000 C 
ATOM     19  C   UNL     1      -5.122  11.763  18.567  0.00  0.00    +0.000 C 
ENDBRANCH  11  14
ENDBRANCH   2   5
BRANCH   1  23
ATOM     20  C   UNL     1       2.855   6.433  18.559  0.00  0.00    +0.000 C 
ATOM     21  C   UNL     1       2.658   6.595  20.083  0.00  0.00    +0.000 C 
ATOM     22  C   UNL     1       1.507   7.537  20.430  0.00  0.00    +0.000 C 
ATOM     23  C   UNL     1       1.665   8.895  19.743  0.00  0.00    +0.000 C 
ATOM     24  C   UNL     1       1.777   8.718  18.227  0.00  0.00    +0.000 C 
ATOM     25  C   UNL     1       2.943   7.810  17.865  0.00  0.00    +0.000 C 
BRANCH  20  32
ATOM     26  C   UNL     1       6.052   3.926  13.977  0.00  0.00    +0.000 C 
ATOM     27  C   UNL     1       6.596   4.755  15.112  0.00  0.00    +0.000 C 
ATOM     28  O   UNL     1       7.488   5.578  14.901  0.00  0.00    +0.000 OA
ATOM     29  N   UNL     1       6.045   4.559  16.365  0.00  0.00    +0.000 N 
ATOM     30  C   UNL     1       6.411   5.449  17.467  0.00  0.00    +0.000 C 
ATOM     31  C   UNL     1       5.213   6.347  17.842  0.00  0.00    +0.000 C 
ATOM     32  N   UNL     1       3.989   5.569  18.158  0.00  0.00    +0.000 NA
ATOM     33  C   UNL     1       3.678   4.615  17.070  0.00  0.00    +0.000 C 
ATOM     34  C   UNL     1       4.876   3.737  16.661  0.00  0.00    +0.000 C 
ENDBRANCH  20  32
ENDBRANCH   1  23
TORSDOF 4
ENDMDL
MODEL 3
REMARK VINA RESULT:      -9.2      1.294      1.404
REMARK  Name = 
REMARK  6 active torsions:
REMARK  status: ('A' for Active; 'I' for Inactive)
REMARK    1  A    between atoms: C_1  and  C_2
REMARK    2  A    between atoms: N_7  and  C_8
REMARK    3  A    between atoms: C_11  and  N_12
REMARK    4  A    between atoms: C_13  and  C_15
REMARK    5  A    between atoms: C_18  and  C_19
REMARK    6  A    between atoms: N_21  and  C_22
REMARK                            x       y       z     vdW  Elec       q    Type
REMARK                         _______ _______ _______ _____ _____    ______ ____
ROOT
ATOM      1  N   UNL     1       1.001   9.414  19.944  0.00  0.00    +0.000 N 
ATOM      2  C   UNL     1       1.719   8.946  18.866  0.00  0.00    +0.000 C 
ATOM      3  O   UNL     1       1.899   9.611  17.852  0.00  0.00    +0.000 OA
ATOM      4  H   UNL     1       0.828   8.752  20.691  0.00  0.00    +0.000 HD
ENDROOT
BRANCH   2   5
ATOM      5  C   UNL     1       2.235   7.594  19.042  0.00  0.00    +0.000 A 
ATOM      6  C   UNL     1       1.868   6.629  19.990  0.00  0.00    +0.000 A 
ATOM      7  C   UNL     1       2.642   5.489  19.793  0.00  0.00    +0.000 A 
ATOM      8  C   UNL     1       2.797   4.223  20.352  0.00  0.00    +0.000 A 
ATOM      9  C   UNL     1       2.075   3.583  21.476  0.00  0.00    +0.000 C 
ATOM     10  N   UNL     1       3.778   3.551  19.694  0.00  0.00    +0.000 NA
ATOM     11  N   UNL     1       4.214   4.431  18.748  0.00  0.00    +0.000 N 
ATOM     12  C   UNL     1       3.519   5.585  18.794  0.00  0.00    +0.000 A 
ATOM     13  S   UNL     1       3.495   7.013  17.972  0.00  0.00    +0.000 S 
BRANCH  11  14
ATOM     14  C   UNL     1       5.311   4.154  17.842  0.00  0.00    +0.000 C 
ATOM     15  C   UNL     1       6.564   4.955  18.190  0.00  0.00    +0.000 C 
ATOM     16  C   UNL     1       7.694   4.539  17.261  0.00  0.00    +0.000 C 
ATOM     17  O   UNL     1       7.309   4.696  15.897  0.00  0.00    +0.000 OA
ATOM     18  C   UNL     1       6.183   3.898  15.538  0.00  0.00    +0.000 C 
ATOM     19  C   UNL     1       4.961   4.286  16.362  0.00  0.00    +0.000 C 
ENDBRANCH  11  14
ENDBRANCH   2   5
BRANCH   1  23
ATOM     20  C   UNL     1      -1.990  12.367  20.866  0.00  0.00    +0.000 C 
ATOM     21  C   UNL     1      -1.877  11.835  19.420  0.00  0.00    +0.000 C 
ATOM     22  C   UNL     1      -1.081  10.535  19.333  0.00  0.00    +0.000 C 
ATOM     23  C   UNL     1       0.297  10.674  19.983  0.00  0.00    +0.000 C 
ATOM     24  C   UNL     1       0.159  11.124  21.439  0.00  0.00    +0.000 C 
ATOM     25  C   UNL     1      -0.602  12.438  21.538  0.00  0.00    +0.000 C 
BRANCH  20  32
ATOM     26  C   UNL     1      -6.479  15.475  23.640  0.00  0.00    +0.000 C 
ATOM     27  C   UNL     1      -5.026  15.867  23.555  0.00  0.00    +0.000 C 
ATOM     28  O   UNL     1      -4.467  16.370  24.530  0.00  0.00    +0.000 OA
ATOM     29  N   UNL     1      -4.370  15.624  22.363  0.00  0.00    +0.000 N 
ATOM     30  C   UNL     1      -2.923  15.824  22.277  0.00  0.00    +0.000 C 
ATOM     31  C   UNL     1      -2.206  14.463  22.149  0.00  0.00    +0.000 C 
ATOM     32  N   UNL     1      -2.710  13.653  21.011  0.00  0.00    +0.000 NA
ATOM     33  C   UNL     1      -4.184  13.528  21.067  0.00  0.00    +0.000 C 
ATOM     34  C   UNL     1      -4.909  14.878  21.231  0.00  0.00    +0.000 C 
ENDBRANCH  20  32
ENDBRANCH   1  23
TORSDOF 4
ENDMDL
MODEL 4
REMARK VINA RESULT:      -8.9      1.598      2.100
REMARK  Name = 
REMARK  6 active torsions:
REMARK  status: ('A' for Active; 'I' for Inactive)
REMARK    1  A    between atoms: C_1  and  C_2
REMARK    2  A    between atoms: N_7  and  C_8
REMARK    3  A    between atoms: C_11  and  N_12
REMARK    4  A    between atoms: C_13  and  C_15
REMARK    5  A    between atoms: C_18  and  C_19
REMARK    6  A    between atoms: N_21  and  C_22
REMARK                            x       y       z     vdW  Elec       q    Type
REMARK                         _______ _______ _______ _____ _____    ______ ____
ROOT
ATOM      1  N   UNL     1       0.986   9.062  20.921  0.00  0.00    +0.000 N 
ATOM      2  C   UNL     1       1.586   8.690  19.738  0.00  0.00    +0.000 C 
ATOM      3  O   UNL     1       1.692   9.452  18.783  0.00  0.00    +0.000 OA
ATOM      4  H   UNL     1       0.863   8.331  21.612  0.00  0.00    +0.000 HD
ENDROOT
BRANCH   2   5
ATOM      5  C   UNL     1       2.074   7.317  19.729  0.00  0.00    +0.000 A 
ATOM      6  C   UNL     1       1.692   6.242  20.544  0.00  0.00    +0.000 A 
ATOM      7  C   UNL     1       2.439   5.122  20.190  0.00  0.00    +0.000 A 
ATOM      8  C   UNL     1       2.570   3.791  20.575  0.00  0.00    +0.000 A 
ATOM      9  C   UNL     1       1.842   3.023  21.611  0.00  0.00    +0.000 C 
ATOM     10  N   UNL     1       3.531   3.192  19.824  0.00  0.00    +0.000 NA
ATOM     11  N   UNL     1       3.980   4.180  18.999  0.00  0.00    +0.000 N 
ATOM     12  C   UNL     1       3.311   5.332  19.205  0.00  0.00    +0.000 A 
ATOM     13  S   UNL     1       3.312   6.857  18.578  0.00  0.00    +0.000 S 
BRANCH  11  14
ATOM     14  C   UNL     1       5.064   4.002  18.054  0.00  0.00    +0.000 C 
ATOM     15  C   UNL     1       6.265   4.889  18.379  0.00  0.00    +0.000 C 
ATOM     16  C   UNL     1       7.391   4.576  17.406  0.00  0.00    +0.000 C 
ATOM     17  O   UNL     1       6.951   4.728  16.058  0.00  0.00    +0.000 OA
ATOM     18  C   UNL     1       5.876   3.855  15.719  0.00  0.00    +0.000 C 
ATOM     19  C   UNL     1       4.657   4.134  16.589  0.00  0.00    +0.000 C 
ENDBRANCH  11  14
ENDBRANCH   2   5
BRANCH   1  23
ATOM     20  C   UNL     1      -2.101  11.939  21.764  0.00  0.00    +0.000 C 
ATOM     21  C   UNL     1      -1.499  11.874  20.343  0.00  0.00    +0.000 C 
ATOM     22  C   UNL     1      -0.739  10.575  20.086  0.00  0.00    +0.000 C 
ATOM     23  C   UNL     1       0.329  10.327  21.152  0.00  0.00    +0.000 C 
ATOM     24  C   UNL     1      -0.300  10.315  22.547  0.00  0.00    +0.000 C 
ATOM     25  C   UNL     1      -1.031  11.618  22.831  0.00  0.00    +0.000 C 
BRANCH  20  32
ATOM     26  C   UNL     1      -2.393  16.908  25.331  0.00  0.00    +0.000 C 
ATOM     27  C   UNL     1      -2.364  16.876  23.825  0.00  0.00    +0.000 C 
ATOM     28  O   UNL     1      -1.707  17.714  23.205  0.00  0.00    +0.000 OA
ATOM     29  N   UNL     1      -3.080  15.876  23.195  0.00  0.00    +0.000 N 
ATOM     30  C   UNL     1      -2.953  15.692  21.749  0.00  0.00    +0.000 C 
ATOM     31  C   UNL     1      -2.192  14.383  21.447  0.00  0.00    +0.000 C 
ATOM     32  N   UNL     1      -2.810  13.197  22.092  0.00  0.00    +0.000 NA
ATOM     33  C   UNL     1      -3.008  13.430  23.540  0.00  0.00    +0.000 C 
ATOM     34  C   UNL     1      -3.735  14.752  23.856  0.00  0.00    +0.000 C 
ENDBRANCH  20  32
ENDBRANCH   1  23
TORSDOF 4
ENDMDL
MODEL 5
REMARK VINA RESULT:      -8.9      1.296      1.326
REMARK  Name = 
REMARK  6 active torsions:
REMARK  status: ('A' for Active; 'I' for Inactive)
REMARK    1  A    between atoms: C_1  and  C_2
REMARK    2  A    between atoms: N_7  and  C_8
REMARK    3  A    between atoms: C_11  and  N_12
REMARK    4  A    between atoms: C_13  and  C_15
REMARK    5  A    between atoms: C_18  and  C_19
REMARK    6  A    between atoms: N_21  and  C_22
REMARK                            x       y       z     vdW  Elec       q    Type
REMARK                         _______ _______ _______ _____ _____    ______ ____
ROOT
ATOM      1  N   UNL     1       1.235   8.644  20.109  0.00  0.00    +0.000 N 
ATOM      2  C   UNL     1       1.905   8.542  18.909  0.00  0.00    +0.000 C 
ATOM      3  O   UNL     1       2.178   9.517  18.220  0.00  0.00    +0.000 OA
ATOM      4  H   UNL     1       0.973   7.772  20.553  0.00  0.00    +0.000 HD
ENDROOT
BRANCH   2   5
ATOM      5  C   UNL     1       2.249   7.175  18.540  0.00  0.00    +0.000 A 
ATOM      6  C   UNL     1       1.545   5.990  18.796  0.00  0.00    +0.000 A 
ATOM      7  C   UNL     1       2.263   4.918  18.273  0.00  0.00    +0.000 A 
ATOM      8  C   UNL     1       2.153   3.533  18.182  0.00  0.00    +0.000 A 
ATOM      9  C   UNL     1       1.080   2.630  18.657  0.00  0.00    +0.000 C 
ATOM     10  N   UNL     1       3.241   3.031  17.540  0.00  0.00    +0.000 NA
ATOM     11  N   UNL     1       4.004   4.126  17.262  0.00  0.00    +0.000 N 
ATOM     12  C   UNL     1       3.408   5.259  17.683  0.00  0.00    +0.000 A 
ATOM     13  S   UNL     1       3.734   6.875  17.659  0.00  0.00    +0.000 S 
BRANCH  11  14
ATOM     14  C   UNL     1       5.304   4.054  16.626  0.00  0.00    +0.000 C 
ATOM     15  C   UNL     1       6.404   4.670  17.488  0.00  0.00    +0.000 C 
ATOM     16  C   UNL     1       7.745   4.469  16.800  0.00  0.00    +0.000 C 
ATOM     17  O   UNL     1       7.721   5.010  15.480  0.00  0.00    +0.000 OA
ATOM     18  C   UNL     1       6.747   4.393  14.641  0.00  0.00    +0.000 C 
ATOM     19  C   UNL     1       5.344   4.599  15.201  0.00  0.00    +0.000 C 
ENDBRANCH  11  14
ENDBRANCH   2   5
BRANCH   1  23
ATOM     20  C   UNL     1      -1.536  11.422  21.875  0.00  0.00    +0.000 C 
ATOM     21  C   UNL     1      -1.138  11.595  20.392  0.00  0.00    +0.000 C 
ATOM     22  C   UNL     1      -0.496  10.339  19.807  0.00  0.00    +0.000 C 
ATOM     23  C   UNL     1       0.690   9.868  20.648  0.00  0.00    +0.000 C 
ATOM     24  C   UNL     1       0.257   9.625  22.096  0.00  0.00    +0.000 C 
ATOM     25  C   UNL     1      -0.352  10.880  22.704  0.00  0.00    +0.000 C 
BRANCH  20  32
ATOM     26  C   UNL     1      -6.036  15.575  21.900  0.00  0.00    +0.000 C 
ATOM     27  C   UNL     1      -5.595  14.713  23.054  0.00  0.00    +0.000 C 
ATOM     28  O   UNL     1      -6.433  14.223  23.812  0.00  0.00    +0.000 OA
ATOM     29  N   UNL     1      -4.238  14.495  23.204  0.00  0.00    +0.000 N 
ATOM     30  C   UNL     1      -3.762  13.532  24.199  0.00  0.00    +0.000 C 
ATOM     31  C   UNL     1      -3.182  12.287  23.496  0.00  0.00    +0.000 C 
ATOM     32  N   UNL     1      -2.119  12.624  22.516  0.00  0.00    +0.000 NA
ATOM     33  C   UNL     1      -2.587  13.658  21.566  0.00  0.00    +0.000 C 
ATOM     34  C   UNL     1      -3.202  14.892  22.256  0.00  0.00    +0.000 C 
ENDBRANCH  20  32
ENDBRANCH   1  23
TORSDOF 4
ENDMDL
MODEL 6
REMARK VINA RESULT:      -8.8      1.340      1.565
REMARK  Name = 
REMARK  6 active torsions:
REMARK  status: ('A' for Active; 'I' for Inactive)
REMARK    1  A    between atoms: C_1  and  C_2
REMARK    2  A    between atoms: N_7  and  C_8
REMARK    3  A    between atoms: C_11  and  N_12
REMARK    4  A    between atoms: C_13  and  C_15
REMARK    5  A    between atoms: C_18  and  C_19
REMARK    6  A    between atoms: N_21  and  C_22
REMARK                            x       y       z     vdW  Elec       q    Type
REMARK                         _______ _______ _______ _____ _____    ______ ____
ROOT
ATOM      1  N   UNL     1       0.891   9.002  20.685  0.00  0.00    +0.000 N 
ATOM      2  C   UNL     1       1.467   8.584  19.505  0.00  0.00    +0.000 C 
ATOM      3  O   UNL     1       1.480   9.277  18.494  0.00  0.00    +0.000 OA
ATOM      4  H   UNL     1       0.848   8.318  21.431  0.00  0.00    +0.000 HD
ENDROOT
BRANCH   2   5
ATOM      5  C   UNL     1       2.048   7.249  19.571  0.00  0.00    +0.000 A 
ATOM      6  C   UNL     1       1.733   6.194  20.439  0.00  0.00    +0.000 A 
ATOM      7  C   UNL     1       2.560   5.112  20.150  0.00  0.00    +0.000 A 
ATOM      8  C   UNL     1       2.779   3.815  20.605  0.00  0.00    +0.000 A 
ATOM      9  C   UNL     1       2.095   3.054  21.676  0.00  0.00    +0.000 C 
ATOM     10  N   UNL     1       3.787   3.246  19.894  0.00  0.00    +0.000 NA
ATOM     11  N   UNL     1       4.175   4.219  19.021  0.00  0.00    +0.000 N 
ATOM     12  C   UNL     1       3.425   5.330  19.161  0.00  0.00    +0.000 A 
ATOM     13  S   UNL     1       3.328   6.817  18.455  0.00  0.00    +0.000 S 
BRANCH  11  14
ATOM     14  C   UNL     1       5.279   4.068  18.094  0.00  0.00    +0.000 C 
ATOM     15  C   UNL     1       6.479   4.931  18.479  0.00  0.00    +0.000 C 
ATOM     16  C   UNL     1       7.624   4.646  17.521  0.00  0.00    +0.000 C 
ATOM     17  O   UNL     1       7.215   4.854  16.170  0.00  0.00    +0.000 OA
ATOM     18  C   UNL     1       6.142   4.003  15.773  0.00  0.00    +0.000 C 
ATOM     19  C   UNL     1       4.906   4.260  16.626  0.00  0.00    +0.000 C 
ENDBRANCH  11  14
ENDBRANCH   2   5
BRANCH   1  23
ATOM     20  C   UNL     1      -0.337  12.810  22.267  0.00  0.00    +0.000 C 
ATOM     21  C   UNL     1      -1.256  11.583  22.458  0.00  0.00    +0.000 C 
ATOM     22  C   UNL     1      -0.528  10.262  22.221  0.00  0.00    +0.000 C 
ATOM     23  C   UNL     1       0.158  10.234  20.854  0.00  0.00    +0.000 C 
ATOM     24  C   UNL     1       1.124  11.412  20.716  0.00  0.00    +0.000 C 
ATOM     25  C   UNL     1       0.405  12.738  20.915  0.00  0.00    +0.000 C 
BRANCH  20  32
ATOM     26  C   UNL     1      -5.555  16.011  22.108  0.00  0.00    +0.000 C 
ATOM     27  C   UNL     1      -4.575  15.936  23.249  0.00  0.00    +0.000 C 
ATOM     28  O   UNL     1      -4.984  15.875  24.410  0.00  0.00    +0.000 OA
ATOM     29  N   UNL     1      -3.229  15.925  22.933  0.00  0.00    +0.000 N 
ATOM     30  C   UNL     1      -2.238  15.683  23.982  0.00  0.00    +0.000 C 
ATOM     31  C   UNL     1      -1.587  14.297  23.787  0.00  0.00    +0.000 C 
ATOM     32  N   UNL     1      -0.998  14.125  22.435  0.00  0.00    +0.000 NA
ATOM     33  C   UNL     1      -1.988  14.452  21.384  0.00  0.00    +0.000 C 
ATOM     34  C   UNL     1      -2.672  15.818  21.589  0.00  0.00    +0.000 C 
ENDBRANCH  20  32
ENDBRANCH   1  23
TORSDOF 4
ENDMDL
MODEL 7
REMARK VINA RESULT:      -8.8      2.548     12.400
REMARK  Name = 
REMARK  6 active torsions:
REMARK  status: ('A' for Active; 'I' for Inactive)
REMARK    1  A    between atoms: C_1  and  C_2
REMARK    2  A    between atoms: N_7  and  C_8
REMARK    3  A    between atoms: C_11  and  N_12
REMARK    4  A    between atoms: C_13  and  C_15
REMARK    5  A    between atoms: C_18  and  C_19
REMARK    6  A    between atoms: N_21  and  C_22
REMARK                            x       y       z     vdW  Elec       q    Type
REMARK                         _______ _______ _______ _____ _____    ______ ____
ROOT
ATOM      1  N   UNL     1       0.433   9.987  19.652  0.00  0.00    +0.000 N 
ATOM      2  C   UNL     1       0.500  11.324  19.980  0.00  0.00    +0.000 C 
ATOM      3  O   UNL     1       1.559  11.938  20.039  0.00  0.00    +0.000 OA
ATOM      4  H   UNL     1      -0.478   9.551  19.726  0.00  0.00    +0.000 HD
ENDROOT
BRANCH   2   5
ATOM      5  C   UNL     1      -0.797  11.930  20.255  0.00  0.00    +0.000 A 
ATOM      6  C   UNL     1      -2.016  11.738  19.590  0.00  0.00    +0.000 A 
ATOM      7  C   UNL     1      -2.985  12.541  20.186  0.00  0.00    +0.000 A 
ATOM      8  C   UNL     1      -4.337  12.833  20.034  0.00  0.00    +0.000 A 
ATOM      9  C   UNL     1      -5.325  12.295  19.070  0.00  0.00    +0.000 C 
ATOM     10  N   UNL     1      -4.711  13.758  20.956  0.00  0.00    +0.000 NA
ATOM     11  N   UNL     1      -3.567  14.023  21.651  0.00  0.00    +0.000 N 
ATOM     12  C   UNL     1      -2.538  13.278  21.202  0.00  0.00    +0.000 A 
ATOM     13  S   UNL     1      -0.945  13.073  21.574  0.00  0.00    +0.000 S 
BRANCH  11  14
ATOM     14  C   UNL     1      -3.485  15.010  22.709  0.00  0.00    +0.000 C 
ATOM     15  C   UNL     1      -3.392  14.368  24.091  0.00  0.00    +0.000 C 
ATOM     16  C   UNL     1      -3.212  15.460  25.134  0.00  0.00    +0.000 C 
ATOM     17  O   UNL     1      -4.264  16.419  25.049  0.00  0.00    +0.000 OA
ATOM     18  C   UNL     1      -4.318  17.079  23.786  0.00  0.00    +0.000 C 
ATOM     19  C   UNL     1      -4.573  16.080  22.665  0.00  0.00    +0.000 C 
ENDBRANCH  11  14
ENDBRANCH   2   5
BRANCH   1  23
ATOM     20  C   UNL     1       2.804   6.605  18.447  0.00  0.00    +0.000 C 
ATOM     21  C   UNL     1       2.576   6.867  19.952  0.00  0.00    +0.000 C 
ATOM     22  C   UNL     1       1.413   7.822  20.212  0.00  0.00    +0.000 C 
ATOM     23  C   UNL     1       1.577   9.132  19.439  0.00  0.00    +0.000 C 
ATOM     24  C   UNL     1       1.720   8.855  17.941  0.00  0.00    +0.000 C 
ATOM     25  C   UNL     1       2.898   7.932  17.664  0.00  0.00    +0.000 C 
BRANCH  20  32
ATOM     26  C   UNL     1       6.114   3.830  14.106  0.00  0.00    +0.000 C 
ATOM     27  C   UNL     1       6.629   4.733  15.197  0.00  0.00    +0.000 C 
ATOM     28  O   UNL     1       7.522   5.546  14.954  0.00  0.00    +0.000 OA
ATOM     29  N   UNL     1       6.051   4.613  16.448  0.00  0.00    +0.000 N 
ATOM     30  C   UNL     1       6.388   5.574  17.498  0.00  0.00    +0.000 C 
ATOM     31  C   UNL     1       5.178   6.487  17.789  0.00  0.00    +0.000 C 
ATOM     32  N   UNL     1       3.951   5.723  18.127  0.00  0.00    +0.000 NA
ATOM     33  C   UNL     1       3.668   4.700  17.096  0.00  0.00    +0.000 C 
ATOM     34  C   UNL     1       4.880   3.805  16.770  0.00  0.00    +0.000 C 
ENDBRANCH  20  32
ENDBRANCH   1  23
TORSDOF 4
ENDMDL
MODEL 8
REMARK VINA RESULT:      -8.7      2.613     12.143
REMARK  Name = 
REMARK  6 active torsions:
REMARK  status: ('A' for Active; 'I' for Inactive)
REMARK    1  A    between atoms: C_1  and  C_2
REMARK    2  A    between atoms: N_7  and  C_8
REMARK    3  A    between atoms: C_11  and  N_12
REMARK    4  A    between atoms: C_13  and  C_15
REMARK    5  A    between atoms: C_18  and  C_19
REMARK    6  A    between atoms: N_21  and  C_22
REMARK                            x       y       z     vdW  Elec       q    Type
REMARK                         _______ _______ _______ _____ _____    ______ ____
ROOT
ATOM      1  N   UNL     1       0.732   9.804  19.695  0.00  0.00    +0.000 N 
ATOM      2  C   UNL     1       0.717  11.158  19.439  0.00  0.00    +0.000 C 
ATOM      3  O   UNL     1       1.643  11.736  18.883  0.00  0.00    +0.000 OA
ATOM      4  H   UNL     1      -0.037   9.441  20.245  0.00  0.00    +0.000 HD
ENDROOT
BRANCH   2   5
ATOM      5  C   UNL     1      -0.494  11.830  19.893  0.00  0.00    +0.000 A 
ATOM      6  C   UNL     1      -0.633  12.829  20.867  0.00  0.00    +0.000 A 
ATOM      7  C   UNL     1      -1.980  13.160  20.982  0.00  0.00    +0.000 A 
ATOM      8  C   UNL     1      -2.784  14.022  21.723  0.00  0.00    +0.000 A 
ATOM      9  C   UNL     1      -2.413  15.019  22.754  0.00  0.00    +0.000 C 
ATOM     10  N   UNL     1      -4.085  13.849  21.371  0.00  0.00    +0.000 NA
ATOM     11  N   UNL     1      -4.050  12.868  20.424  0.00  0.00    +0.000 N 
ATOM     12  C   UNL     1      -2.787  12.470  20.176  0.00  0.00    +0.000 A 
ATOM     13  S   UNL     1      -2.034  11.390  19.184  0.00  0.00    +0.000 S 
BRANCH  11  14
ATOM     14  C   UNL     1      -5.237  12.315  19.802  0.00  0.00    +0.000 C 
ATOM     15  C   UNL     1      -5.442  12.839  18.382  0.00  0.00    +0.000 C 
ATOM     16  C   UNL     1      -6.645  12.142  17.765  0.00  0.00    +0.000 C 
ATOM     17  O   UNL     1      -7.802  12.314  18.582  0.00  0.00    +0.000 OA
ATOM     18  C   UNL     1      -7.650  11.765  19.889  0.00  0.00    +0.000 C 
ATOM     19  C   UNL     1      -6.510  12.449  20.633  0.00  0.00    +0.000 C 
ENDBRANCH  11  14
ENDBRANCH   2   5
BRANCH   1  23
ATOM     20  C   UNL     1       3.011   6.407  18.361  0.00  0.00    +0.000 C 
ATOM     21  C   UNL     1       2.806   6.628  19.876  0.00  0.00    +0.000 C 
ATOM     22  C   UNL     1       1.668   7.601  20.178  0.00  0.00    +0.000 C 
ATOM     23  C   UNL     1       1.854   8.929  19.444  0.00  0.00    +0.000 C 
ATOM     24  C   UNL     1       1.974   8.695  17.936  0.00  0.00    +0.000 C 
ATOM     25  C   UNL     1       3.127   7.755  17.617  0.00  0.00    +0.000 C 
BRANCH  20  32
ATOM     26  C   UNL     1       6.304   3.811  13.898  0.00  0.00    +0.000 C 
ATOM     27  C   UNL     1       6.829   4.622  15.054  0.00  0.00    +0.000 C 
ATOM     28  O   UNL     1       7.752   5.419  14.878  0.00  0.00    +0.000 OA
ATOM     29  N   UNL     1       6.226   4.441  16.284  0.00  0.00    +0.000 N 
ATOM     30  C   UNL     1       6.576   5.320  17.401  0.00  0.00    +0.000 C 
ATOM     31  C   UNL     1       5.392   6.252  17.733  0.00  0.00    +0.000 C 
ATOM     32  N   UNL     1       4.134   5.510  18.001  0.00  0.00    +0.000 NA
ATOM     33  C   UNL     1       3.836   4.566  16.900  0.00  0.00    +0.000 C 
ATOM     34  C   UNL     1       5.023   3.654  16.535  0.00  0.00    +0.000 C 
ENDBRANCH  20  32
ENDBRANCH   1  23
TORSDOF 4
ENDMDL
MODEL 9
REMARK VINA RESULT:      -8.7      1.454      1.845
REMARK  Name = 
REMARK  6 active torsions:
REMARK  status: ('A' for Active; 'I' for Inactive)
REMARK    1  A    between atoms: C_1  and  C_2
REMARK    2  A    between atoms: N_7  and  C_8
REMARK    3  A    between atoms: C_11  and  N_12
REMARK    4  A    between atoms: C_13  and  C_15
REMARK    5  A    between atoms: C_18  and  C_19
REMARK    6  A    between atoms: N_21  and  C_22
REMARK                            x       y       z     vdW  Elec       q    Type
REMARK                         _______ _______ _______ _____ _____    ______ ____
ROOT
ATOM      1  N   UNL     1       0.424   9.663  20.970  0.00  0.00    +0.000 N 
ATOM      2  C   UNL     1       0.881   9.361  19.706  0.00  0.00    +0.000 C 
ATOM      3  O   UNL     1       0.699  10.099  18.743  0.00  0.00    +0.000 OA
ATOM      4  H   UNL     1       0.541   8.944  21.674  0.00  0.00    +0.000 HD
ENDROOT
BRANCH   2   5
ATOM      5  C   UNL     1       1.590   8.091  19.622  0.00  0.00    +0.000 A 
ATOM      6  C   UNL     1       1.482   6.966  20.452  0.00  0.00    +0.000 A 
ATOM      7  C   UNL     1       2.367   5.990  20.004  0.00  0.00    +0.000 A 
ATOM      8  C   UNL     1       2.760   4.700  20.348  0.00  0.00    +0.000 A 
ATOM      9  C   UNL     1       2.284   3.819  21.439  0.00  0.00    +0.000 C 
ATOM     10  N   UNL     1       3.726   4.273  19.493  0.00  0.00    +0.000 NA
ATOM     11  N   UNL     1       3.914   5.325  18.644  0.00  0.00    +0.000 N 
ATOM     12  C   UNL     1       3.084   6.345  18.938  0.00  0.00    +0.000 A 
ATOM     13  S   UNL     1       2.763   7.849  18.343  0.00  0.00    +0.000 S 
BRANCH  11  14
ATOM     14  C   UNL     1       4.909   5.335  17.591  0.00  0.00    +0.000 C 
ATOM     15  C   UNL     1       5.087   3.958  16.952  0.00  0.00    +0.000 C 
ATOM     16  C   UNL     1       6.070   4.070  15.798  0.00  0.00    +0.000 C 
ATOM     17  O   UNL     1       7.306   4.630  16.240  0.00  0.00    +0.000 OA
ATOM     18  C   UNL     1       7.165   5.945  16.773  0.00  0.00    +0.000 C 
ATOM     19  C   UNL     1       6.252   5.939  17.992  0.00  0.00    +0.000 C 
ENDBRANCH  11  14
ENDBRANCH   2   5
BRANCH   1  23
ATOM     20  C   UNL     1      -1.003  13.191  22.978  0.00  0.00    +0.000 C 
ATOM     21  C   UNL     1      -1.802  11.875  23.108  0.00  0.00    +0.000 C 
ATOM     22  C   UNL     1      -0.985  10.650  22.703  0.00  0.00    +0.000 C 
ATOM     23  C   UNL     1      -0.396  10.805  21.300  0.00  0.00    +0.000 C 
ATOM     24  C   UNL     1       0.458  12.072  21.215  0.00  0.00    +0.000 C 
ATOM     25  C   UNL     1      -0.353  13.306  21.582  0.00  0.00    +0.000 C 
BRANCH  20  32
ATOM     26  C   UNL     1      -5.961  16.632  21.942  0.00  0.00    +0.000 C 
ATOM     27  C   UNL     1      -5.480  16.117  23.274  0.00  0.00    +0.000 C 
ATOM     28  O   UNL     1      -6.292  15.708  24.105  0.00  0.00    +0.000 OA
ATOM     29  N   UNL     1      -4.116  16.114  23.500  0.00  0.00    +0.000 N 
ATOM     30  C   UNL     1      -3.581  15.471  24.701  0.00  0.00    +0.000 C 
ATOM     31  C   UNL     1      -2.821  14.183  24.318  0.00  0.00    +0.000 C 
ATOM     32  N   UNL     1      -1.757  14.422  23.310  0.00  0.00    +0.000 NA
ATOM     33  C   UNL     1      -2.296  15.146  22.137  0.00  0.00    +0.000 C 
ATOM     34  C   UNL     1      -3.088  16.415  22.509  0.00  0.00    +0.000 C 
ENDBRANCH  20  32
ENDBRANCH   1  23
TORSDOF 4
ENDMDL
