MODEL 1
REMARK VINA RESULT:      -8.6      0.000      0.000
REMARK  Name = 
REMARK  3 active torsions:
REMARK  status: ('A' for Active; 'I' for Inactive)
REMARK    1  A    between atoms: C_1  and  O_2
REMARK    2  A    between atoms: O_2  and  C_3
REMARK    3  A    between atoms: C_6  and  C_7
REMARK                            x       y       z     vdW  Elec       q    Type
REMARK                         _______ _______ _______ _____ _____    ______ ____
ROOT
ATOM      1  C   UNL     1      -5.462  11.976  18.711  0.00  0.00    +0.000 C 
ATOM      2  O   UNL     1      -6.280  11.821  17.796  0.00  0.00    +0.000 OA
ATOM      3  N   UNL     1      -4.065  11.815  18.475  0.00  0.00    +0.000 N 
ATOM      4  C   UNL     1      -3.816  11.253  17.156  0.00  0.00    +0.000 C 
ATOM      5  C   UNL     1      -2.641  10.266  16.973  0.00  0.00    +0.000 C 
ATOM      6  C   UNL     1      -1.217   9.959  17.488  0.00  0.00    +0.000 C 
ATOM      7  C   UNL     1      -0.673  10.594  18.791  0.00  0.00    +0.000 C 
ATOM      8  C   UNL     1      -0.762  10.053  20.222  0.00  0.00    +0.000 C 
ATOM      9  C   UNL     1       0.215   9.395  20.868  0.00  0.00    +0.000 C 
ATOM     10  C   UNL     1       1.223   8.809  20.025  0.00  0.00    +0.000 A 
ATOM     11  C   UNL     1       1.852   7.631  20.435  0.00  0.00    +0.000 A 
ATOM     12  C   UNL     1       2.532   6.861  19.501  0.00  0.00    +0.000 A 
ATOM     13  C   UNL     1       2.588   7.294  18.176  0.00  0.00    +0.000 A 
ATOM     14  C   UNL     1       2.041   8.541  17.792  0.00  0.00    +0.000 A 
ATOM     15  C   UNL     1       1.367   9.324  18.735  0.00  0.00    +0.000 A 
ATOM     16  O   UNL     1       0.784  10.574  18.445  0.00  0.00    +0.000 OA
ATOM     17  C   UNL     1      -1.387  12.013  18.916  0.00  0.00    +0.000 C 
ATOM     18  C   UNL     1      -2.928  11.976  19.416  0.00  0.00    +0.000 C 
ENDROOT
BRANCH   1  22
ATOM     19  C   UNL     1      -7.044  12.419  22.579  0.00  0.00    +0.000 A 
ATOM     20  N   UNL     1      -5.740  12.673  22.389  0.00  0.00    +0.000 NA
ATOM     21  C   UNL     1      -5.312  12.575  21.102  0.00  0.00    +0.000 A 
ATOM     22  C   UNL     1      -6.118  12.270  20.010  0.00  0.00    +0.000 A 
ATOM     23  C   UNL     1      -7.424  12.020  20.340  0.00  0.00    +0.000 A 
ATOM     24  N   UNL     1      -7.916  12.101  21.606  0.00  0.00    +0.000 NA
BRANCH  19  26
ATOM     25  C   UNL     1      -7.764  13.713  24.398  0.00  0.00    +0.000 C 
ATOM     26  O   UNL     1      -7.581  12.417  23.846  0.00  0.00    +0.000 OA
ENDBRANCH  19  26
ENDBRANCH   1  22
TORSDOF 2
ENDMDL
MODEL 2
REMARK VINA RESULT:      -8.4      4.242      9.888
REMARK  Name = 
REMARK  3 active torsions:
REMARK  status: ('A' for Active; 'I' for Inactive)
REMARK    1  A    between atoms: C_1  and  O_2
REMARK    2  A    between atoms: O_2  and  C_3
REMARK    3  A    between atoms: C_6  and  C_7
REMARK                            x       y       z     vdW  Elec       q    Type
REMARK                         _______ _______ _______ _____ _____    ______ ____
ROOT
ATOM      1  C   UNL     1       2.748   6.784  19.449  0.00  0.00    +0.000 C 
ATOM      2  O   UNL     1       2.954   6.114  20.467  0.00  0.00    +0.000 OA
ATOM      3  N   UNL     1       2.012   8.003  19.515  0.00  0.00    +0.000 N 
ATOM      4  C   UNL     1       1.399   8.177  20.823  0.00  0.00    +0.000 C 
ATOM      5  C   UNL     1       0.007   8.844  20.915  0.00  0.00    +0.000 C 
ATOM      6  C   UNL     1      -0.872   9.921  20.243  0.00  0.00    +0.000 C 
ATOM      7  C   UNL     1      -0.528  10.492  18.846  0.00  0.00    +0.000 C 
ATOM      8  C   UNL     1      -0.982   9.986  17.472  0.00  0.00    +0.000 C 
ATOM      9  C   UNL     1      -1.992  10.497  16.748  0.00  0.00    +0.000 C 
ATOM     10  C   UNL     1      -2.949  11.274  17.490  0.00  0.00    +0.000 A 
ATOM     11  C   UNL     1      -4.283  11.289  17.075  0.00  0.00    +0.000 A 
ATOM     12  C   UNL     1      -5.267  11.708  17.961  0.00  0.00    +0.000 A 
ATOM     13  C   UNL     1      -4.897  12.124  19.239  0.00  0.00    +0.000 A 
ATOM     14  C   UNL     1      -3.535  12.209  19.614  0.00  0.00    +0.000 A 
ATOM     15  C   UNL     1      -2.542  11.799  18.719  0.00  0.00    +0.000 A 
ATOM     16  O   UNL     1      -1.162  11.840  19.004  0.00  0.00    +0.000 OA
ATOM     17  C   UNL     1       1.059  10.428  18.727  0.00  0.00    +0.000 C 
ATOM     18  C   UNL     1       1.677   8.959  18.429  0.00  0.00    +0.000 C 
ENDROOT
BRANCH   1  22
ATOM     19  C   UNL     1       4.539   4.638  16.310  0.00  0.00    +0.000 A 
ATOM     20  N   UNL     1       3.660   4.000  17.100  0.00  0.00    +0.000 NA
ATOM     21  C   UNL     1       3.070   4.773  18.051  0.00  0.00    +0.000 A 
ATOM     22  C   UNL     1       3.290   6.136  18.228  0.00  0.00    +0.000 A 
ATOM     23  C   UNL     1       4.218   6.661  17.367  0.00  0.00    +0.000 A 
ATOM     24  N   UNL     1       4.843   5.945  16.395  0.00  0.00    +0.000 NA
BRANCH  19  26
ATOM     25  C   UNL     1       6.595   4.386  15.212  0.00  0.00    +0.000 C 
ATOM     26  O   UNL     1       5.252   3.948  15.357  0.00  0.00    +0.000 OA
ENDBRANCH  19  26
ENDBRANCH   1  22
TORSDOF 2
ENDMDL
MODEL 3
REMARK VINA RESULT:      -8.4      0.683      1.052
REMARK  Name = 
REMARK  3 active torsions:
REMARK  status: ('A' for Active; 'I' for Inactive)
REMARK    1  A    between atoms: C_1  and  O_2
REMARK    2  A    between atoms: O_2  and  C_3
REMARK    3  A    between atoms: C_6  and  C_7
REMARK                            x       y       z     vdW  Elec       q    Type
REMARK                         _______ _______ _______ _____ _____    ______ ____
ROOT
ATOM      1  C   UNL     1      -4.861  12.098  19.084  0.00  0.00    +0.000 C 
ATOM      2  O   UNL     1      -5.682  12.094  18.160  0.00  0.00    +0.000 OA
ATOM      3  N   UNL     1      -3.478  11.860  18.832  0.00  0.00    +0.000 N 
ATOM      4  C   UNL     1      -3.262  11.415  17.463  0.00  0.00    +0.000 C 
ATOM      5  C   UNL     1      -2.161  10.368  17.182  0.00  0.00    +0.000 C 
ATOM      6  C   UNL     1      -0.766   9.909  17.662  0.00  0.00    +0.000 C 
ATOM      7  C   UNL     1      -0.185  10.372  19.021  0.00  0.00    +0.000 C 
ATOM      8  C   UNL     1      -0.321   9.700  20.392  0.00  0.00    +0.000 C 
ATOM      9  C   UNL     1       0.602   8.912  20.968  0.00  0.00    +0.000 C 
ATOM     10  C   UNL     1       1.569   8.340  20.070  0.00  0.00    +0.000 A 
ATOM     11  C   UNL     1       2.110   7.085  20.361  0.00  0.00    +0.000 A 
ATOM     12  C   UNL     1       2.738   6.364  19.354  0.00  0.00    +0.000 A 
ATOM     13  C   UNL     1       2.833   6.921  18.079  0.00  0.00    +0.000 A 
ATOM     14  C   UNL     1       2.379   8.236  17.821  0.00  0.00    +0.000 A 
ATOM     15  C   UNL     1       1.758   8.968  18.837  0.00  0.00    +0.000 A 
ATOM     16  O   UNL     1       1.269  10.280  18.673  0.00  0.00    +0.000 OA
ATOM     17  C   UNL     1      -0.796  11.819  19.287  0.00  0.00    +0.000 C 
ATOM     18  C   UNL     1      -2.338  11.845  19.783  0.00  0.00    +0.000 C 
ENDROOT
BRANCH   1  22
ATOM     19  C   UNL     1      -7.110  12.775  22.569  0.00  0.00    +0.000 A 
ATOM     20  N   UNL     1      -7.389  11.690  21.830  0.00  0.00    +0.000 NA
ATOM     21  C   UNL     1      -6.578  11.498  20.755  0.00  0.00    +0.000 A 
ATOM     22  C   UNL     1      -5.502  12.309  20.407  0.00  0.00    +0.000 A 
ATOM     23  C   UNL     1      -5.334  13.388  21.233  0.00  0.00    +0.000 A 
ATOM     24  N   UNL     1      -6.108  13.638  22.324  0.00  0.00    +0.000 NA
BRANCH  19  26
ATOM     25  C   UNL     1      -7.784  14.473  24.040  0.00  0.00    +0.000 C 
ATOM     26  O   UNL     1      -7.904  13.116  23.641  0.00  0.00    +0.000 OA
ENDBRANCH  19  26
ENDBRANCH   1  22
TORSDOF 2
ENDMDL
MODEL 4
REMARK VINA RESULT:      -7.7      0.973      1.217
REMARK  Name = 
REMARK  3 active torsions:
REMARK  status: ('A' for Active; 'I' for Inactive)
REMARK    1  A    between atoms: C_1  and  O_2
REMARK    2  A    between atoms: O_2  and  C_3
REMARK    3  A    between atoms: C_6  and  C_7
REMARK                            x       y       z     vdW  Elec       q    Type
REMARK                         _______ _______ _______ _____ _____    ______ ____
ROOT
ATOM      1  C   UNL     1      -5.413  12.348  18.912  0.00  0.00    +0.000 C 
ATOM      2  O   UNL     1      -6.293  12.164  18.064  0.00  0.00    +0.000 OA
ATOM      3  N   UNL     1      -4.042  12.104  18.607  0.00  0.00    +0.000 N 
ATOM      4  C   UNL     1      -3.901  11.433  17.324  0.00  0.00    +0.000 C 
ATOM      5  C   UNL     1      -2.783  10.380  17.148  0.00  0.00    +0.000 C 
ATOM      6  C   UNL     1      -1.344  10.046  17.600  0.00  0.00    +0.000 C 
ATOM      7  C   UNL     1      -0.692  10.751  18.815  0.00  0.00    +0.000 C 
ATOM      8  C   UNL     1      -0.713  10.325  20.287  0.00  0.00    +0.000 C 
ATOM      9  C   UNL     1       0.274   9.672  20.923  0.00  0.00    +0.000 C 
ATOM     10  C   UNL     1       1.200   8.976  20.070  0.00  0.00    +0.000 A 
ATOM     11  C   UNL     1       1.804   7.804  20.533  0.00  0.00    +0.000 A 
ATOM     12  C   UNL     1       2.390   6.935  19.622  0.00  0.00    +0.000 A 
ATOM     13  C   UNL     1       2.380   7.263  18.267  0.00  0.00    +0.000 A 
ATOM     14  C   UNL     1       1.863   8.503  17.819  0.00  0.00    +0.000 A 
ATOM     15  C   UNL     1       1.284   9.385  18.737  0.00  0.00    +0.000 A 
ATOM     16  O   UNL     1       0.738  10.636  18.386  0.00  0.00    +0.000 OA
ATOM     17  C   UNL     1      -1.336  12.208  18.871  0.00  0.00    +0.000 C 
ATOM     18  C   UNL     1      -2.842  12.282  19.463  0.00  0.00    +0.000 C 
ENDROOT
BRANCH   1  22
ATOM     19  C   UNL     1      -6.828  14.012  22.503  0.00  0.00    +0.000 A 
ATOM     20  N   UNL     1      -7.388  14.410  21.351  0.00  0.00    +0.000 NA
ATOM     21  C   UNL     1      -6.928  13.781  20.236  0.00  0.00    +0.000 A 
ATOM     22  C   UNL     1      -5.973  12.770  20.222  0.00  0.00    +0.000 A 
ATOM     23  C   UNL     1      -5.472  12.467  21.460  0.00  0.00    +0.000 A 
ATOM     24  N   UNL     1      -5.888  13.056  22.613  0.00  0.00    +0.000 NA
BRANCH  19  26
ATOM     25  C   UNL     1      -6.457  15.832  23.934  0.00  0.00    +0.000 C 
ATOM     26  O   UNL     1      -7.159  14.622  23.692  0.00  0.00    +0.000 OA
ENDBRANCH  19  26
ENDBRANCH   1  22
TORSDOF 2
ENDMDL
MODEL 5
REMARK VINA RESULT:      -7.7      1.142      1.216
REMARK  Name = 
REMARK  3 active torsions:
REMARK  status: ('A' for Active; 'I' for Inactive)
REMARK    1  A    between atoms: C_1  and  O_2
REMARK    2  A    between atoms: O_2  and  C_3
REMARK    3  A    between atoms: C_6  and  C_7
REMARK                            x       y       z     vdW  Elec       q    Type
REMARK                         _______ _______ _______ _____ _____    ______ ____
ROOT
ATOM      1  C   UNL     1      -4.409  12.213  18.881  0.00  0.00    +0.000 C 
ATOM      2  O   UNL     1      -5.231  12.221  17.958  0.00  0.00    +0.000 OA
ATOM      3  N   UNL     1      -3.050  11.853  18.644  0.00  0.00    +0.000 N 
ATOM      4  C   UNL     1      -2.874  11.315  17.304  0.00  0.00    +0.000 C 
ATOM      5  C   UNL     1      -1.860  10.170  17.084  0.00  0.00    +0.000 C 
ATOM      6  C   UNL     1      -0.504   9.631  17.591  0.00  0.00    +0.000 C 
ATOM      7  C   UNL     1       0.116  10.123  18.921  0.00  0.00    +0.000 C 
ATOM      8  C   UNL     1      -0.067   9.543  20.329  0.00  0.00    +0.000 C 
ATOM      9  C   UNL     1       0.793   8.720  20.950  0.00  0.00    +0.000 C 
ATOM     10  C   UNL     1       1.710   8.023  20.087  0.00  0.00    +0.000 A 
ATOM     11  C   UNL     1       2.151   6.748  20.450  0.00  0.00    +0.000 A 
ATOM     12  C   UNL     1       2.716   5.924  19.486  0.00  0.00    +0.000 A 
ATOM     13  C   UNL     1       2.850   6.397  18.181  0.00  0.00    +0.000 A 
ATOM     14  C   UNL     1       2.501   7.727  17.848  0.00  0.00    +0.000 A 
ATOM     15  C   UNL     1       1.942   8.563  18.820  0.00  0.00    +0.000 A 
ATOM     16  O   UNL     1       1.557   9.898  18.581  0.00  0.00    +0.000 OA
ATOM     17  C   UNL     1      -0.377  11.627  19.104  0.00  0.00    +0.000 C 
ATOM     18  C   UNL     1      -1.911  11.802  19.595  0.00  0.00    +0.000 C 
ENDROOT
BRANCH   1  22
ATOM     19  C   UNL     1      -5.750  12.937  22.798  0.00  0.00    +0.000 A 
ATOM     20  N   UNL     1      -4.636  13.557  22.379  0.00  0.00    +0.000 NA
ATOM     21  C   UNL     1      -4.299  13.329  21.081  0.00  0.00    +0.000 A 
ATOM     22  C   UNL     1      -5.027  12.549  20.189  0.00  0.00    +0.000 A 
ATOM     23  C   UNL     1      -6.133  11.963  20.744  0.00  0.00    +0.000 A 
ATOM     24  N   UNL     1      -6.526  12.149  22.033  0.00  0.00    +0.000 NA
BRANCH  19  26
ATOM     25  C   UNL     1      -5.248  12.457  25.038  0.00  0.00    +0.000 C 
ATOM     26  O   UNL     1      -6.155  13.034  24.110  0.00  0.00    +0.000 OA
ENDBRANCH  19  26
ENDBRANCH   1  22
TORSDOF 2
ENDMDL
MODEL 6
REMARK VINA RESULT:      -7.7      3.201      5.178
REMARK  Name = 
REMARK  3 active torsions:
REMARK  status: ('A' for Active; 'I' for Inactive)
REMARK    1  A    between atoms: C_1  and  O_2
REMARK    2  A    between atoms: O_2  and  C_3
REMARK    3  A    between atoms: C_6  and  C_7
REMARK                            x       y       z     vdW  Elec       q    Type
REMARK                         _______ _______ _______ _____ _____    ______ ____
ROOT
ATOM      1  C   UNL     1      -0.008  11.011  19.852  0.00  0.00    +0.000 C 
ATOM      2  O   UNL     1      -0.110  11.852  18.951  0.00  0.00    +0.000 OA
ATOM      3  N   UNL     1       0.936   9.948  19.753  0.00  0.00    +0.000 N 
ATOM      4  C   UNL     1       1.531   9.894  18.426  0.00  0.00    +0.000 C 
ATOM      5  C   UNL     1       1.867   8.516  17.811  0.00  0.00    +0.000 C 
ATOM      6  C   UNL     1       2.336   7.095  18.193  0.00  0.00    +0.000 C 
ATOM      7  C   UNL     1       2.300   6.597  19.659  0.00  0.00    +0.000 C 
ATOM      8  C   UNL     1       1.164   5.872  20.390  0.00  0.00    +0.000 C 
ATOM      9  C   UNL     1       1.087   4.546  20.589  0.00  0.00    +0.000 C 
ATOM     10  C   UNL     1       1.893   3.744  19.708  0.00  0.00    +0.000 A 
ATOM     11  C   UNL     1       1.449   2.468  19.351  0.00  0.00    +0.000 A 
ATOM     12  C   UNL     1       1.998   1.842  18.240  0.00  0.00    +0.000 A 
ATOM     13  C   UNL     1       2.996   2.494  17.517  0.00  0.00    +0.000 A 
ATOM     14  C   UNL     1       3.515   3.738  17.948  0.00  0.00    +0.000 A 
ATOM     15  C   UNL     1       2.972   4.365  19.074  0.00  0.00    +0.000 A 
ATOM     16  O   UNL     1       3.418   5.604  19.575  0.00  0.00    +0.000 OA
ATOM     17  C   UNL     1       2.520   7.889  20.565  0.00  0.00    +0.000 C 
ATOM     18  C   UNL     1       1.232   8.860  20.719  0.00  0.00    +0.000 C 
ENDROOT
BRANCH   1  22
ATOM     19  C   UNL     1      -2.673  12.121  22.906  0.00  0.00    +0.000 A 
ATOM     20  N   UNL     1      -2.904  12.570  21.663  0.00  0.00    +0.000 NA
ATOM     21  C   UNL     1      -2.041  12.117  20.714  0.00  0.00    +0.000 A 
ATOM     22  C   UNL     1      -0.995  11.228  20.940  0.00  0.00    +0.000 A 
ATOM     23  C   UNL     1      -0.860  10.857  22.251  0.00  0.00    +0.000 A 
ATOM     24  N   UNL     1      -1.687  11.272  23.248  0.00  0.00    +0.000 NA
BRANCH  19  26
ATOM     25  C   UNL     1      -3.501  13.977  24.076  0.00  0.00    +0.000 C 
ATOM     26  O   UNL     1      -3.435  12.563  23.964  0.00  0.00    +0.000 OA
ENDBRANCH  19  26
ENDBRANCH   1  22
TORSDOF 2
ENDMDL
MODEL 7
REMARK VINA RESULT:      -7.6      4.196      9.693
REMARK  Name = 
REMARK  3 active torsions:
REMARK  status: ('A' for Active; 'I' for Inactive)
REMARK    1  A    between atoms: C_1  and  O_2
REMARK    2  A    between atoms: O_2  and  C_3
REMARK    3  A    between atoms: C_6  and  C_7
REMARK                            x       y       z     vdW  Elec       q    Type
REMARK                         _______ _______ _______ _____ _____    ______ ____
ROOT
ATOM      1  C   UNL     1       2.453   6.338  20.256  0.00  0.00    +0.000 C 
ATOM      2  O   UNL     1       2.524   5.748  21.340  0.00  0.00    +0.000 OA
ATOM      3  N   UNL     1       1.826   7.616  20.162  0.00  0.00    +0.000 N 
ATOM      4  C   UNL     1       1.139   7.957  21.398  0.00  0.00    +0.000 C 
ATOM      5  C   UNL     1      -0.190   8.742  21.323  0.00  0.00    +0.000 C 
ATOM      6  C   UNL     1      -0.920   9.824  20.496  0.00  0.00    +0.000 C 
ATOM      7  C   UNL     1      -0.426  10.237  19.087  0.00  0.00    +0.000 C 
ATOM      8  C   UNL     1      -0.824   9.648  17.729  0.00  0.00    +0.000 C 
ATOM      9  C   UNL     1      -1.729  10.174  16.887  0.00  0.00    +0.000 C 
ATOM     10  C   UNL     1      -2.663  11.091  17.484  0.00  0.00    +0.000 A 
ATOM     11  C   UNL     1      -3.957  11.179  16.964  0.00  0.00    +0.000 A 
ATOM     12  C   UNL     1      -4.961  11.757  17.731  0.00  0.00    +0.000 A 
ATOM     13  C   UNL     1      -4.648  12.255  18.995  0.00  0.00    +0.000 A 
ATOM     14  C   UNL     1      -3.314  12.259  19.469  0.00  0.00    +0.000 A 
ATOM     15  C   UNL     1      -2.300  11.689  18.692  0.00  0.00    +0.000 A 
ATOM     16  O   UNL     1      -0.946  11.641  19.082  0.00  0.00    +0.000 OA
ATOM     17  C   UNL     1       1.154  10.030  19.101  0.00  0.00    +0.000 C 
ATOM     18  C   UNL     1       1.657   8.494  18.977  0.00  0.00    +0.000 C 
ENDROOT
BRANCH   1  22
ATOM     19  C   UNL     1       4.180   4.527  16.880  0.00  0.00    +0.000 A 
ATOM     20  N   UNL     1       4.975   5.221  17.709  0.00  0.00    +0.000 NA
ATOM     21  C   UNL     1       4.362   5.722  18.815  0.00  0.00    +0.000 A 
ATOM     22  C   UNL     1       3.021   5.540  19.140  0.00  0.00    +0.000 A 
ATOM     23  C   UNL     1       2.319   4.826  18.206  0.00  0.00    +0.000 A 
ATOM     24  N   UNL     1       2.870   4.297  17.081  0.00  0.00    +0.000 NA
BRANCH  19  26
ATOM     25  C   UNL     1       6.082   3.901  15.659  0.00  0.00    +0.000 C 
ATOM     26  O   UNL     1       4.669   4.030  15.693  0.00  0.00    +0.000 OA
ENDBRANCH  19  26
ENDBRANCH   1  22
TORSDOF 2
ENDMDL
MODEL 8
REMARK VINA RESULT:      -7.4      5.522      7.267
REMARK  Name = 
REMARK  3 active torsions:
REMARK  status: ('A' for Active; 'I' for Inactive)
REMARK    1  A    between atoms: C_1  and  O_2
REMARK    2  A    between atoms: O_2  and  C_3
REMARK    3  A    between atoms: C_6  and  C_7
REMARK                            x       y       z     vdW  Elec       q    Type
REMARK                         _______ _______ _______ _____ _____    ______ ____
ROOT
ATOM      1  C   UNL     1       1.096  12.136  20.364  0.00  0.00    +0.000 C 
ATOM      2  O   UNL     1       0.722  12.409  21.510  0.00  0.00    +0.000 OA
ATOM      3  N   UNL     1       1.060  10.794  19.885  0.00  0.00    +0.000 N 
ATOM      4  C   UNL     1       0.764   9.860  20.960  0.00  0.00    +0.000 C 
ATOM      5  C   UNL     1       1.442   8.471  20.954  0.00  0.00    +0.000 C 
ATOM      6  C   UNL     1       1.953   7.371  19.997  0.00  0.00    +0.000 C 
ATOM      7  C   UNL     1       2.160   7.642  18.487  0.00  0.00    +0.000 C 
ATOM      8  C   UNL     1       3.423   8.141  17.775  0.00  0.00    +0.000 C 
ATOM      9  C   UNL     1       4.308   7.367  17.125  0.00  0.00    +0.000 C 
ATOM     10  C   UNL     1       4.284   5.974  17.482  0.00  0.00    +0.000 A 
ATOM     11  C   UNL     1       5.470   5.237  17.427  0.00  0.00    +0.000 A 
ATOM     12  C   UNL     1       5.553   4.029  18.106  0.00  0.00    +0.000 A 
ATOM     13  C   UNL     1       4.441   3.568  18.811  0.00  0.00    +0.000 A 
ATOM     14  C   UNL     1       3.211   4.267  18.771  0.00  0.00    +0.000 A 
ATOM     15  C   UNL     1       3.122   5.478  18.077  0.00  0.00    +0.000 A 
ATOM     16  O   UNL     1       1.945   6.247  17.988  0.00  0.00    +0.000 OA
ATOM     17  C   UNL     1       1.084   8.748  18.091  0.00  0.00    +0.000 C 
ATOM     18  C   UNL     1       1.437  10.261  18.551  0.00  0.00    +0.000 C 
ENDROOT
BRANCH   1  22
ATOM     19  C   UNL     1       2.647  15.707  18.780  0.00  0.00    +0.000 A 
ATOM     20  N   UNL     1       3.476  14.895  19.455  0.00  0.00    +0.000 NA
ATOM     21  C   UNL     1       2.923  13.727  19.880  0.00  0.00    +0.000 A 
ATOM     22  C   UNL     1       1.612  13.327  19.641  0.00  0.00    +0.000 A 
ATOM     23  C   UNL     1       0.869  14.251  18.955  0.00  0.00    +0.000 A 
ATOM     24  N   UNL     1       1.360  15.435  18.502  0.00  0.00    +0.000 NA
BRANCH  19  26
ATOM     25  C   UNL     1       2.676  17.274  17.036  0.00  0.00    +0.000 C 
ATOM     26  O   UNL     1       3.071  16.948  18.360  0.00  0.00    +0.000 OA
ENDBRANCH  19  26
ENDBRANCH   1  22
TORSDOF 2
ENDMDL
MODEL 9
REMARK VINA RESULT:      -7.3      2.625      3.069
REMARK  Name = 
REMARK  3 active torsions:
REMARK  status: ('A' for Active; 'I' for Inactive)
REMARK    1  A    between atoms: C_1  and  O_2
REMARK    2  A    between atoms: O_2  and  C_3
REMARK    3  A    between atoms: C_6  and  C_7
REMARK                            x       y       z     vdW  Elec       q    Type
REMARK                         _______ _______ _______ _____ _____    ______ ____
ROOT
ATOM      1  C   UNL     1      -3.098  12.824  20.292  0.00  0.00    +0.000 C 
ATOM      2  O   UNL     1      -4.088  13.043  19.585  0.00  0.00    +0.000 OA
ATOM      3  N   UNL     1      -1.944  12.184  19.751  0.00  0.00    +0.000 N 
ATOM      4  C   UNL     1      -2.205  11.668  18.416  0.00  0.00    +0.000 C 
ATOM      5  C   UNL     1      -1.548  10.337  17.986  0.00  0.00    +0.000 C 
ATOM      6  C   UNL     1      -0.264   9.498  18.173  0.00  0.00    +0.000 C 
ATOM      7  C   UNL     1       0.739   9.796  19.315  0.00  0.00    +0.000 C 
ATOM      8  C   UNL     1       0.762   9.221  20.736  0.00  0.00    +0.000 C 
ATOM      9  C   UNL     1       1.539   8.208  21.154  0.00  0.00    +0.000 C 
ATOM     10  C   UNL     1       2.055   7.359  20.114  0.00  0.00    +0.000 A 
ATOM     11  C   UNL     1       2.275   6.006  20.386  0.00  0.00    +0.000 A 
ATOM     12  C   UNL     1       2.407   5.112  19.331  0.00  0.00    +0.000 A 
ATOM     13  C   UNL     1       2.338   5.591  18.023  0.00  0.00    +0.000 A 
ATOM     14  C   UNL     1       2.223   6.976  17.757  0.00  0.00    +0.000 A 
ATOM     15  C   UNL     1       2.102   7.879  18.818  0.00  0.00    +0.000 A 
ATOM     16  O   UNL     1       1.977   9.273  18.652  0.00  0.00    +0.000 OA
ATOM     17  C   UNL     1       0.645  11.364  19.581  0.00  0.00    +0.000 C 
ATOM     18  C   UNL     1      -0.657  11.852  20.413  0.00  0.00    +0.000 C 
ENDROOT
BRANCH   1  22
ATOM     19  C   UNL     1      -3.214  14.186  24.266  0.00  0.00    +0.000 A 
ATOM     20  N   UNL     1      -3.125  15.094  23.282  0.00  0.00    +0.000 NA
ATOM     21  C   UNL     1      -3.161  14.587  22.021  0.00  0.00    +0.000 A 
ATOM     22  C   UNL     1      -3.308  13.240  21.702  0.00  0.00    +0.000 A 
ATOM     23  C   UNL     1      -3.373  12.418  22.795  0.00  0.00    +0.000 A 
ATOM     24  N   UNL     1      -3.344  12.860  24.081  0.00  0.00    +0.000 NA
BRANCH  19  26
ATOM     25  C   UNL     1      -1.969  15.351  25.877  0.00  0.00    +0.000 C 
ATOM     26  O   UNL     1      -3.118  14.569  25.585  0.00  0.00    +0.000 OA
ENDBRANCH  19  26
ENDBRANCH   1  22
TORSDOF 2
ENDMDL
