MODEL 1
REMARK VINA RESULT:      -9.3      0.000      0.000
REMARK  Name = 
REMARK  4 active torsions:
REMARK  status: ('A' for Active; 'I' for Inactive)
REMARK    1  A    between atoms: C_1  and  C_2
REMARK    2  A    between atoms: C_5  and  C_6
REMARK    3  A    between atoms: C_8  and  C_9
REMARK    4  A    between atoms: C_24  and  C_25
REMARK                            x       y       z     vdW  Elec       q    Type
REMARK                         _______ _______ _______ _____ _____    ______ ____
ROOT
ATOM      1  C   UNL     1       2.502   6.639  19.525  0.00  0.00    +0.000 C 
ATOM      2  C   UNL     1       2.734   6.547  18.003  0.00  0.00    +0.000 C 
ATOM      3  C   UNL     1       3.583   5.296  17.678  0.00  0.00    +0.000 C 
ATOM      4  N   UNL     1       3.090   4.156  18.448  0.00  0.00    +0.000 N 
ATOM      5  N   UNL     1       3.429   2.882  18.188  0.00  0.00    +0.000 NA
ATOM      6  C   UNL     1       2.784   2.251  19.172  0.00  0.00    +0.000 A 
ATOM      7  N   UNL     1       2.040   3.047  20.004  0.00  0.00    +0.000 NA
ATOM      8  C   UNL     1       2.246   4.246  19.527  0.00  0.00    +0.000 A 
ATOM      9  N   UNL     1       1.779   5.444  19.952  0.00  0.00    +0.000 N 
ATOM     10  H   UNL     1       1.415   5.469  20.899  0.00  0.00    +0.000 HD
ENDROOT
BRANCH   1  15
ATOM     11  C   UNL     1      -0.244  11.562  21.091  0.00  0.00    +0.000 C 
ATOM     12  C   UNL     1       0.428  10.270  20.710  0.00  0.00    +0.000 A 
ATOM     13  C   UNL     1       0.908  10.104  19.402  0.00  0.00    +0.000 A 
ATOM     14  C   UNL     1       1.565   8.931  19.028  0.00  0.00    +0.000 A 
ATOM     15  C   UNL     1       1.763   7.892  19.949  0.00  0.00    +0.000 A 
ATOM     16  C   UNL     1       1.270   8.056  21.251  0.00  0.00    +0.000 A 
ATOM     17  C   UNL     1       0.600   9.228  21.640  0.00  0.00    +0.000 A 
ATOM     18  C   UNL     1       0.093   9.344  23.052  0.00  0.00    +0.000 C 
ENDBRANCH   1  15
BRANCH   3  19
ATOM     19  C   UNL     1       5.073   5.564  17.878  0.00  0.00    +0.000 A 
ATOM     20  C   UNL     1       5.729   5.250  19.080  0.00  0.00    +0.000 A 
ATOM     21  F   UNL     1       5.091   4.591  20.056  0.00  0.00    +0.000 F 
ATOM     22  C   UNL     1       7.040   5.640  19.342  0.00  0.00    +0.000 A 
ATOM     23  C   UNL     1       7.759   6.333  18.378  0.00  0.00    +0.000 A 
ATOM     24  C   UNL     1       7.165   6.606  17.150  0.00  0.00    +0.000 A 
ATOM     25  C   UNL     1       5.834   6.233  16.902  0.00  0.00    +0.000 A 
ATOM     26 CL   UNL     1       5.181   6.661  15.360  0.00  0.00    +0.000 Cl
ENDBRANCH   3  19
TORSDOF 2
ENDMDL
MODEL 2
REMARK VINA RESULT:      -9.1      0.357      1.364
REMARK  Name = 
REMARK  4 active torsions:
REMARK  status: ('A' for Active; 'I' for Inactive)
REMARK    1  A    between atoms: C_1  and  C_2
REMARK    2  A    between atoms: C_5  and  C_6
REMARK    3  A    between atoms: C_8  and  C_9
REMARK    4  A    between atoms: C_24  and  C_25
REMARK                            x       y       z     vdW  Elec       q    Type
REMARK                         _______ _______ _______ _____ _____    ______ ____
ROOT
ATOM      1  C   UNL     1       2.518   6.512  19.562  0.00  0.00    +0.000 C 
ATOM      2  C   UNL     1       2.742   6.489  18.036  0.00  0.00    +0.000 C 
ATOM      3  C   UNL     1       3.605   5.265  17.652  0.00  0.00    +0.000 C 
ATOM      4  N   UNL     1       3.133   4.086  18.374  0.00  0.00    +0.000 N 
ATOM      5  N   UNL     1       3.486   2.830  18.057  0.00  0.00    +0.000 NA
ATOM      6  C   UNL     1       2.856   2.147  19.016  0.00  0.00    +0.000 A 
ATOM      7  N   UNL     1       2.107   2.897  19.887  0.00  0.00    +0.000 NA
ATOM      8  C   UNL     1       2.294   4.118  19.461  0.00  0.00    +0.000 A 
ATOM      9  N   UNL     1       1.813   5.290  19.940  0.00  0.00    +0.000 N 
ATOM     10  H   UNL     1       1.456   5.268  20.889  0.00  0.00    +0.000 HD
ENDROOT
BRANCH   1  15
ATOM     11  C   UNL     1      -0.495  11.143  21.483  0.00  0.00    +0.000 C 
ATOM     12  C   UNL     1       0.313   9.982  20.972  0.00  0.00    +0.000 A 
ATOM     13  C   UNL     1       0.502   8.861  21.794  0.00  0.00    +0.000 A 
ATOM     14  C   UNL     1       1.219   7.754  21.336  0.00  0.00    +0.000 A 
ATOM     15  C   UNL     1       1.765   7.736  20.044  0.00  0.00    +0.000 A 
ATOM     16  C   UNL     1       1.586   8.863  19.231  0.00  0.00    +0.000 A 
ATOM     17  C   UNL     1       0.873   9.986  19.681  0.00  0.00    +0.000 A 
ATOM     18  C   UNL     1       0.716  11.168  18.761  0.00  0.00    +0.000 C 
ENDBRANCH   1  15
BRANCH   3  19
ATOM     19  C   UNL     1       5.092   5.544  17.854  0.00  0.00    +0.000 A 
ATOM     20  C   UNL     1       5.747   5.241  19.059  0.00  0.00    +0.000 A 
ATOM     21  F   UNL     1       5.112   4.581  20.036  0.00  0.00    +0.000 F 
ATOM     22  C   UNL     1       7.055   5.641  19.323  0.00  0.00    +0.000 A 
ATOM     23  C   UNL     1       7.772   6.335  18.358  0.00  0.00    +0.000 A 
ATOM     24  C   UNL     1       7.179   6.598  17.127  0.00  0.00    +0.000 A 
ATOM     25  C   UNL     1       5.851   6.215  16.877  0.00  0.00    +0.000 A 
ATOM     26 CL   UNL     1       5.200   6.632  15.332  0.00  0.00    +0.000 Cl
ENDBRANCH   3  19
TORSDOF 2
ENDMDL
MODEL 3
REMARK VINA RESULT:      -8.6      1.009      1.055
REMARK  Name = 
REMARK  4 active torsions:
REMARK  status: ('A' for Active; 'I' for Inactive)
REMARK    1  A    between atoms: C_1  and  C_2
REMARK    2  A    between atoms: C_5  and  C_6
REMARK    3  A    between atoms: C_8  and  C_9
REMARK    4  A    between atoms: C_24  and  C_25
REMARK                            x       y       z     vdW  Elec       q    Type
REMARK                         _______ _______ _______ _____ _____    ______ ____
ROOT
ATOM      1  C   UNL     1       2.743   6.521  19.376  0.00  0.00    +0.000 C 
ATOM      2  C   UNL     1       2.682   5.902  17.965  0.00  0.00    +0.000 C 
ATOM      3  C   UNL     1       3.593   4.654  17.901  0.00  0.00    +0.000 C 
ATOM      4  N   UNL     1       3.398   3.843  19.100  0.00  0.00    +0.000 N 
ATOM      5  N   UNL     1       3.827   2.575  19.218  0.00  0.00    +0.000 NA
ATOM      6  C   UNL     1       3.467   2.310  20.476  0.00  0.00    +0.000 A 
ATOM      7  N   UNL     1       2.811   3.319  21.134  0.00  0.00    +0.000 NA
ATOM      8  C   UNL     1       2.777   4.277  20.246  0.00  0.00    +0.000 A 
ATOM      9  N   UNL     1       2.264   5.527  20.334  0.00  0.00    +0.000 N 
ATOM     10  H   UNL     1       2.092   5.872  21.272  0.00  0.00    +0.000 HD
ENDROOT
BRANCH   1  15
ATOM     11  C   UNL     1      -0.173  11.574  19.800  0.00  0.00    +0.000 C 
ATOM     12  C   UNL     1       0.541  10.253  19.714  0.00  0.00    +0.000 A 
ATOM     13  C   UNL     1       1.141   9.873  18.504  0.00  0.00    +0.000 A 
ATOM     14  C   UNL     1       1.840   8.669  18.402  0.00  0.00    +0.000 A 
ATOM     15  C   UNL     1       1.959   7.811  19.506  0.00  0.00    +0.000 A 
ATOM     16  C   UNL     1       1.346   8.187  20.709  0.00  0.00    +0.000 A 
ATOM     17  C   UNL     1       0.635   9.393  20.824  0.00  0.00    +0.000 A 
ATOM     18  C   UNL     1      -0.002   9.741  22.143  0.00  0.00    +0.000 C 
ENDBRANCH   1  15
BRANCH   3  19
ATOM     19  C   UNL     1       5.050   5.037  17.658  0.00  0.00    +0.000 A 
ATOM     20  C   UNL     1       5.879   5.501  18.693  0.00  0.00    +0.000 A 
ATOM     21  F   UNL     1       5.449   5.510  19.961  0.00  0.00    +0.000 F 
ATOM     22  C   UNL     1       7.152   6.014  18.461  0.00  0.00    +0.000 A 
ATOM     23  C   UNL     1       7.661   6.042  17.170  0.00  0.00    +0.000 A 
ATOM     24  C   UNL     1       6.895   5.532  16.126  0.00  0.00    +0.000 A 
ATOM     25  C   UNL     1       5.601   5.040  16.363  0.00  0.00    +0.000 A 
ATOM     26 CL   UNL     1       4.721   4.472  14.988  0.00  0.00    +0.000 Cl
ENDBRANCH   3  19
TORSDOF 2
ENDMDL
MODEL 4
REMARK VINA RESULT:      -8.1      2.450      4.024
REMARK  Name = 
REMARK  4 active torsions:
REMARK  status: ('A' for Active; 'I' for Inactive)
REMARK    1  A    between atoms: C_1  and  C_2
REMARK    2  A    between atoms: C_5  and  C_6
REMARK    3  A    between atoms: C_8  and  C_9
REMARK    4  A    between atoms: C_24  and  C_25
REMARK                            x       y       z     vdW  Elec       q    Type
REMARK                         _______ _______ _______ _____ _____    ______ ____
ROOT
ATOM      1  C   UNL     1       2.628   7.164  18.558  0.00  0.00    +0.000 C 
ATOM      2  C   UNL     1       3.391   6.331  19.608  0.00  0.00    +0.000 C 
ATOM      3  C   UNL     1       4.007   5.081  18.938  0.00  0.00    +0.000 C 
ATOM      4  N   UNL     1       4.620   5.458  17.667  0.00  0.00    +0.000 N 
ATOM      5  N   UNL     1       5.468   4.668  16.987  0.00  0.00    +0.000 NA
ATOM      6  C   UNL     1       5.692   5.419  15.907  0.00  0.00    +0.000 A 
ATOM      7  N   UNL     1       5.066   6.639  15.889  0.00  0.00    +0.000 NA
ATOM      8  C   UNL     1       4.396   6.644  17.010  0.00  0.00    +0.000 A 
ATOM      9  N   UNL     1       3.576   7.588  17.531  0.00  0.00    +0.000 N 
ATOM     10  H   UNL     1       3.231   8.285  16.879  0.00  0.00    +0.000 HD
ENDROOT
BRANCH   1  15
ATOM     11  C   UNL     1      -0.067  11.870  20.753  0.00  0.00    +0.000 C 
ATOM     12  C   UNL     1       0.593  10.632  20.209  0.00  0.00    +0.000 A 
ATOM     13  C   UNL     1       1.005  10.604  18.868  0.00  0.00    +0.000 A 
ATOM     14  C   UNL     1       1.650   9.483  18.344  0.00  0.00    +0.000 A 
ATOM     15  C   UNL     1       1.904   8.359  19.144  0.00  0.00    +0.000 A 
ATOM     16  C   UNL     1       1.479   8.385  20.480  0.00  0.00    +0.000 A 
ATOM     17  C   UNL     1       0.823   9.504  21.019  0.00  0.00    +0.000 A 
ATOM     18  C   UNL     1       0.389   9.471  22.460  0.00  0.00    +0.000 C 
ENDBRANCH   1  15
BRANCH   3  19
ATOM     19  C   UNL     1       2.983   3.956  18.806  0.00  0.00    +0.000 A 
ATOM     20  C   UNL     1       1.776   4.128  18.108  0.00  0.00    +0.000 A 
ATOM     21  F   UNL     1       1.534   5.256  17.428  0.00  0.00    +0.000 F 
ATOM     22  C   UNL     1       0.761   3.176  18.121  0.00  0.00    +0.000 A 
ATOM     23  C   UNL     1       0.940   1.985  18.812  0.00  0.00    +0.000 A 
ATOM     24  C   UNL     1       2.147   1.751  19.463  0.00  0.00    +0.000 A 
ATOM     25  C   UNL     1       3.157   2.726  19.468  0.00  0.00    +0.000 A 
ATOM     26 CL   UNL     1       4.598   2.349  20.344  0.00  0.00    +0.000 Cl
ENDBRANCH   3  19
TORSDOF 2
ENDMDL
MODEL 5
REMARK VINA RESULT:      -7.8      2.454      4.057
REMARK  Name = 
REMARK  4 active torsions:
REMARK  status: ('A' for Active; 'I' for Inactive)
REMARK    1  A    between atoms: C_1  and  C_2
REMARK    2  A    between atoms: C_5  and  C_6
REMARK    3  A    between atoms: C_8  and  C_9
REMARK    4  A    between atoms: C_24  and  C_25
REMARK                            x       y       z     vdW  Elec       q    Type
REMARK                         _______ _______ _______ _____ _____    ______ ____
ROOT
ATOM      1  C   UNL     1       2.790   7.032  18.487  0.00  0.00    +0.000 C 
ATOM      2  C   UNL     1       3.322   6.329  19.752  0.00  0.00    +0.000 C 
ATOM      3  C   UNL     1       4.164   5.094  19.351  0.00  0.00    +0.000 C 
ATOM      4  N   UNL     1       5.047   5.444  18.240  0.00  0.00    +0.000 N 
ATOM      5  N   UNL     1       6.085   4.686  17.850  0.00  0.00    +0.000 NA
ATOM      6  C   UNL     1       6.520   5.387  16.800  0.00  0.00    +0.000 A 
ATOM      7  N   UNL     1       5.840   6.548  16.535  0.00  0.00    +0.000 NA
ATOM      8  C   UNL     1       4.916   6.565  17.458  0.00  0.00    +0.000 A 
ATOM      9  N   UNL     1       3.933   7.468  17.689  0.00  0.00    +0.000 N 
ATOM     10  H   UNL     1       3.716   8.094  16.921  0.00  0.00    +0.000 HD
ENDROOT
BRANCH   1  15
ATOM     11  C   UNL     1      -0.681  11.618  19.551  0.00  0.00    +0.000 C 
ATOM     12  C   UNL     1       0.182  10.411  19.303  0.00  0.00    +0.000 A 
ATOM     13  C   UNL     1       0.656  10.158  18.007  0.00  0.00    +0.000 A 
ATOM     14  C   UNL     1       1.487   9.066  17.753  0.00  0.00    +0.000 A 
ATOM     15  C   UNL     1       1.868   8.196  18.784  0.00  0.00    +0.000 A 
ATOM     16  C   UNL     1       1.381   8.444  20.075  0.00  0.00    +0.000 A 
ATOM     17  C   UNL     1       0.539   9.535  20.345  0.00  0.00    +0.000 A 
ATOM     18  C   UNL     1       0.049   9.748  21.753  0.00  0.00    +0.000 C 
ENDBRANCH   1  15
BRANCH   3  19
ATOM     19  C   UNL     1       3.280   3.884  19.064  0.00  0.00    +0.000 A 
ATOM     20  C   UNL     1       3.072   3.408  17.759  0.00  0.00    +0.000 A 
ATOM     21  F   UNL     1       3.744   3.931  16.725  0.00  0.00    +0.000 F 
ATOM     22  C   UNL     1       2.140   2.417  17.462  0.00  0.00    +0.000 A 
ATOM     23  C   UNL     1       1.403   1.834  18.484  0.00  0.00    +0.000 A 
ATOM     24  C   UNL     1       1.626   2.234  19.798  0.00  0.00    +0.000 A 
ATOM     25  C   UNL     1       2.548   3.253  20.088  0.00  0.00    +0.000 A 
ATOM     26 CL   UNL     1       2.714   3.701  21.749  0.00  0.00    +0.000 Cl
ENDBRANCH   3  19
TORSDOF 2
ENDMDL
MODEL 6
REMARK VINA RESULT:      -7.8      2.452      4.241
REMARK  Name = 
REMARK  4 active torsions:
REMARK  status: ('A' for Active; 'I' for Inactive)
REMARK    1  A    between atoms: C_1  and  C_2
REMARK    2  A    between atoms: C_5  and  C_6
REMARK    3  A    between atoms: C_8  and  C_9
REMARK    4  A    between atoms: C_24  and  C_25
REMARK                            x       y       z     vdW  Elec       q    Type
REMARK                         _______ _______ _______ _____ _____    ______ ____
ROOT
ATOM      1  C   UNL     1       2.529   7.111  18.844  0.00  0.00    +0.000 C 
ATOM      2  C   UNL     1       3.358   6.226  19.797  0.00  0.00    +0.000 C 
ATOM      3  C   UNL     1       3.957   5.032  19.017  0.00  0.00    +0.000 C 
ATOM      4  N   UNL     1       4.499   5.502  17.745  0.00  0.00    +0.000 N 
ATOM      5  N   UNL     1       5.323   4.773  16.973  0.00  0.00    +0.000 NA
ATOM      6  C   UNL     1       5.481   5.596  15.934  0.00  0.00    +0.000 A 
ATOM      7  N   UNL     1       4.835   6.803  16.027  0.00  0.00    +0.000 NA
ATOM      8  C   UNL     1       4.224   6.723  17.179  0.00  0.00    +0.000 A 
ATOM      9  N   UNL     1       3.418   7.616  17.800  0.00  0.00    +0.000 N 
ATOM     10  H   UNL     1       3.030   8.347  17.213  0.00  0.00    +0.000 HD
ENDROOT
BRANCH   1  15
ATOM     11  C   UNL     1      -0.310  11.416  21.605  0.00  0.00    +0.000 C 
ATOM     12  C   UNL     1       0.450  10.341  20.875  0.00  0.00    +0.000 A 
ATOM     13  C   UNL     1       0.807   9.168  21.557  0.00  0.00    +0.000 A 
ATOM     14  C   UNL     1       1.482   8.139  20.898  0.00  0.00    +0.000 A 
ATOM     15  C   UNL     1       1.818   8.252  19.542  0.00  0.00    +0.000 A 
ATOM     16  C   UNL     1       1.472   9.431  18.867  0.00  0.00    +0.000 A 
ATOM     17  C   UNL     1       0.798  10.477  19.519  0.00  0.00    +0.000 A 
ATOM     18  C   UNL     1       0.454  11.719  18.741  0.00  0.00    +0.000 C 
ENDBRANCH   1  15
BRANCH   3  19
ATOM     19  C   UNL     1       2.945   3.900  18.864  0.00  0.00    +0.000 A 
ATOM     20  C   UNL     1       1.751   4.064  18.143  0.00  0.00    +0.000 A 
ATOM     21  F   UNL     1       1.513   5.191  17.460  0.00  0.00    +0.000 F 
ATOM     22  C   UNL     1       0.743   3.104  18.135  0.00  0.00    +0.000 A 
ATOM     23  C   UNL     1       0.917   1.913  18.827  0.00  0.00    +0.000 A 
ATOM     24  C   UNL     1       2.114   1.687  19.501  0.00  0.00    +0.000 A 
ATOM     25  C   UNL     1       3.116   2.671  19.527  0.00  0.00    +0.000 A 
ATOM     26 CL   UNL     1       4.543   2.303  20.430  0.00  0.00    +0.000 Cl
ENDBRANCH   3  19
TORSDOF 2
ENDMDL
MODEL 7
REMARK VINA RESULT:      -7.6      1.909      2.205
REMARK  Name = 
REMARK  4 active torsions:
REMARK  status: ('A' for Active; 'I' for Inactive)
REMARK    1  A    between atoms: C_1  and  C_2
REMARK    2  A    between atoms: C_5  and  C_6
REMARK    3  A    between atoms: C_8  and  C_9
REMARK    4  A    between atoms: C_24  and  C_25
REMARK                            x       y       z     vdW  Elec       q    Type
REMARK                         _______ _______ _______ _____ _____    ______ ____
ROOT
ATOM      1  C   UNL     1       2.982   6.181  19.007  0.00  0.00    +0.000 C 
ATOM      2  C   UNL     1       2.660   5.444  17.692  0.00  0.00    +0.000 C 
ATOM      3  C   UNL     1       3.533   4.173  17.575  0.00  0.00    +0.000 C 
ATOM      4  N   UNL     1       3.553   3.475  18.858  0.00  0.00    +0.000 N 
ATOM      5  N   UNL     1       3.985   2.211  19.010  0.00  0.00    +0.000 NA
ATOM      6  C   UNL     1       3.858   2.065  20.331  0.00  0.00    +0.000 A 
ATOM      7  N   UNL     1       3.343   3.143  21.003  0.00  0.00    +0.000 NA
ATOM      8  C   UNL     1       3.156   4.021  20.054  0.00  0.00    +0.000 A 
ATOM      9  N   UNL     1       2.678   5.286  20.121  0.00  0.00    +0.000 N 
ATOM     10  H   UNL     1       2.683   5.715  21.040  0.00  0.00    +0.000 HD
ENDROOT
BRANCH   1  15
ATOM     11  C   UNL     1       0.254  11.330  19.522  0.00  0.00    +0.000 C 
ATOM     12  C   UNL     1       0.919   9.985  19.412  0.00  0.00    +0.000 A 
ATOM     13  C   UNL     1       1.496   9.600  18.193  0.00  0.00    +0.000 A 
ATOM     14  C   UNL     1       2.149   8.373  18.069  0.00  0.00    +0.000 A 
ATOM     15  C   UNL     1       2.247   7.497  19.160  0.00  0.00    +0.000 A 
ATOM     16  C   UNL     1       1.657   7.879  20.373  0.00  0.00    +0.000 A 
ATOM     17  C   UNL     1       0.991   9.108  20.510  0.00  0.00    +0.000 A 
ATOM     18  C   UNL     1       0.378   9.461  21.839  0.00  0.00    +0.000 C 
ENDBRANCH   1  15
BRANCH   3  19
ATOM     19  C   UNL     1       4.924   4.497  17.039  0.00  0.00    +0.000 A 
ATOM     20  C   UNL     1       5.257   4.329  15.685  0.00  0.00    +0.000 A 
ATOM     21  F   UNL     1       4.322   3.989  14.788  0.00  0.00    +0.000 F 
ATOM     22  C   UNL     1       6.560   4.456  15.211  0.00  0.00    +0.000 A 
ATOM     23  C   UNL     1       7.581   4.800  16.085  0.00  0.00    +0.000 A 
ATOM     24  C   UNL     1       7.281   5.037  17.424  0.00  0.00    +0.000 A 
ATOM     25  C   UNL     1       5.969   4.882  17.900  0.00  0.00    +0.000 A 
ATOM     26 CL   UNL     1       5.717   5.159  19.587  0.00  0.00    +0.000 Cl
ENDBRANCH   3  19
TORSDOF 2
ENDMDL
MODEL 8
REMARK VINA RESULT:      -7.3      2.660      4.506
REMARK  Name = 
REMARK  4 active torsions:
REMARK  status: ('A' for Active; 'I' for Inactive)
REMARK    1  A    between atoms: C_1  and  C_2
REMARK    2  A    between atoms: C_5  and  C_6
REMARK    3  A    between atoms: C_8  and  C_9
REMARK    4  A    between atoms: C_24  and  C_25
REMARK                            x       y       z     vdW  Elec       q    Type
REMARK                         _______ _______ _______ _____ _____    ______ ____
ROOT
ATOM      1  C   UNL     1       2.160   7.574  18.356  0.00  0.00    +0.000 C 
ATOM      2  C   UNL     1       2.604   7.004  19.719  0.00  0.00    +0.000 C 
ATOM      3  C   UNL     1       3.456   5.731  19.502  0.00  0.00    +0.000 C 
ATOM      4  N   UNL     1       4.411   5.960  18.420  0.00  0.00    +0.000 N 
ATOM      5  N   UNL     1       5.464   5.161  18.177  0.00  0.00    +0.000 NA
ATOM      6  C   UNL     1       5.972   5.748  17.091  0.00  0.00    +0.000 A 
ATOM      7  N   UNL     1       5.322   6.878  16.665  0.00  0.00    +0.000 NA
ATOM      8  C   UNL     1       4.342   6.995  17.519  0.00  0.00    +0.000 A 
ATOM      9  N   UNL     1       3.356   7.921  17.592  0.00  0.00    +0.000 N 
ATOM     10  H   UNL     1       3.195   8.465  16.752  0.00  0.00    +0.000 HD
ENDROOT
BRANCH   1  15
ATOM     11  C   UNL     1      -1.413  12.166  18.958  0.00  0.00    +0.000 C 
ATOM     12  C   UNL     1      -0.495  10.992  18.755  0.00  0.00    +0.000 A 
ATOM     13  C   UNL     1       0.638  10.855  19.571  0.00  0.00    +0.000 A 
ATOM     14  C   UNL     1       1.490   9.759  19.431  0.00  0.00    +0.000 A 
ATOM     15  C   UNL     1       1.234   8.767  18.472  0.00  0.00    +0.000 A 
ATOM     16  C   UNL     1       0.109   8.914  17.650  0.00  0.00    +0.000 A 
ATOM     17  C   UNL     1      -0.754  10.015  17.775  0.00  0.00    +0.000 A 
ATOM     18  C   UNL     1      -1.946  10.117  16.861  0.00  0.00    +0.000 C 
ENDBRANCH   1  15
BRANCH   3  19
ATOM     19  C   UNL     1       2.578   4.501  19.286  0.00  0.00    +0.000 A 
ATOM     20  C   UNL     1       2.194   4.079  18.002  0.00  0.00    +0.000 A 
ATOM     21  F   UNL     1       2.687   4.676  16.909  0.00  0.00    +0.000 F 
ATOM     22  C   UNL     1       1.261   3.067  17.794  0.00  0.00    +0.000 A 
ATOM     23  C   UNL     1       0.703   2.408  18.881  0.00  0.00    +0.000 A 
ATOM     24  C   UNL     1       1.106   2.755  20.167  0.00  0.00    +0.000 A 
ATOM     25  C   UNL     1       2.028   3.794  20.371  0.00  0.00    +0.000 A 
ATOM     26 CL   UNL     1       2.425   4.171  22.011  0.00  0.00    +0.000 Cl
ENDBRANCH   3  19
TORSDOF 2
ENDMDL
MODEL 9
REMARK VINA RESULT:      -7.3      3.584      6.345
REMARK  Name = 
REMARK  4 active torsions:
REMARK  status: ('A' for Active; 'I' for Inactive)
REMARK    1  A    between atoms: C_1  and  C_2
REMARK    2  A    between atoms: C_5  and  C_6
REMARK    3  A    between atoms: C_8  and  C_9
REMARK    4  A    between atoms: C_24  and  C_25
REMARK                            x       y       z     vdW  Elec       q    Type
REMARK                         _______ _______ _______ _____ _____    ______ ____
ROOT
ATOM      1  C   UNL     1       6.986   7.242  17.413  0.00  0.00    +0.000 C 
ATOM      2  C   UNL     1       7.026   6.068  18.414  0.00  0.00    +0.000 C 
ATOM      3  C   UNL     1       6.134   4.913  17.901  0.00  0.00    +0.000 C 
ATOM      4  N   UNL     1       6.368   4.710  16.474  0.00  0.00    +0.000 N 
ATOM      5  N   UNL     1       5.963   3.619  15.802  0.00  0.00    +0.000 NA
ATOM      6  C   UNL     1       6.356   3.932  14.565  0.00  0.00    +0.000 A 
ATOM      7  N   UNL     1       7.009   5.130  14.432  0.00  0.00    +0.000 NA
ATOM      8  C   UNL     1       7.007   5.603  15.650  0.00  0.00    +0.000 A 
ATOM      9  N   UNL     1       7.502   6.769  16.131  0.00  0.00    +0.000 N 
ATOM     10  H   UNL     1       7.688   7.490  15.443  0.00  0.00    +0.000 HD
ENDROOT
BRANCH   1  15
ATOM     11  C   UNL     1       9.921  11.909  19.368  0.00  0.00    +0.000 C 
ATOM     12  C   UNL     1       9.174  10.723  18.820  0.00  0.00    +0.000 A 
ATOM     13  C   UNL     1       9.422   9.448  19.351  0.00  0.00    +0.000 A 
ATOM     14  C   UNL     1       8.720   8.335  18.888  0.00  0.00    +0.000 A 
ATOM     15  C   UNL     1       7.751   8.462  17.882  0.00  0.00    +0.000 A 
ATOM     16  C   UNL     1       7.516   9.735  17.344  0.00  0.00    +0.000 A 
ATOM     17  C   UNL     1       8.219  10.864  17.796  0.00  0.00    +0.000 A 
ATOM     18  C   UNL     1       7.922  12.204  17.178  0.00  0.00    +0.000 C 
ENDBRANCH   1  15
BRANCH   3  19
ATOM     19  C   UNL     1       4.666   5.144  18.248  0.00  0.00    +0.000 A 
ATOM     20  C   UNL     1       3.947   6.241  17.745  0.00  0.00    +0.000 A 
ATOM     21  F   UNL     1       4.497   7.063  16.841  0.00  0.00    +0.000 F 
ATOM     22  C   UNL     1       2.665   6.561  18.181  0.00  0.00    +0.000 A 
ATOM     23  C   UNL     1       2.035   5.758  19.121  0.00  0.00    +0.000 A 
ATOM     24  C   UNL     1       2.689   4.625  19.597  0.00  0.00    +0.000 A 
ATOM     25  C   UNL     1       3.993   4.323  19.172  0.00  0.00    +0.000 A 
ATOM     26 CL   UNL     1       4.728   2.917  19.859  0.00  0.00    +0.000 Cl
ENDBRANCH   3  19
TORSDOF 2
ENDMDL
