MODEL 1
REMARK VINA RESULT:      -7.6      0.000      0.000
REMARK  Name = 
REMARK  6 active torsions:
REMARK  status: ('A' for Active; 'I' for Inactive)
REMARK    1  A    between atoms: C_1  and  N_2
REMARK    2  A    between atoms: N_2  and  C_3
REMARK    3  A    between atoms: C_3  and  C_4
REMARK    4  A    between atoms: C_6  and  C_7
REMARK    5  A    between atoms: N_13  and  S_14
REMARK    6  A    between atoms: S_14  and  C_17
REMARK                            x       y       z     vdW  Elec       q    Type
REMARK                         _______ _______ _______ _____ _____    ______ ____
ROOT
ATOM      1  C   UNL     1       5.853   4.883  16.697  0.00  0.00    +0.000 A 
ATOM      2  C   UNL     1       5.314   6.111  17.191  0.00  0.00    +0.000 A 
ATOM      3  C   UNL     1       4.008   5.901  17.634  0.00  0.00    +0.000 A 
ATOM      4  N   UNL     1       3.732   4.568  17.357  0.00  0.00    +0.000 N 
ATOM      5  C   UNL     1       4.829   3.947  16.828  0.00  0.00    +0.000 A 
ENDROOT
BRANCH   3   6
ATOM      6  C   UNL     1       3.101   6.888  18.222  0.00  0.00    +0.000 A 
ATOM      7  C   UNL     1       2.588   7.941  17.461  0.00  0.00    +0.000 A 
ATOM      8  C   UNL     1       1.754   8.892  18.052  0.00  0.00    +0.000 A 
ATOM      9  C   UNL     1       1.388   8.787  19.394  0.00  0.00    +0.000 A 
ATOM     10  C   UNL     1       1.859   7.736  20.153  0.00  0.00    +0.000 A 
ATOM     11  C   UNL     1       2.740   6.843  19.571  0.00  0.00    +0.000 A 
ENDBRANCH   3   6
BRANCH   4  12
ATOM     12  S   UNL     1       2.269   3.720  17.677  0.00  0.00    +0.000 S 
ATOM     13  O   UNL     1       1.158   4.596  17.377  0.00  0.00    +0.000 OA
ATOM     14  O   UNL     1       2.404   2.417  17.044  0.00  0.00    +0.000 OA
BRANCH  12  15
ATOM     15  C   UNL     1       2.155   3.333  19.378  0.00  0.00    +0.000 A 
ATOM     16  C   UNL     1       3.281   2.927  20.169  0.00  0.00    +0.000 A 
ATOM     17  C   UNL     1       2.913   2.574  21.450  0.00  0.00    +0.000 A 
ATOM     18  S   UNL     1       1.232   2.763  21.710  0.00  0.00    +0.000 S 
ATOM     19  C   UNL     1       0.980   3.300  20.100  0.00  0.00    +0.000 A 
ENDBRANCH  12  15
ENDBRANCH   4  12
BRANCH   1  20
ATOM     20  C   UNL     1       7.215   4.654  16.129  0.00  0.00    +0.000 C 
BRANCH  20  22
ATOM     21  C   UNL     1       6.681   4.520  13.793  0.00  0.00    +0.000 C 
ATOM     22  N   UNL     1       7.293   5.332  14.836  0.00  0.00    +0.000 NA
ATOM     23  H   UNL     1       6.798   6.220  14.900  0.00  0.00    +0.000 HD
ENDBRANCH  20  22
ENDBRANCH   1  20
TORSDOF 5
ENDMDL
MODEL 2
REMARK VINA RESULT:      -7.6      0.107      1.025
REMARK  Name = 
REMARK  6 active torsions:
REMARK  status: ('A' for Active; 'I' for Inactive)
REMARK    1  A    between atoms: C_1  and  N_2
REMARK    2  A    between atoms: N_2  and  C_3
REMARK    3  A    between atoms: C_3  and  C_4
REMARK    4  A    between atoms: C_6  and  C_7
REMARK    5  A    between atoms: N_13  and  S_14
REMARK    6  A    between atoms: S_14  and  C_17
REMARK                            x       y       z     vdW  Elec       q    Type
REMARK                         _______ _______ _______ _____ _____    ______ ____
ROOT
ATOM      1  C   UNL     1       5.814   4.856  16.588  0.00  0.00    +0.000 A 
ATOM      2  C   UNL     1       5.301   6.082  17.115  0.00  0.00    +0.000 A 
ATOM      3  C   UNL     1       4.005   5.879  17.590  0.00  0.00    +0.000 A 
ATOM      4  N   UNL     1       3.708   4.553  17.300  0.00  0.00    +0.000 N 
ATOM      5  C   UNL     1       4.784   3.928  16.733  0.00  0.00    +0.000 A 
ENDROOT
BRANCH   3   6
ATOM      6  C   UNL     1       3.125   6.866  18.216  0.00  0.00    +0.000 A 
ATOM      7  C   UNL     1       2.729   6.737  19.549  0.00  0.00    +0.000 A 
ATOM      8  C   UNL     1       1.858   7.670  20.116  0.00  0.00    +0.000 A 
ATOM      9  C   UNL     1       1.403   8.763  19.378  0.00  0.00    +0.000 A 
ATOM     10  C   UNL     1       1.809   8.925  18.069  0.00  0.00    +0.000 A 
ATOM     11  C   UNL     1       2.615   7.953  17.503  0.00  0.00    +0.000 A 
ENDBRANCH   3   6
BRANCH   4  12
ATOM     12  S   UNL     1       2.245   3.714  17.647  0.00  0.00    +0.000 S 
ATOM     13  O   UNL     1       1.135   4.598  17.365  0.00  0.00    +0.000 OA
ATOM     14  O   UNL     1       2.359   2.410  17.013  0.00  0.00    +0.000 OA
BRANCH  12  15
ATOM     15  C   UNL     1       2.158   3.330  19.351  0.00  0.00    +0.000 A 
ATOM     16  C   UNL     1       3.299   2.940  20.127  0.00  0.00    +0.000 A 
ATOM     17  C   UNL     1       2.953   2.586  21.414  0.00  0.00    +0.000 A 
ATOM     18  S   UNL     1       1.273   2.755  21.696  0.00  0.00    +0.000 S 
ATOM     19  C   UNL     1       0.993   3.285  20.088  0.00  0.00    +0.000 A 
ENDBRANCH  12  15
ENDBRANCH   4  12
BRANCH   1  20
ATOM     20  C   UNL     1       7.158   4.621  15.981  0.00  0.00    +0.000 C 
BRANCH  20  22
ATOM     21  C   UNL     1       6.958   4.628  13.589  0.00  0.00    +0.000 C 
ATOM     22  N   UNL     1       7.261   5.429  14.768  0.00  0.00    +0.000 NA
ATOM     23  H   UNL     1       6.595   6.198  14.827  0.00  0.00    +0.000 HD
ENDBRANCH  20  22
ENDBRANCH   1  20
TORSDOF 5
ENDMDL
MODEL 3
REMARK VINA RESULT:      -7.5      0.849      1.405
REMARK  Name = 
REMARK  6 active torsions:
REMARK  status: ('A' for Active; 'I' for Inactive)
REMARK    1  A    between atoms: C_1  and  N_2
REMARK    2  A    between atoms: N_2  and  C_3
REMARK    3  A    between atoms: C_3  and  C_4
REMARK    4  A    between atoms: C_6  and  C_7
REMARK    5  A    between atoms: N_13  and  S_14
REMARK    6  A    between atoms: S_14  and  C_17
REMARK                            x       y       z     vdW  Elec       q    Type
REMARK                         _______ _______ _______ _____ _____    ______ ____
ROOT
ATOM      1  C   UNL     1       5.714   4.982  16.488  0.00  0.00    +0.000 A 
ATOM      2  C   UNL     1       5.194   6.173  17.084  0.00  0.00    +0.000 A 
ATOM      3  C   UNL     1       3.906   5.932  17.561  0.00  0.00    +0.000 A 
ATOM      4  N   UNL     1       3.619   4.620  17.205  0.00  0.00    +0.000 N 
ATOM      5  C   UNL     1       4.694   4.037  16.594  0.00  0.00    +0.000 A 
ENDROOT
BRANCH   3   6
ATOM      6  C   UNL     1       3.023   6.875  18.248  0.00  0.00    +0.000 A 
ATOM      7  C   UNL     1       2.546   8.018  17.603  0.00  0.00    +0.000 A 
ATOM      8  C   UNL     1       1.735   8.924  18.289  0.00  0.00    +0.000 A 
ATOM      9  C   UNL     1       1.355   8.685  19.611  0.00  0.00    +0.000 A 
ATOM     10  C   UNL     1       1.790   7.545  20.254  0.00  0.00    +0.000 A 
ATOM     11  C   UNL     1       2.650   6.695  19.582  0.00  0.00    +0.000 A 
ENDBRANCH   3   6
BRANCH   4  12
ATOM     12  S   UNL     1       2.168   3.749  17.522  0.00  0.00    +0.000 S 
ATOM     13  O   UNL     1       1.046   4.632  17.290  0.00  0.00    +0.000 OA
ATOM     14  O   UNL     1       2.292   2.478  16.826  0.00  0.00    +0.000 OA
BRANCH  12  15
ATOM     15  C   UNL     1       2.098   3.284  19.206  0.00  0.00    +0.000 A 
ATOM     16  C   UNL     1       0.907   3.382  19.999  0.00  0.00    +0.000 A 
ATOM     17  C   UNL     1       1.136   3.058  21.320  0.00  0.00    +0.000 A 
ATOM     18  S   UNL     1       2.763   2.606  21.596  0.00  0.00    +0.000 S 
ATOM     19  C   UNL     1       3.179   2.861  19.951  0.00  0.00    +0.000 A 
ENDBRANCH  12  15
ENDBRANCH   4  12
BRANCH   1  20
ATOM     20  C   UNL     1       7.053   4.794  15.854  0.00  0.00    +0.000 C 
BRANCH  20  22
ATOM     21  C   UNL     1       7.831   4.789  18.124  0.00  0.00    +0.000 C 
ATOM     22  N   UNL     1       7.931   4.141  16.823  0.00  0.00    +0.000 NA
ATOM     23  H   UNL     1       7.652   3.166  16.916  0.00  0.00    +0.000 HD
ENDBRANCH  20  22
ENDBRANCH   1  20
TORSDOF 5
ENDMDL
MODEL 4
REMARK VINA RESULT:      -7.5      0.754      1.507
REMARK  Name = 
REMARK  6 active torsions:
REMARK  status: ('A' for Active; 'I' for Inactive)
REMARK    1  A    between atoms: C_1  and  N_2
REMARK    2  A    between atoms: N_2  and  C_3
REMARK    3  A    between atoms: C_3  and  C_4
REMARK    4  A    between atoms: C_6  and  C_7
REMARK    5  A    between atoms: N_13  and  S_14
REMARK    6  A    between atoms: S_14  and  C_17
REMARK                            x       y       z     vdW  Elec       q    Type
REMARK                         _______ _______ _______ _____ _____    ______ ____
ROOT
ATOM      1  C   UNL     1       5.667   5.343  16.548  0.00  0.00    +0.000 A 
ATOM      2  C   UNL     1       5.117   6.526  17.133  0.00  0.00    +0.000 A 
ATOM      3  C   UNL     1       3.842   6.252  17.628  0.00  0.00    +0.000 A 
ATOM      4  N   UNL     1       3.592   4.927  17.294  0.00  0.00    +0.000 N 
ATOM      5  C   UNL     1       4.679   4.369  16.679  0.00  0.00    +0.000 A 
ENDROOT
BRANCH   3   6
ATOM      6  C   UNL     1       2.938   7.177  18.311  0.00  0.00    +0.000 A 
ATOM      7  C   UNL     1       2.602   6.999  19.655  0.00  0.00    +0.000 A 
ATOM      8  C   UNL     1       1.708   7.872  20.277  0.00  0.00    +0.000 A 
ATOM      9  C   UNL     1       1.168   8.956  19.584  0.00  0.00    +0.000 A 
ATOM     10  C   UNL     1       1.513   9.167  18.265  0.00  0.00    +0.000 A 
ATOM     11  C   UNL     1       2.345   8.252  17.645  0.00  0.00    +0.000 A 
ENDBRANCH   3   6
BRANCH   4  12
ATOM     12  S   UNL     1       2.173   4.016  17.640  0.00  0.00    +0.000 S 
ATOM     13  O   UNL     1       1.024   4.878  17.467  0.00  0.00    +0.000 OA
ATOM     14  O   UNL     1       2.301   2.764  16.911  0.00  0.00    +0.000 OA
BRANCH  12  15
ATOM     15  C   UNL     1       2.171   3.512  19.314  0.00  0.00    +0.000 A 
ATOM     16  C   UNL     1       3.337   3.013  19.985  0.00  0.00    +0.000 A 
ATOM     17  C   UNL     1       3.053   2.582  21.264  0.00  0.00    +0.000 A 
ATOM     18  S   UNL     1       1.404   2.807  21.666  0.00  0.00    +0.000 S 
ATOM     19  C   UNL     1       1.053   3.466  20.120  0.00  0.00    +0.000 A 
ENDBRANCH  12  15
ENDBRANCH   4  12
BRANCH   1  20
ATOM     20  C   UNL     1       7.004   5.187  15.903  0.00  0.00    +0.000 C 
BRANCH  20  22
ATOM     21  C   UNL     1       7.903   4.628  18.057  0.00  0.00    +0.000 C 
ATOM     22  N   UNL     1       7.772   4.206  16.669  0.00  0.00    +0.000 NA
ATOM     23  H   UNL     1       7.286   3.311  16.638  0.00  0.00    +0.000 HD
ENDBRANCH  20  22
ENDBRANCH   1  20
TORSDOF 5
ENDMDL
MODEL 5
REMARK VINA RESULT:      -6.8      3.274      5.149
REMARK  Name = 
REMARK  6 active torsions:
REMARK  status: ('A' for Active; 'I' for Inactive)
REMARK    1  A    between atoms: C_1  and  N_2
REMARK    2  A    between atoms: N_2  and  C_3
REMARK    3  A    between atoms: C_3  and  C_4
REMARK    4  A    between atoms: C_6  and  C_7
REMARK    5  A    between atoms: N_13  and  S_14
REMARK    6  A    between atoms: S_14  and  C_17
REMARK                            x       y       z     vdW  Elec       q    Type
REMARK                         _______ _______ _______ _____ _____    ______ ____
ROOT
ATOM      1  C   UNL     1       6.222   4.142  14.117  0.00  0.00    +0.000 A 
ATOM      2  C   UNL     1       4.917   4.158  14.699  0.00  0.00    +0.000 A 
ATOM      3  C   UNL     1       5.021   4.395  16.070  0.00  0.00    +0.000 A 
ATOM      4  N   UNL     1       6.384   4.464  16.331  0.00  0.00    +0.000 N 
ATOM      5  C   UNL     1       7.105   4.345  15.176  0.00  0.00    +0.000 A 
ENDROOT
BRANCH   3   6
ATOM      6  C   UNL     1       3.929   4.500  17.038  0.00  0.00    +0.000 A 
ATOM      7  C   UNL     1       3.190   3.377  17.417  0.00  0.00    +0.000 A 
ATOM      8  C   UNL     1       2.127   3.506  18.314  0.00  0.00    +0.000 A 
ATOM      9  C   UNL     1       1.813   4.744  18.876  0.00  0.00    +0.000 A 
ATOM     10  C   UNL     1       2.552   5.858  18.538  0.00  0.00    +0.000 A 
ATOM     11  C   UNL     1       3.555   5.725  17.594  0.00  0.00    +0.000 A 
ENDBRANCH   3   6
BRANCH   4  12
ATOM     12  S   UNL     1       7.139   4.740  17.853  0.00  0.00    +0.000 S 
ATOM     13  O   UNL     1       6.201   4.392  18.898  0.00  0.00    +0.000 OA
ATOM     14  O   UNL     1       8.454   4.123  17.776  0.00  0.00    +0.000 OA
BRANCH  12  15
ATOM     15  C   UNL     1       7.499   6.439  18.051  0.00  0.00    +0.000 A 
ATOM     16  C   UNL     1       6.947   7.461  17.210  0.00  0.00    +0.000 A 
ATOM     17  C   UNL     1       7.467   8.706  17.498  0.00  0.00    +0.000 A 
ATOM     18  S   UNL     1       8.585   8.650  18.793  0.00  0.00    +0.000 S 
ATOM     19  C   UNL     1       8.396   6.952  18.965  0.00  0.00    +0.000 A 
ENDBRANCH  12  15
ENDBRANCH   4  12
BRANCH   1  20
ATOM     20  C   UNL     1       6.573   3.923  12.682  0.00  0.00    +0.000 C 
BRANCH  20  22
ATOM     21  C   UNL     1       4.977   2.669  11.400  0.00  0.00    +0.000 C 
ATOM     22  N   UNL     1       6.122   2.587  12.298  0.00  0.00    +0.000 NA
ATOM     23  H   UNL     1       6.883   2.106  11.822  0.00  0.00    +0.000 HD
ENDBRANCH  20  22
ENDBRANCH   1  20
TORSDOF 5
ENDMDL
MODEL 6
REMARK VINA RESULT:      -6.8      2.359      5.552
REMARK  Name = 
REMARK  6 active torsions:
REMARK  status: ('A' for Active; 'I' for Inactive)
REMARK    1  A    between atoms: C_1  and  N_2
REMARK    2  A    between atoms: N_2  and  C_3
REMARK    3  A    between atoms: C_3  and  C_4
REMARK    4  A    between atoms: C_6  and  C_7
REMARK    5  A    between atoms: N_13  and  S_14
REMARK    6  A    between atoms: S_14  and  C_17
REMARK                            x       y       z     vdW  Elec       q    Type
REMARK                         _______ _______ _______ _____ _____    ______ ____
ROOT
ATOM      1  C   UNL     1       3.039   7.774  17.940  0.00  0.00    +0.000 A 
ATOM      2  C   UNL     1       2.180   6.982  18.763  0.00  0.00    +0.000 A 
ATOM      3  C   UNL     1       2.768   5.737  18.988  0.00  0.00    +0.000 A 
ATOM      4  N   UNL     1       3.950   5.748  18.258  0.00  0.00    +0.000 N 
ATOM      5  C   UNL     1       4.136   6.962  17.657  0.00  0.00    +0.000 A 
ENDROOT
BRANCH   3   6
ATOM      6  C   UNL     1       2.231   4.633  19.785  0.00  0.00    +0.000 A 
ATOM      7  C   UNL     1       1.253   3.780  19.269  0.00  0.00    +0.000 A 
ATOM      8  C   UNL     1       0.728   2.755  20.059  0.00  0.00    +0.000 A 
ATOM      9  C   UNL     1       1.196   2.542  21.356  0.00  0.00    +0.000 A 
ATOM     10  C   UNL     1       2.184   3.354  21.871  0.00  0.00    +0.000 A 
ATOM     11  C   UNL     1       2.642   4.407  21.100  0.00  0.00    +0.000 A 
ENDBRANCH   3   6
BRANCH   4  12
ATOM     12  S   UNL     1       5.113   4.485  18.141  0.00  0.00    +0.000 S 
ATOM     13  O   UNL     1       6.196   4.775  19.056  0.00  0.00    +0.000 OA
ATOM     14  O   UNL     1       4.371   3.236  18.213  0.00  0.00    +0.000 OA
BRANCH  12  15
ATOM     15  C   UNL     1       5.809   4.450  16.538  0.00  0.00    +0.000 A 
ATOM     16  C   UNL     1       7.032   5.119  16.198  0.00  0.00    +0.000 A 
ATOM     17  C   UNL     1       7.312   5.032  14.851  0.00  0.00    +0.000 A 
ATOM     18  S   UNL     1       6.132   4.124  14.007  0.00  0.00    +0.000 S 
ATOM     19  C   UNL     1       5.224   3.857  15.439  0.00  0.00    +0.000 A 
ENDBRANCH  12  15
ENDBRANCH   4  12
BRANCH   1  20
ATOM     20  C   UNL     1       2.802   9.167  17.457  0.00  0.00    +0.000 C 
BRANCH  20  22
ATOM     21  C   UNL     1       1.114  10.468  18.560  0.00  0.00    +0.000 C 
ATOM     22  N   UNL     1       1.371   9.448  17.552  0.00  0.00    +0.000 NA
ATOM     23  H   UNL     1       1.040   9.783  16.649  0.00  0.00    +0.000 HD
ENDBRANCH  20  22
ENDBRANCH   1  20
TORSDOF 5
ENDMDL
MODEL 7
REMARK VINA RESULT:      -6.7      2.375      5.627
REMARK  Name = 
REMARK  6 active torsions:
REMARK  status: ('A' for Active; 'I' for Inactive)
REMARK    1  A    between atoms: C_1  and  N_2
REMARK    2  A    between atoms: N_2  and  C_3
REMARK    3  A    between atoms: C_3  and  C_4
REMARK    4  A    between atoms: C_6  and  C_7
REMARK    5  A    between atoms: N_13  and  S_14
REMARK    6  A    between atoms: S_14  and  C_17
REMARK                            x       y       z     vdW  Elec       q    Type
REMARK                         _______ _______ _______ _____ _____    ______ ____
ROOT
ATOM      1  C   UNL     1       2.946   7.782  17.975  0.00  0.00    +0.000 A 
ATOM      2  C   UNL     1       2.096   6.981  18.799  0.00  0.00    +0.000 A 
ATOM      3  C   UNL     1       2.711   5.754  19.049  0.00  0.00    +0.000 A 
ATOM      4  N   UNL     1       3.901   5.784  18.334  0.00  0.00    +0.000 N 
ATOM      5  C   UNL     1       4.065   6.993  17.716  0.00  0.00    +0.000 A 
ENDROOT
BRANCH   3   6
ATOM      6  C   UNL     1       2.191   4.649  19.855  0.00  0.00    +0.000 A 
ATOM      7  C   UNL     1       2.640   4.433  21.160  0.00  0.00    +0.000 A 
ATOM      8  C   UNL     1       2.159   3.350  21.898  0.00  0.00    +0.000 A 
ATOM      9  C   UNL     1       1.195   2.494  21.364  0.00  0.00    +0.000 A 
ATOM     10  C   UNL     1       0.715   2.710  20.090  0.00  0.00    +0.000 A 
ATOM     11  C   UNL     1       1.256   3.745  19.347  0.00  0.00    +0.000 A 
ENDBRANCH   3   6
BRANCH   4  12
ATOM     12  S   UNL     1       5.096   4.547  18.249  0.00  0.00    +0.000 S 
ATOM     13  O   UNL     1       6.167   4.884  19.162  0.00  0.00    +0.000 OA
ATOM     14  O   UNL     1       4.384   3.282  18.346  0.00  0.00    +0.000 OA
BRANCH  12  15
ATOM     15  C   UNL     1       5.800   4.495  16.650  0.00  0.00    +0.000 A 
ATOM     16  C   UNL     1       7.037   5.139  16.315  0.00  0.00    +0.000 A 
ATOM     17  C   UNL     1       7.323   5.043  14.969  0.00  0.00    +0.000 A 
ATOM     18  S   UNL     1       6.130   4.155  14.122  0.00  0.00    +0.000 S 
ATOM     19  C   UNL     1       5.209   3.909  15.549  0.00  0.00    +0.000 A 
ENDBRANCH  12  15
ENDBRANCH   4  12
BRANCH   1  20
ATOM     20  C   UNL     1       2.681   9.161  17.468  0.00  0.00    +0.000 C 
BRANCH  20  22
ATOM     21  C   UNL     1       1.227  10.655  18.658  0.00  0.00    +0.000 C 
ATOM     22  N   UNL     1       1.292   9.502  17.769  0.00  0.00    +0.000 NA
ATOM     23  H   UNL     1       0.812   9.726  16.899  0.00  0.00    +0.000 HD
ENDBRANCH  20  22
ENDBRANCH   1  20
TORSDOF 5
ENDMDL
MODEL 8
REMARK VINA RESULT:      -6.7      3.264      5.151
REMARK  Name = 
REMARK  6 active torsions:
REMARK  status: ('A' for Active; 'I' for Inactive)
REMARK    1  A    between atoms: C_1  and  N_2
REMARK    2  A    between atoms: N_2  and  C_3
REMARK    3  A    between atoms: C_3  and  C_4
REMARK    4  A    between atoms: C_6  and  C_7
REMARK    5  A    between atoms: N_13  and  S_14
REMARK    6  A    between atoms: S_14  and  C_17
REMARK                            x       y       z     vdW  Elec       q    Type
REMARK                         _______ _______ _______ _____ _____    ______ ____
ROOT
ATOM      1  C   UNL     1       6.159   3.990  14.179  0.00  0.00    +0.000 A 
ATOM      2  C   UNL     1       4.871   3.934  14.796  0.00  0.00    +0.000 A 
ATOM      3  C   UNL     1       4.996   4.196  16.161  0.00  0.00    +0.000 A 
ATOM      4  N   UNL     1       6.359   4.350  16.385  0.00  0.00    +0.000 N 
ATOM      5  C   UNL     1       7.056   4.260  15.212  0.00  0.00    +0.000 A 
ENDROOT
BRANCH   3   6
ATOM      6  C   UNL     1       3.925   4.247  17.156  0.00  0.00    +0.000 A 
ATOM      7  C   UNL     1       3.363   5.464  17.549  0.00  0.00    +0.000 A 
ATOM      8  C   UNL     1       2.367   5.493  18.528  0.00  0.00    +0.000 A 
ATOM      9  C   UNL     1       1.891   4.312  19.099  0.00  0.00    +0.000 A 
ATOM     10  C   UNL     1       2.412   3.099  18.701  0.00  0.00    +0.000 A 
ATOM     11  C   UNL     1       3.447   3.094  17.782  0.00  0.00    +0.000 A 
ENDBRANCH   3   6
BRANCH   4  12
ATOM     12  S   UNL     1       7.135   4.691  17.883  0.00  0.00    +0.000 S 
ATOM     13  O   UNL     1       6.228   4.347  18.956  0.00  0.00    +0.000 OA
ATOM     14  O   UNL     1       8.466   4.109  17.797  0.00  0.00    +0.000 OA
BRANCH  12  15
ATOM     15  C   UNL     1       7.451   6.405  18.025  0.00  0.00    +0.000 A 
ATOM     16  C   UNL     1       6.807   7.392  17.207  0.00  0.00    +0.000 A 
ATOM     17  C   UNL     1       7.303   8.658  17.436  0.00  0.00    +0.000 A 
ATOM     18  S   UNL     1       8.510   8.663  18.649  0.00  0.00    +0.000 S 
ATOM     19  C   UNL     1       8.391   6.965  18.864  0.00  0.00    +0.000 A 
ENDBRANCH  12  15
ENDBRANCH   4  12
BRANCH   1  20
ATOM     20  C   UNL     1       6.485   3.774  12.738  0.00  0.00    +0.000 C 
BRANCH  20  22
ATOM     21  C   UNL     1       4.675   2.966  11.385  0.00  0.00    +0.000 C 
ATOM     22  N   UNL     1       5.763   2.589  12.277  0.00  0.00    +0.000 NA
ATOM     23  H   UNL     1       6.410   1.985  11.774  0.00  0.00    +0.000 HD
ENDBRANCH  20  22
ENDBRANCH   1  20
TORSDOF 5
ENDMDL
MODEL 9
REMARK VINA RESULT:      -6.7      2.651      4.466
REMARK  Name = 
REMARK  6 active torsions:
REMARK  status: ('A' for Active; 'I' for Inactive)
REMARK    1  A    between atoms: C_1  and  N_2
REMARK    2  A    between atoms: N_2  and  C_3
REMARK    3  A    between atoms: C_3  and  C_4
REMARK    4  A    between atoms: C_6  and  C_7
REMARK    5  A    between atoms: N_13  and  S_14
REMARK    6  A    between atoms: S_14  and  C_17
REMARK                            x       y       z     vdW  Elec       q    Type
REMARK                         _______ _______ _______ _____ _____    ______ ____
ROOT
ATOM      1  C   UNL     1       6.128   4.140  14.544  0.00  0.00    +0.000 A 
ATOM      2  C   UNL     1       5.007   3.408  15.046  0.00  0.00    +0.000 A 
ATOM      3  C   UNL     1       4.718   3.831  16.344  0.00  0.00    +0.000 A 
ATOM      4  N   UNL     1       5.692   4.772  16.653  0.00  0.00    +0.000 N 
ATOM      5  C   UNL     1       6.517   4.985  15.583  0.00  0.00    +0.000 A 
ENDROOT
BRANCH   3   6
ATOM      6  C   UNL     1       3.645   3.351  17.215  0.00  0.00    +0.000 A 
ATOM      7  C   UNL     1       3.852   2.287  18.096  0.00  0.00    +0.000 A 
ATOM      8  C   UNL     1       2.803   1.820  18.891  0.00  0.00    +0.000 A 
ATOM      9  C   UNL     1       1.549   2.431  18.850  0.00  0.00    +0.000 A 
ATOM     10  C   UNL     1       1.335   3.503  18.010  0.00  0.00    +0.000 A 
ATOM     11  C   UNL     1       2.364   3.907  17.178  0.00  0.00    +0.000 A 
ENDBRANCH   3   6
BRANCH   4  12
ATOM     12  S   UNL     1       5.860   5.652  18.123  0.00  0.00    +0.000 S 
ATOM     13  O   UNL     1       6.145   4.714  19.186  0.00  0.00    +0.000 OA
ATOM     14  O   UNL     1       6.749   6.767  17.834  0.00  0.00    +0.000 OA
BRANCH  12  15
ATOM     15  C   UNL     1       4.352   6.433  18.536  0.00  0.00    +0.000 A 
ATOM     16  C   UNL     1       3.556   6.054  19.668  0.00  0.00    +0.000 A 
ATOM     17  C   UNL     1       2.363   6.745  19.717  0.00  0.00    +0.000 A 
ATOM     18  S   UNL     1       2.217   7.864  18.430  0.00  0.00    +0.000 S 
ATOM     19  C   UNL     1       3.744   7.417  17.785  0.00  0.00    +0.000 A 
ENDBRANCH  12  15
ENDBRANCH   4  12
BRANCH   1  20
ATOM     20  C   UNL     1       6.771   4.008  13.203  0.00  0.00    +0.000 C 
BRANCH  20  22
ATOM     21  C   UNL     1       5.117   3.151  11.690  0.00  0.00    +0.000 C 
ATOM     22  N   UNL     1       6.239   2.811  12.555  0.00  0.00    +0.000 NA
ATOM     23  H   UNL     1       6.975   2.387  11.993  0.00  0.00    +0.000 HD
ENDBRANCH  20  22
ENDBRANCH   1  20
TORSDOF 5
ENDMDL
