MODEL 1
REMARK VINA RESULT:      -7.5      0.000      0.000
REMARK  Name = 
REMARK  8 active torsions:
REMARK  status: ('A' for Active; 'I' for Inactive)
REMARK    1  A    between atoms: C_1  and  C_2
REMARK    2  A    between atoms: C_5  and  C_6
REMARK    3  A    between atoms: C_6  and  N_7
REMARK    4  A    between atoms: N_7  and  C_8
REMARK    5  A    between atoms: C_11  and  C_12
REMARK    6  A    between atoms: N_14  and  C_15
REMARK    7  A    between atoms: C_15  and  C_16
REMARK    8  A    between atoms: C_22  and  C_23
REMARK                            x       y       z     vdW  Elec       q    Type
REMARK                         _______ _______ _______ _____ _____    ______ ____
ROOT
ATOM      1  C   UNL     1       5.438   4.558  17.336  0.00  0.00    +0.000 A 
ATOM      2  C   UNL     1       4.083   4.419  16.999  0.00  0.00    +0.000 A 
ATOM      3  C   UNL     1       3.068   4.866  17.851  0.00  0.00    +0.000 A 
ATOM      4  C   UNL     1       3.393   5.479  19.061  0.00  0.00    +0.000 A 
ATOM      5  C   UNL     1       4.738   5.663  19.395  0.00  0.00    +0.000 A 
ATOM      6  C   UNL     1       5.761   5.230  18.533  0.00  0.00    +0.000 A 
ATOM      7  C   UNL     1       7.197   5.452  18.935  0.00  0.00    +0.000 C 
ENDROOT
BRANCH   4   8
ATOM      8  C   UNL     1       2.352   5.896  20.041  0.00  0.00    +0.000 C 
ATOM      9  O   UNL     1       1.772   5.055  20.719  0.00  0.00    +0.000 OA
ATOM     10  N   UNL     1       2.101   7.244  20.139  0.00  0.00    +0.000 N 
ATOM     11  H   UNL     1       2.762   7.910  19.760  0.00  0.00    +0.000 HD
BRANCH  10  12
ATOM     12  C   UNL     1       1.158   7.752  21.108  0.00  0.00    +0.000 C 
BRANCH  12  13
ATOM     13  C   UNL     1       0.929   9.191  20.834  0.00  0.00    +0.000 A 
ATOM     14  C   UNL     1       0.592  10.263  21.635  0.00  0.00    +0.000 A 
ATOM     15  C   UNL     1       0.518  11.392  20.784  0.00  0.00    +0.000 A 
ATOM     16  C   UNL     1       0.810  10.939  19.520  0.00  0.00    +0.000 A 
ATOM     17  O   UNL     1       1.060   9.603  19.536  0.00  0.00    +0.000 OA
ENDBRANCH  12  13
ENDBRANCH  10  12
ENDBRANCH   4   8
BRANCH   1  18
ATOM     18  N   UNL     1       6.473   4.105  16.517  0.00  0.00    +0.000 N 
ATOM     19  H   UNL     1       7.114   3.486  17.012  0.00  0.00    +0.000 HD
BRANCH  18  20
ATOM     20  C   UNL     1       7.199   5.033  15.643  0.00  0.00    +0.000 C 
BRANCH  20  25
ATOM     21  C   UNL     1       5.566   2.586  11.777  0.00  0.00    +0.000 C 
ATOM     22  C   UNL     1       6.354   3.613  12.474  0.00  0.00    +0.000 A 
ATOM     23  C   UNL     1       7.228   4.597  12.072  0.00  0.00    +0.000 A 
ATOM     24  N   UNL     1       7.686   5.291  13.163  0.00  0.00    +0.000 NA
ATOM     25  C   UNL     1       7.096   4.702  14.185  0.00  0.00    +0.000 A 
ATOM     26  O   UNL     1       6.255   3.673  13.836  0.00  0.00    +0.000 OA
ENDBRANCH  20  25
ENDBRANCH  18  20
ENDBRANCH   1  18
TORSDOF 6
ENDMDL
MODEL 2
REMARK VINA RESULT:      -7.4      2.236      3.479
REMARK  Name = 
REMARK  8 active torsions:
REMARK  status: ('A' for Active; 'I' for Inactive)
REMARK    1  A    between atoms: C_1  and  C_2
REMARK    2  A    between atoms: C_5  and  C_6
REMARK    3  A    between atoms: C_6  and  N_7
REMARK    4  A    between atoms: N_7  and  C_8
REMARK    5  A    between atoms: C_11  and  C_12
REMARK    6  A    between atoms: N_14  and  C_15
REMARK    7  A    between atoms: C_15  and  C_16
REMARK    8  A    between atoms: C_22  and  C_23
REMARK                            x       y       z     vdW  Elec       q    Type
REMARK                         _______ _______ _______ _____ _____    ______ ____
ROOT
ATOM      1  C   UNL     1       4.626   4.673  16.995  0.00  0.00    +0.000 A 
ATOM      2  C   UNL     1       4.113   3.809  17.974  0.00  0.00    +0.000 A 
ATOM      3  C   UNL     1       3.250   4.269  18.974  0.00  0.00    +0.000 A 
ATOM      4  C   UNL     1       2.870   5.611  19.006  0.00  0.00    +0.000 A 
ATOM      5  C   UNL     1       3.340   6.478  18.015  0.00  0.00    +0.000 A 
ATOM      6  C   UNL     1       4.193   6.016  16.998  0.00  0.00    +0.000 A 
ATOM      7  C   UNL     1       4.672   6.987  15.949  0.00  0.00    +0.000 C 
ENDROOT
BRANCH   4   8
ATOM      8  C   UNL     1       2.024   6.167  20.097  0.00  0.00    +0.000 C 
ATOM      9  O   UNL     1       1.385   5.416  20.826  0.00  0.00    +0.000 OA
ATOM     10  N   UNL     1       2.014   7.535  20.235  0.00  0.00    +0.000 N 
ATOM     11  H   UNL     1       2.734   8.092  19.793  0.00  0.00    +0.000 HD
BRANCH  10  12
ATOM     12  C   UNL     1       1.278   8.165  21.306  0.00  0.00    +0.000 C 
BRANCH  12  13
ATOM     13  C   UNL     1       0.569   9.347  20.759  0.00  0.00    +0.000 A 
ATOM     14  C   UNL     1       0.492   9.902  19.499  0.00  0.00    +0.000 A 
ATOM     15  C   UNL     1      -0.350  11.035  19.610  0.00  0.00    +0.000 A 
ATOM     16  C   UNL     1      -0.730  11.101  20.929  0.00  0.00    +0.000 A 
ATOM     17  O   UNL     1      -0.177  10.082  21.638  0.00  0.00    +0.000 OA
ENDBRANCH  12  13
ENDBRANCH  10  12
ENDBRANCH   4   8
BRANCH   1  18
ATOM     18  N   UNL     1       5.503   4.250  15.996  0.00  0.00    +0.000 N 
ATOM     19  H   UNL     1       5.192   3.389  15.548  0.00  0.00    +0.000 HD
BRANCH  18  20
ATOM     20  C   UNL     1       6.952   4.237  16.226  0.00  0.00    +0.000 C 
BRANCH  20  25
ATOM     21  C   UNL     1       8.206   8.579  18.005  0.00  0.00    +0.000 C 
ATOM     22  C   UNL     1       7.954   7.131  18.066  0.00  0.00    +0.000 A 
ATOM     23  C   UNL     1       8.029   6.179  19.056  0.00  0.00    +0.000 A 
ATOM     24  N   UNL     1       7.671   4.953  18.554  0.00  0.00    +0.000 NA
ATOM     25  C   UNL     1       7.409   5.193  17.284  0.00  0.00    +0.000 A 
ATOM     26  O   UNL     1       7.549   6.510  16.917  0.00  0.00    +0.000 OA
ENDBRANCH  20  25
ENDBRANCH  18  20
ENDBRANCH   1  18
TORSDOF 6
ENDMDL
MODEL 3
REMARK VINA RESULT:      -7.4      2.669      4.323
REMARK  Name = 
REMARK  8 active torsions:
REMARK  status: ('A' for Active; 'I' for Inactive)
REMARK    1  A    between atoms: C_1  and  C_2
REMARK    2  A    between atoms: C_5  and  C_6
REMARK    3  A    between atoms: C_6  and  N_7
REMARK    4  A    between atoms: N_7  and  C_8
REMARK    5  A    between atoms: C_11  and  C_12
REMARK    6  A    between atoms: N_14  and  C_15
REMARK    7  A    between atoms: C_15  and  C_16
REMARK    8  A    between atoms: C_22  and  C_23
REMARK                            x       y       z     vdW  Elec       q    Type
REMARK                         _______ _______ _______ _____ _____    ______ ____
ROOT
ATOM      1  C   UNL     1       3.031   5.946  18.783  0.00  0.00    +0.000 A 
ATOM      2  C   UNL     1       3.355   6.851  17.763  0.00  0.00    +0.000 A 
ATOM      3  C   UNL     1       2.810   8.139  17.728  0.00  0.00    +0.000 A 
ATOM      4  C   UNL     1       1.932   8.553  18.730  0.00  0.00    +0.000 A 
ATOM      5  C   UNL     1       1.629   7.678  19.777  0.00  0.00    +0.000 A 
ATOM      6  C   UNL     1       2.189   6.389  19.825  0.00  0.00    +0.000 A 
ATOM      7  C   UNL     1       1.835   5.481  20.975  0.00  0.00    +0.000 C 
ENDROOT
BRANCH   4   8
ATOM      8  C   UNL     1       1.259   9.880  18.694  0.00  0.00    +0.000 C 
ATOM      9  O   UNL     1       1.876  10.874  18.324  0.00  0.00    +0.000 OA
ATOM     10  N   UNL     1      -0.060   9.915  19.079  0.00  0.00    +0.000 N 
ATOM     11  H   UNL     1      -0.594   9.057  19.130  0.00  0.00    +0.000 HD
BRANCH  10  12
ATOM     12  C   UNL     1      -0.818  11.143  19.012  0.00  0.00    +0.000 C 
BRANCH  12  13
ATOM     13  C   UNL     1      -1.913  10.969  18.028  0.00  0.00    +0.000 A 
ATOM     14  C   UNL     1      -3.162  11.539  17.896  0.00  0.00    +0.000 A 
ATOM     15  C   UNL     1      -3.747  10.960  16.743  0.00  0.00    +0.000 A 
ATOM     16  C   UNL     1      -2.821  10.073  16.249  0.00  0.00    +0.000 A 
ATOM     17  O   UNL     1      -1.703  10.067  17.022  0.00  0.00    +0.000 OA
ENDBRANCH  12  13
ENDBRANCH  10  12
ENDBRANCH   4   8
BRANCH   1  18
ATOM     18  N   UNL     1       3.542   4.649  18.837  0.00  0.00    +0.000 N 
ATOM     19  H   UNL     1       2.900   3.999  19.288  0.00  0.00    +0.000 HD
BRANCH  18  20
ATOM     20  C   UNL     1       4.928   4.405  19.255  0.00  0.00    +0.000 C 
BRANCH  20  25
ATOM     21  C   UNL     1       6.323   4.077  14.614  0.00  0.00    +0.000 C 
ATOM     22  C   UNL     1       6.520   4.269  16.059  0.00  0.00    +0.000 A 
ATOM     23  C   UNL     1       7.610   4.516  16.861  0.00  0.00    +0.000 A 
ATOM     24  N   UNL     1       7.215   4.613  18.171  0.00  0.00    +0.000 NA
ATOM     25  C   UNL     1       5.913   4.406  18.127  0.00  0.00    +0.000 A 
ATOM     26  O   UNL     1       5.415   4.201  16.863  0.00  0.00    +0.000 OA
ENDBRANCH  20  25
ENDBRANCH  18  20
ENDBRANCH   1  18
TORSDOF 6
ENDMDL
MODEL 4
REMARK VINA RESULT:      -7.3      2.017      2.715
REMARK  Name = 
REMARK  8 active torsions:
REMARK  status: ('A' for Active; 'I' for Inactive)
REMARK    1  A    between atoms: C_1  and  C_2
REMARK    2  A    between atoms: C_5  and  C_6
REMARK    3  A    between atoms: C_6  and  N_7
REMARK    4  A    between atoms: N_7  and  C_8
REMARK    5  A    between atoms: C_11  and  C_12
REMARK    6  A    between atoms: N_14  and  C_15
REMARK    7  A    between atoms: C_15  and  C_16
REMARK    8  A    between atoms: C_22  and  C_23
REMARK                            x       y       z     vdW  Elec       q    Type
REMARK                         _______ _______ _______ _____ _____    ______ ____
ROOT
ATOM      1  C   UNL     1       4.166   5.072  16.896  0.00  0.00    +0.000 A 
ATOM      2  C   UNL     1       4.600   6.403  16.965  0.00  0.00    +0.000 A 
ATOM      3  C   UNL     1       3.922   7.354  17.734  0.00  0.00    +0.000 A 
ATOM      4  C   UNL     1       2.793   6.983  18.466  0.00  0.00    +0.000 A 
ATOM      5  C   UNL     1       2.369   5.652  18.440  0.00  0.00    +0.000 A 
ATOM      6  C   UNL     1       3.058   4.689  17.682  0.00  0.00    +0.000 A 
ATOM      7  C   UNL     1       2.566   3.265  17.687  0.00  0.00    +0.000 C 
ENDROOT
BRANCH   4   8
ATOM      8  C   UNL     1       1.986   7.974  19.231  0.00  0.00    +0.000 C 
ATOM      9  O   UNL     1       1.798   7.818  20.433  0.00  0.00    +0.000 OA
ATOM     10  N   UNL     1       1.492   9.045  18.526  0.00  0.00    +0.000 N 
ATOM     11  H   UNL     1       1.873   9.269  17.615  0.00  0.00    +0.000 HD
BRANCH  10  12
ATOM     12  C   UNL     1       0.756  10.094  19.193  0.00  0.00    +0.000 C 
BRANCH  12  13
ATOM     13  C   UNL     1      -0.452  10.405  18.391  0.00  0.00    +0.000 A 
ATOM     14  C   UNL     1      -1.205   9.674  17.496  0.00  0.00    +0.000 A 
ATOM     15  C   UNL     1      -2.246  10.528  17.057  0.00  0.00    +0.000 A 
ATOM     16  C   UNL     1      -2.060  11.724  17.707  0.00  0.00    +0.000 A 
ATOM     17  O   UNL     1      -0.972  11.663  18.520  0.00  0.00    +0.000 OA
ENDBRANCH  12  13
ENDBRANCH  10  12
ENDBRANCH   4   8
BRANCH   1  18
ATOM     18  N   UNL     1       4.809   4.104  16.123  0.00  0.00    +0.000 N 
ATOM     19  H   UNL     1       4.842   3.198  16.588  0.00  0.00    +0.000 HD
BRANCH  18  20
ATOM     20  C   UNL     1       6.078   4.403  15.450  0.00  0.00    +0.000 C 
BRANCH  20  25
ATOM     21  C   UNL     1       4.122   3.110  11.195  0.00  0.00    +0.000 C 
ATOM     22  C   UNL     1       5.217   3.465  12.111  0.00  0.00    +0.000 A 
ATOM     23  C   UNL     1       6.582   3.587  11.983  0.00  0.00    +0.000 A 
ATOM     24  N   UNL     1       7.133   3.957  13.183  0.00  0.00    +0.000 NA
ATOM     25  C   UNL     1       6.100   4.029  13.999  0.00  0.00    +0.000 A 
ATOM     26  O   UNL     1       4.891   3.753  13.407  0.00  0.00    +0.000 OA
ENDBRANCH  20  25
ENDBRANCH  18  20
ENDBRANCH   1  18
TORSDOF 6
ENDMDL
MODEL 5
REMARK VINA RESULT:      -7.3      3.013      8.542
REMARK  Name = 
REMARK  8 active torsions:
REMARK  status: ('A' for Active; 'I' for Inactive)
REMARK    1  A    between atoms: C_1  and  C_2
REMARK    2  A    between atoms: C_5  and  C_6
REMARK    3  A    between atoms: C_6  and  N_7
REMARK    4  A    between atoms: N_7  and  C_8
REMARK    5  A    between atoms: C_11  and  C_12
REMARK    6  A    between atoms: N_14  and  C_15
REMARK    7  A    between atoms: C_15  and  C_16
REMARK    8  A    between atoms: C_22  and  C_23
REMARK                            x       y       z     vdW  Elec       q    Type
REMARK                         _______ _______ _______ _____ _____    ______ ____
ROOT
ATOM      1  C   UNL     1       1.027   9.877  19.388  0.00  0.00    +0.000 A 
ATOM      2  C   UNL     1       1.580   9.548  18.142  0.00  0.00    +0.000 A 
ATOM      3  C   UNL     1       2.250   8.338  17.936  0.00  0.00    +0.000 A 
ATOM      4  C   UNL     1       2.370   7.420  18.981  0.00  0.00    +0.000 A 
ATOM      5  C   UNL     1       1.790   7.714  20.218  0.00  0.00    +0.000 A 
ATOM      6  C   UNL     1       1.100   8.922  20.423  0.00  0.00    +0.000 A 
ATOM      7  C   UNL     1       0.489   9.193  21.774  0.00  0.00    +0.000 C 
ENDROOT
BRANCH   4   8
ATOM      8  C   UNL     1       3.146   6.158  18.838  0.00  0.00    +0.000 C 
ATOM      9  O   UNL     1       3.824   5.742  19.772  0.00  0.00    +0.000 OA
ATOM     10  N   UNL     1       3.046   5.504  17.633  0.00  0.00    +0.000 N 
ATOM     11  H   UNL     1       2.296   5.734  16.994  0.00  0.00    +0.000 HD
BRANCH  10  12
ATOM     12  C   UNL     1       3.707   4.237  17.422  0.00  0.00    +0.000 C 
BRANCH  12  13
ATOM     13  C   UNL     1       5.032   4.493  16.808  0.00  0.00    +0.000 A 
ATOM     14  C   UNL     1       5.426   4.925  15.558  0.00  0.00    +0.000 A 
ATOM     15  C   UNL     1       6.841   4.973  15.579  0.00  0.00    +0.000 A 
ATOM     16  C   UNL     1       7.221   4.564  16.834  0.00  0.00    +0.000 A 
ATOM     17  O   UNL     1       6.131   4.267  17.590  0.00  0.00    +0.000 OA
ENDBRANCH  12  13
ENDBRANCH  10  12
ENDBRANCH   4   8
BRANCH   1  18
ATOM     18  N   UNL     1       0.369  11.083  19.631  0.00  0.00    +0.000 N 
ATOM     19  H   UNL     1      -0.187  11.055  20.485  0.00  0.00    +0.000 HD
BRANCH  18  20
ATOM     20  C   UNL     1      -0.346  11.778  18.554  0.00  0.00    +0.000 C 
BRANCH  20  25
ATOM     21  C   UNL     1      -3.456  10.407  15.084  0.00  0.00    +0.000 C 
ATOM     22  C   UNL     1      -2.863  10.392  16.430  0.00  0.00    +0.000 A 
ATOM     23  C   UNL     1      -3.117   9.697  17.590  0.00  0.00    +0.000 A 
ATOM     24  N   UNL     1      -2.235  10.081  18.568  0.00  0.00    +0.000 NA
ATOM     25  C   UNL     1      -1.493  11.002  17.984  0.00  0.00    +0.000 A 
ATOM     26  O   UNL     1      -1.812  11.234  16.668  0.00  0.00    +0.000 OA
ENDBRANCH  20  25
ENDBRANCH  18  20
ENDBRANCH   1  18
TORSDOF 6
ENDMDL
MODEL 6
REMARK VINA RESULT:      -7.3      3.374      8.760
REMARK  Name = 
REMARK  8 active torsions:
REMARK  status: ('A' for Active; 'I' for Inactive)
REMARK    1  A    between atoms: C_1  and  C_2
REMARK    2  A    between atoms: C_5  and  C_6
REMARK    3  A    between atoms: C_6  and  N_7
REMARK    4  A    between atoms: N_7  and  C_8
REMARK    5  A    between atoms: C_11  and  C_12
REMARK    6  A    between atoms: N_14  and  C_15
REMARK    7  A    between atoms: C_15  and  C_16
REMARK    8  A    between atoms: C_22  and  C_23
REMARK                            x       y       z     vdW  Elec       q    Type
REMARK                         _______ _______ _______ _____ _____    ______ ____
ROOT
ATOM      1  C   UNL     1       0.394  10.004  19.477  0.00  0.00    +0.000 A 
ATOM      2  C   UNL     1       0.932   9.795  18.199  0.00  0.00    +0.000 A 
ATOM      3  C   UNL     1       1.799   8.730  17.936  0.00  0.00    +0.000 A 
ATOM      4  C   UNL     1       2.136   7.837  18.953  0.00  0.00    +0.000 A 
ATOM      5  C   UNL     1       1.578   8.006  20.223  0.00  0.00    +0.000 A 
ATOM      6  C   UNL     1       0.693   9.065  20.488  0.00  0.00    +0.000 A 
ATOM      7  C   UNL     1       0.113   9.206  21.872  0.00  0.00    +0.000 C 
ENDROOT
BRANCH   4   8
ATOM      8  C   UNL     1       3.120   6.738  18.747  0.00  0.00    +0.000 C 
ATOM      9  O   UNL     1       3.306   5.905  19.627  0.00  0.00    +0.000 OA
ATOM     10  N   UNL     1       3.776   6.716  17.539  0.00  0.00    +0.000 N 
ATOM     11  H   UNL     1       3.419   7.254  16.760  0.00  0.00    +0.000 HD
BRANCH  10  12
ATOM     12  C   UNL     1       4.698   5.651  17.218  0.00  0.00    +0.000 C 
BRANCH  12  13
ATOM     13  C   UNL     1       6.013   5.967  17.826  0.00  0.00    +0.000 A 
ATOM     14  C   UNL     1       6.766   5.365  18.813  0.00  0.00    +0.000 A 
ATOM     15  C   UNL     1       7.941   6.143  18.951  0.00  0.00    +0.000 A 
ATOM     16  C   UNL     1       7.830   7.170  18.045  0.00  0.00    +0.000 A 
ATOM     17  O   UNL     1       6.662   7.076  17.356  0.00  0.00    +0.000 OA
ENDBRANCH  12  13
ENDBRANCH  10  12
ENDBRANCH   4   8
BRANCH   1  18
ATOM     18  N   UNL     1      -0.458  11.067  19.777  0.00  0.00    +0.000 N 
ATOM     19  H   UNL     1      -1.252  10.777  20.347  0.00  0.00    +0.000 HD
BRANCH  18  20
ATOM     20  C   UNL     1      -0.870  12.015  18.735  0.00  0.00    +0.000 C 
BRANCH  20  25
ATOM     21  C   UNL     1      -3.590  10.414  15.044  0.00  0.00    +0.000 C 
ATOM     22  C   UNL     1      -3.345  10.922  16.402  0.00  0.00    +0.000 A 
ATOM     23  C   UNL     1      -4.146  11.219  17.481  0.00  0.00    +0.000 A 
ATOM     24  N   UNL     1      -3.377  11.667  18.525  0.00  0.00    +0.000 NA
ATOM     25  C   UNL     1      -2.148  11.646  18.047  0.00  0.00    +0.000 A 
ATOM     26  O   UNL     1      -2.051  11.187  16.755  0.00  0.00    +0.000 OA
ENDBRANCH  20  25
ENDBRANCH  18  20
ENDBRANCH   1  18
TORSDOF 6
ENDMDL
MODEL 7
REMARK VINA RESULT:      -7.3      2.689      4.073
REMARK  Name = 
REMARK  8 active torsions:
REMARK  status: ('A' for Active; 'I' for Inactive)
REMARK    1  A    between atoms: C_1  and  C_2
REMARK    2  A    between atoms: C_5  and  C_6
REMARK    3  A    between atoms: C_6  and  N_7
REMARK    4  A    between atoms: N_7  and  C_8
REMARK    5  A    between atoms: C_11  and  C_12
REMARK    6  A    between atoms: N_14  and  C_15
REMARK    7  A    between atoms: C_15  and  C_16
REMARK    8  A    between atoms: C_22  and  C_23
REMARK                            x       y       z     vdW  Elec       q    Type
REMARK                         _______ _______ _______ _____ _____    ______ ____
ROOT
ATOM      1  C   UNL     1       3.929   5.243  17.708  0.00  0.00    +0.000 A 
ATOM      2  C   UNL     1       3.857   6.512  17.115  0.00  0.00    +0.000 A 
ATOM      3  C   UNL     1       3.146   7.559  17.711  0.00  0.00    +0.000 A 
ATOM      4  C   UNL     1       2.498   7.356  18.930  0.00  0.00    +0.000 A 
ATOM      5  C   UNL     1       2.592   6.110  19.556  0.00  0.00    +0.000 A 
ATOM      6  C   UNL     1       3.321   5.061  18.968  0.00  0.00    +0.000 A 
ATOM      7  C   UNL     1       3.397   3.735  19.681  0.00  0.00    +0.000 C 
ENDROOT
BRANCH   4   8
ATOM      8  C   UNL     1       1.658   8.410  19.563  0.00  0.00    +0.000 C 
ATOM      9  O   UNL     1       1.295   8.292  20.729  0.00  0.00    +0.000 OA
ATOM     10  N   UNL     1       1.338   9.496  18.783  0.00  0.00    +0.000 N 
ATOM     11  H   UNL     1       1.855   9.677  17.933  0.00  0.00    +0.000 HD
BRANCH  10  12
ATOM     12  C   UNL     1       0.585  10.602  19.328  0.00  0.00    +0.000 C 
BRANCH  12  13
ATOM     13  C   UNL     1      -0.742  10.640  18.668  0.00  0.00    +0.000 A 
ATOM     14  C   UNL     1      -1.916  11.310  18.946  0.00  0.00    +0.000 A 
ATOM     15  C   UNL     1      -2.839  10.935  17.941  0.00  0.00    +0.000 A 
ATOM     16  C   UNL     1      -2.174  10.058  17.118  0.00  0.00    +0.000 A 
ATOM     17  O   UNL     1      -0.899   9.869  17.550  0.00  0.00    +0.000 OA
ENDBRANCH  12  13
ENDBRANCH  10  12
ENDBRANCH   4   8
BRANCH   1  18
ATOM     18  N   UNL     1       4.614   4.174  17.130  0.00  0.00    +0.000 N 
ATOM     19  H   UNL     1       4.486   3.307  17.651  0.00  0.00    +0.000 HD
BRANCH  18  20
ATOM     20  C   UNL     1       6.003   4.326  16.683  0.00  0.00    +0.000 C 
BRANCH  20  25
ATOM     21  C   UNL     1       8.203   8.473  17.931  0.00  0.00    +0.000 C 
ATOM     22  C   UNL     1       7.794   7.071  18.106  0.00  0.00    +0.000 A 
ATOM     23  C   UNL     1       7.997   6.121  19.080  0.00  0.00    +0.000 A 
ATOM     24  N   UNL     1       7.371   4.951  18.729  0.00  0.00    +0.000 NA
ATOM     25  C   UNL     1       6.830   5.219  17.557  0.00  0.00    +0.000 A 
ATOM     26  O   UNL     1       7.037   6.505  17.118  0.00  0.00    +0.000 OA
ENDBRANCH  20  25
ENDBRANCH  18  20
ENDBRANCH   1  18
TORSDOF 6
ENDMDL
MODEL 8
REMARK VINA RESULT:      -7.2      2.448      3.967
REMARK  Name = 
REMARK  8 active torsions:
REMARK  status: ('A' for Active; 'I' for Inactive)
REMARK    1  A    between atoms: C_1  and  C_2
REMARK    2  A    between atoms: C_5  and  C_6
REMARK    3  A    between atoms: C_6  and  N_7
REMARK    4  A    between atoms: N_7  and  C_8
REMARK    5  A    between atoms: C_11  and  C_12
REMARK    6  A    between atoms: N_14  and  C_15
REMARK    7  A    between atoms: C_15  and  C_16
REMARK    8  A    between atoms: C_22  and  C_23
REMARK                            x       y       z     vdW  Elec       q    Type
REMARK                         _______ _______ _______ _____ _____    ______ ____
ROOT
ATOM      1  C   UNL     1       2.384   4.907  18.930  0.00  0.00    +0.000 A 
ATOM      2  C   UNL     1       2.750   6.129  18.348  0.00  0.00    +0.000 A 
ATOM      3  C   UNL     1       2.448   7.350  18.960  0.00  0.00    +0.000 A 
ATOM      4  C   UNL     1       1.779   7.369  20.185  0.00  0.00    +0.000 A 
ATOM      5  C   UNL     1       1.442   6.160  20.799  0.00  0.00    +0.000 A 
ATOM      6  C   UNL     1       1.760   4.931  20.195  0.00  0.00    +0.000 A 
ATOM      7  C   UNL     1       1.379   3.652  20.896  0.00  0.00    +0.000 C 
ENDROOT
BRANCH   4   8
ATOM      8  C   UNL     1       1.359   8.641  20.836  0.00  0.00    +0.000 C 
ATOM      9  O   UNL     1       1.360   8.737  22.059  0.00  0.00    +0.000 OA
ATOM     10  N   UNL     1       0.993   9.670  20.002  0.00  0.00    +0.000 N 
ATOM     11  H   UNL     1       1.243   9.640  19.022  0.00  0.00    +0.000 HD
BRANCH  10  12
ATOM     12  C   UNL     1       0.636  10.964  20.536  0.00  0.00    +0.000 C 
BRANCH  12  13
ATOM     13  C   UNL     1      -0.680  11.358  19.976  0.00  0.00    +0.000 A 
ATOM     14  C   UNL     1      -1.700  12.163  20.440  0.00  0.00    +0.000 A 
ATOM     15  C   UNL     1      -2.705  12.149  19.444  0.00  0.00    +0.000 A 
ATOM     16  C   UNL     1      -2.239  11.336  18.440  0.00  0.00    +0.000 A 
ATOM     17  O   UNL     1      -1.010  10.847  18.752  0.00  0.00    +0.000 OA
ENDBRANCH  12  13
ENDBRANCH  10  12
ENDBRANCH   4   8
BRANCH   1  18
ATOM     18  N   UNL     1       2.654   3.674  18.336  0.00  0.00    +0.000 N 
ATOM     19  H   UNL     1       1.864   3.033  18.400  0.00  0.00    +0.000 HD
BRANCH  18  20
ATOM     20  C   UNL     1       3.923   2.981  18.587  0.00  0.00    +0.000 C 
BRANCH  20  25
ATOM     21  C   UNL     1       6.903   4.956  15.300  0.00  0.00    +0.000 C 
ATOM     22  C   UNL     1       6.442   4.619  16.655  0.00  0.00    +0.000 A 
ATOM     23  C   UNL     1       6.913   4.866  17.924  0.00  0.00    +0.000 A 
ATOM     24  N   UNL     1       6.069   4.313  18.853  0.00  0.00    +0.000 NA
ATOM     25  C   UNL     1       5.131   3.736  18.127  0.00  0.00    +0.000 A 
ATOM     26  O   UNL     1       5.288   3.896  16.770  0.00  0.00    +0.000 OA
ENDBRANCH  20  25
ENDBRANCH  18  20
ENDBRANCH   1  18
TORSDOF 6
ENDMDL
MODEL 9
REMARK VINA RESULT:      -7.2      3.168      8.675
REMARK  Name = 
REMARK  8 active torsions:
REMARK  status: ('A' for Active; 'I' for Inactive)
REMARK    1  A    between atoms: C_1  and  C_2
REMARK    2  A    between atoms: C_5  and  C_6
REMARK    3  A    between atoms: C_6  and  N_7
REMARK    4  A    between atoms: N_7  and  C_8
REMARK    5  A    between atoms: C_11  and  C_12
REMARK    6  A    between atoms: N_14  and  C_15
REMARK    7  A    between atoms: C_15  and  C_16
REMARK    8  A    between atoms: C_22  and  C_23
REMARK                            x       y       z     vdW  Elec       q    Type
REMARK                         _______ _______ _______ _____ _____    ______ ____
ROOT
ATOM      1  C   UNL     1       0.881   9.558  18.966  0.00  0.00    +0.000 A 
ATOM      2  C   UNL     1       1.436   9.026  17.793  0.00  0.00    +0.000 A 
ATOM      3  C   UNL     1       2.233   7.878  17.817  0.00  0.00    +0.000 A 
ATOM      4  C   UNL     1       2.482   7.226  19.026  0.00  0.00    +0.000 A 
ATOM      5  C   UNL     1       1.904   7.718  20.199  0.00  0.00    +0.000 A 
ATOM      6  C   UNL     1       1.088   8.863  20.176  0.00  0.00    +0.000 A 
ATOM      7  C   UNL     1       0.484   9.355  21.467  0.00  0.00    +0.000 C 
ENDROOT
BRANCH   4   8
ATOM      8  C   UNL     1       3.392   6.051  19.117  0.00  0.00    +0.000 C 
ATOM      9  O   UNL     1       3.216   5.201  19.983  0.00  0.00    +0.000 OA
ATOM     10  N   UNL     1       4.404   5.980  18.189  0.00  0.00    +0.000 N 
ATOM     11  H   UNL     1       4.364   6.549  17.354  0.00  0.00    +0.000 HD
BRANCH  10  12
ATOM     12  C   UNL     1       5.296   4.845  18.154  0.00  0.00    +0.000 C 
BRANCH  12  13
ATOM     13  C   UNL     1       5.821   4.700  16.775  0.00  0.00    +0.000 A 
ATOM     14  C   UNL     1       7.086   4.793  16.231  0.00  0.00    +0.000 A 
ATOM     15  C   UNL     1       6.944   4.552  14.843  0.00  0.00    +0.000 A 
ATOM     16  C   UNL     1       5.605   4.332  14.627  0.00  0.00    +0.000 A 
ATOM     17  O   UNL     1       4.911   4.421  15.792  0.00  0.00    +0.000 OA
ENDBRANCH  12  13
ENDBRANCH  10  12
ENDBRANCH   4   8
BRANCH   1  18
ATOM     18  N   UNL     1       0.097  10.712  18.979  0.00  0.00    +0.000 N 
ATOM     19  H   UNL     1       0.545  11.477  19.482  0.00  0.00    +0.000 HD
BRANCH  18  20
ATOM     20  C   UNL     1      -1.337  10.643  19.284  0.00  0.00    +0.000 C 
BRANCH  20  25
ATOM     21  C   UNL     1      -2.798   9.976  14.700  0.00  0.00    +0.000 C 
ATOM     22  C   UNL     1      -2.868  10.537  16.057  0.00  0.00    +0.000 A 
ATOM     23  C   UNL     1      -3.724  11.400  16.702  0.00  0.00    +0.000 A 
ATOM     24  N   UNL     1      -3.314  11.585  17.998  0.00  0.00    +0.000 NA
ATOM     25  C   UNL     1      -2.222  10.851  18.094  0.00  0.00    +0.000 A 
ATOM     26  O   UNL     1      -1.896  10.170  16.945  0.00  0.00    +0.000 OA
ENDBRANCH  20  25
ENDBRANCH  18  20
ENDBRANCH   1  18
TORSDOF 6
ENDMDL
