MODEL 1
REMARK VINA RESULT:      -5.9      0.000      0.000
REMARK  Name = 
REMARK  2 active torsions:
REMARK  status: ('A' for Active; 'I' for Inactive)
REMARK    1  A    between atoms: N_1  and  C_2
REMARK    2  A    between atoms: C_2  and  C_3
REMARK                            x       y       z     vdW  Elec       q    Type
REMARK                         _______ _______ _______ _____ _____    ______ ____
ROOT
ATOM      1  C   UNL     1       4.623   4.332  18.261  0.00  0.00    +0.000 C 
ATOM      2  C   UNL     1       4.825   4.337  16.716  0.00  0.00    +0.000 C 
ATOM      3  C   UNL     1       4.638   5.866  16.758  0.00  0.00    +0.000 C 
ATOM      4  C   UNL     1       5.080   5.820  18.233  0.00  0.00    +0.000 C 
ENDROOT
BRANCH   1   5
ATOM      5  C   UNL     1       3.252   3.900  18.911  0.00  0.00    +0.000 A 
ATOM      6  C   UNL     1       2.559   4.721  19.828  0.00  0.00    +0.000 A 
ATOM      7  C   UNL     1       1.321   4.357  20.372  0.00  0.00    +0.000 A 
ATOM      8  C   UNL     1       0.726   3.153  20.015  0.00  0.00    +0.000 A 
ATOM      9  C   UNL     1       1.375   2.316  19.115  0.00  0.00    +0.000 A 
ATOM     10  C   UNL     1       2.606   2.693  18.580  0.00  0.00    +0.000 A 
ATOM     11  F   UNL     1       3.175   1.868  17.686  0.00  0.00    +0.000 F 
ENDBRANCH   1   5
BRANCH   1  12
ATOM     12  N   UNL     1       5.717   3.541  18.835  0.00  0.00    +0.000 NA
ATOM     13  H   UNL     1       6.354   3.169  18.130  0.00  0.00    +0.000 HD
ATOM     14  H   UNL     1       5.379   2.726  19.349  0.00  0.00    +0.000 HD
ENDBRANCH   1  12
TORSDOF 2
ENDMDL
MODEL 2
REMARK VINA RESULT:      -5.9      2.608      3.458
REMARK  Name = 
REMARK  2 active torsions:
REMARK  status: ('A' for Active; 'I' for Inactive)
REMARK    1  A    between atoms: N_1  and  C_2
REMARK    2  A    between atoms: C_2  and  C_3
REMARK                            x       y       z     vdW  Elec       q    Type
REMARK                         _______ _______ _______ _____ _____    ______ ____
ROOT
ATOM      1  C   UNL     1       5.862   5.494  16.603  0.00  0.00    +0.000 C 
ATOM      2  C   UNL     1       6.895   6.073  17.617  0.00  0.00    +0.000 C 
ATOM      3  C   UNL     1       7.569   4.687  17.626  0.00  0.00    +0.000 C 
ATOM      4  C   UNL     1       6.948   4.441  16.238  0.00  0.00    +0.000 C 
ENDROOT
BRANCH   1   5
ATOM      5  C   UNL     1       4.414   5.064  17.059  0.00  0.00    +0.000 A 
ATOM      6  C   UNL     1       3.936   3.743  16.909  0.00  0.00    +0.000 A 
ATOM      7  C   UNL     1       2.667   3.350  17.353  0.00  0.00    +0.000 A 
ATOM      8  C   UNL     1       1.826   4.270  17.968  0.00  0.00    +0.000 A 
ATOM      9  C   UNL     1       2.257   5.580  18.135  0.00  0.00    +0.000 A 
ATOM     10  C   UNL     1       3.525   5.955  17.690  0.00  0.00    +0.000 A 
ATOM     11  F   UNL     1       3.911   7.222  17.908  0.00  0.00    +0.000 F 
ENDBRANCH   1   5
BRANCH   1  12
ATOM     12  N   UNL     1       5.771   6.445  15.491  0.00  0.00    +0.000 NA
ATOM     13  H   UNL     1       5.990   6.025  14.588  0.00  0.00    +0.000 HD
ATOM     14  H   UNL     1       6.426   7.223  15.590  0.00  0.00    +0.000 HD
ENDBRANCH   1  12
TORSDOF 2
ENDMDL
MODEL 3
REMARK VINA RESULT:      -5.8      1.760      4.392
REMARK  Name = 
REMARK  2 active torsions:
REMARK  status: ('A' for Active; 'I' for Inactive)
REMARK    1  A    between atoms: N_1  and  C_2
REMARK    2  A    between atoms: C_2  and  C_3
REMARK                            x       y       z     vdW  Elec       q    Type
REMARK                         _______ _______ _______ _____ _____    ______ ____
ROOT
ATOM      1  C   UNL     1       3.975   3.026  18.718  0.00  0.00    +0.000 C 
ATOM      2  C   UNL     1       2.641   3.121  19.518  0.00  0.00    +0.000 C 
ATOM      3  C   UNL     1       2.000   2.229  18.437  0.00  0.00    +0.000 C 
ATOM      4  C   UNL     1       3.413   1.704  18.117  0.00  0.00    +0.000 C 
ENDROOT
BRANCH   1   5
ATOM      5  C   UNL     1       4.470   4.208  17.798  0.00  0.00    +0.000 A 
ATOM      6  C   UNL     1       4.818   4.015  16.442  0.00  0.00    +0.000 A 
ATOM      7  C   UNL     1       5.216   5.071  15.613  0.00  0.00    +0.000 A 
ATOM      8  C   UNL     1       5.277   6.367  16.111  0.00  0.00    +0.000 A 
ATOM      9  C   UNL     1       4.942   6.600  17.439  0.00  0.00    +0.000 A 
ATOM     10  C   UNL     1       4.545   5.538  18.252  0.00  0.00    +0.000 A 
ATOM     11  F   UNL     1       4.195   5.820  19.517  0.00  0.00    +0.000 F 
ENDBRANCH   1   5
BRANCH   1  12
ATOM     12  N   UNL     1       5.026   2.668  19.676  0.00  0.00    +0.000 NA
ATOM     13  H   UNL     1       5.347   3.461  20.232  0.00  0.00    +0.000 HD
ATOM     14  H   UNL     1       5.863   2.306  19.217  0.00  0.00    +0.000 HD
ENDBRANCH   1  12
TORSDOF 2
ENDMDL
MODEL 4
REMARK VINA RESULT:      -5.8      2.214      3.037
REMARK  Name = 
REMARK  2 active torsions:
REMARK  status: ('A' for Active; 'I' for Inactive)
REMARK    1  A    between atoms: N_1  and  C_2
REMARK    2  A    between atoms: C_2  and  C_3
REMARK                            x       y       z     vdW  Elec       q    Type
REMARK                         _______ _______ _______ _____ _____    ______ ____
ROOT
ATOM      1  C   UNL     1       6.311   5.719  16.995  0.00  0.00    +0.000 C 
ATOM      2  C   UNL     1       7.061   6.977  17.528  0.00  0.00    +0.000 C 
ATOM      3  C   UNL     1       7.727   6.062  18.574  0.00  0.00    +0.000 C 
ATOM      4  C   UNL     1       7.465   4.881  17.620  0.00  0.00    +0.000 C 
ENDROOT
BRANCH   1   5
ATOM      5  C   UNL     1       4.801   5.444  17.357  0.00  0.00    +0.000 A 
ATOM      6  C   UNL     1       3.951   6.452  17.867  0.00  0.00    +0.000 A 
ATOM      7  C   UNL     1       2.599   6.220  18.148  0.00  0.00    +0.000 A 
ATOM      8  C   UNL     1       2.043   4.966  17.926  0.00  0.00    +0.000 A 
ATOM      9  C   UNL     1       2.844   3.947  17.425  0.00  0.00    +0.000 A 
ATOM     10  C   UNL     1       4.189   4.194  17.147  0.00  0.00    +0.000 A 
ATOM     11  F   UNL     1       4.912   3.188  16.630  0.00  0.00    +0.000 F 
ENDBRANCH   1   5
BRANCH   1  12
ATOM     12  N   UNL     1       6.485   5.699  15.539  0.00  0.00    +0.000 NA
ATOM     13  H   UNL     1       6.313   4.781  15.129  0.00  0.00    +0.000 HD
ATOM     14  H   UNL     1       7.435   5.945  15.257  0.00  0.00    +0.000 HD
ENDBRANCH   1  12
TORSDOF 2
ENDMDL
MODEL 5
REMARK VINA RESULT:      -5.8      1.445      1.659
REMARK  Name = 
REMARK  2 active torsions:
REMARK  status: ('A' for Active; 'I' for Inactive)
REMARK    1  A    between atoms: N_1  and  C_2
REMARK    2  A    between atoms: C_2  and  C_3
REMARK                            x       y       z     vdW  Elec       q    Type
REMARK                         _______ _______ _______ _____ _____    ______ ____
ROOT
ATOM      1  C   UNL     1       5.342   4.354  17.021  0.00  0.00    +0.000 C 
ATOM      2  C   UNL     1       5.895   3.773  15.684  0.00  0.00    +0.000 C 
ATOM      3  C   UNL     1       5.619   5.148  15.044  0.00  0.00    +0.000 C 
ATOM      4  C   UNL     1       5.710   5.757  16.457  0.00  0.00    +0.000 C 
ENDROOT
BRANCH   1   5
ATOM      5  C   UNL     1       3.884   4.021  17.523  0.00  0.00    +0.000 A 
ATOM      6  C   UNL     1       2.921   5.026  17.764  0.00  0.00    +0.000 A 
ATOM      7  C   UNL     1       1.613   4.728  18.169  0.00  0.00    +0.000 A 
ATOM      8  C   UNL     1       1.219   3.407  18.345  0.00  0.00    +0.000 A 
ATOM      9  C   UNL     1       2.136   2.388  18.117  0.00  0.00    +0.000 A 
ATOM     10  C   UNL     1       3.434   2.701  17.712  0.00  0.00    +0.000 A 
ATOM     11  F   UNL     1       4.272   1.680  17.469  0.00  0.00    +0.000 F 
ENDBRANCH   1   5
BRANCH   1  12
ATOM     12  N   UNL     1       6.316   4.025  18.067  0.00  0.00    +0.000 NA
ATOM     13  H   UNL     1       6.981   4.778  18.244  0.00  0.00    +0.000 HD
ATOM     14  H   UNL     1       6.887   3.214  17.826  0.00  0.00    +0.000 HD
ENDBRANCH   1  12
TORSDOF 2
ENDMDL
MODEL 6
REMARK VINA RESULT:      -5.8      1.466      4.051
REMARK  Name = 
REMARK  2 active torsions:
REMARK  status: ('A' for Active; 'I' for Inactive)
REMARK    1  A    between atoms: N_1  and  C_2
REMARK    2  A    between atoms: C_2  and  C_3
REMARK                            x       y       z     vdW  Elec       q    Type
REMARK                         _______ _______ _______ _____ _____    ______ ____
ROOT
ATOM      1  C   UNL     1       3.828   3.205  18.568  0.00  0.00    +0.000 C 
ATOM      2  C   UNL     1       2.645   3.251  19.581  0.00  0.00    +0.000 C 
ATOM      3  C   UNL     1       1.803   2.490  18.539  0.00  0.00    +0.000 C 
ATOM      4  C   UNL     1       3.123   1.966  17.942  0.00  0.00    +0.000 C 
ENDROOT
BRANCH   1   5
ATOM      5  C   UNL     1       4.216   4.462  17.697  0.00  0.00    +0.000 A 
ATOM      6  C   UNL     1       3.831   5.775  18.051  0.00  0.00    +0.000 A 
ATOM      7  C   UNL     1       4.211   6.895  17.303  0.00  0.00    +0.000 A 
ATOM      8  C   UNL     1       4.998   6.743  16.167  0.00  0.00    +0.000 A 
ATOM      9  C   UNL     1       5.400   5.470  15.784  0.00  0.00    +0.000 A 
ATOM     10  C   UNL     1       5.014   4.363  16.542  0.00  0.00    +0.000 A 
ATOM     11  F   UNL     1       5.459   3.158  16.152  0.00  0.00    +0.000 F 
ENDBRANCH   1   5
BRANCH   1  12
ATOM     12  N   UNL     1       5.004   2.726  19.300  0.00  0.00    +0.000 NA
ATOM     13  H   UNL     1       5.355   3.402  19.979  0.00  0.00    +0.000 HD
ATOM     14  H   UNL     1       5.794   2.530  18.683  0.00  0.00    +0.000 HD
ENDBRANCH   1  12
TORSDOF 2
ENDMDL
MODEL 7
REMARK VINA RESULT:      -5.8      1.730      2.253
REMARK  Name = 
REMARK  2 active torsions:
REMARK  status: ('A' for Active; 'I' for Inactive)
REMARK    1  A    between atoms: N_1  and  C_2
REMARK    2  A    between atoms: C_2  and  C_3
REMARK                            x       y       z     vdW  Elec       q    Type
REMARK                         _______ _______ _______ _____ _____    ______ ____
ROOT
ATOM      1  C   UNL     1       5.268   4.603  17.296  0.00  0.00    +0.000 C 
ATOM      2  C   UNL     1       5.535   4.118  15.838  0.00  0.00    +0.000 C 
ATOM      3  C   UNL     1       5.384   5.585  15.389  0.00  0.00    +0.000 C 
ATOM      4  C   UNL     1       5.762   6.001  16.823  0.00  0.00    +0.000 C 
ENDROOT
BRANCH   1   5
ATOM      5  C   UNL     1       3.860   4.412  17.982  0.00  0.00    +0.000 A 
ATOM      6  C   UNL     1       2.843   3.615  17.411  0.00  0.00    +0.000 A 
ATOM      7  C   UNL     1       1.609   3.411  18.041  0.00  0.00    +0.000 A 
ATOM      8  C   UNL     1       1.347   3.998  19.274  0.00  0.00    +0.000 A 
ATOM      9  C   UNL     1       2.321   4.788  19.871  0.00  0.00    +0.000 A 
ATOM     10  C   UNL     1       3.547   4.980  19.232  0.00  0.00    +0.000 A 
ATOM     11  F   UNL     1       4.469   5.722  19.866  0.00  0.00    +0.000 F 
ENDBRANCH   1   5
BRANCH   1  12
ATOM     12  N   UNL     1       6.316   4.022  18.141  0.00  0.00    +0.000 NA
ATOM     13  H   UNL     1       7.235   4.431  17.974  0.00  0.00    +0.000 HD
ATOM     14  H   UNL     1       6.435   3.020  17.980  0.00  0.00    +0.000 HD
ENDBRANCH   1  12
TORSDOF 2
ENDMDL
MODEL 8
REMARK VINA RESULT:      -5.8      1.903      4.062
REMARK  Name = 
REMARK  2 active torsions:
REMARK  status: ('A' for Active; 'I' for Inactive)
REMARK    1  A    between atoms: N_1  and  C_2
REMARK    2  A    between atoms: C_2  and  C_3
REMARK                            x       y       z     vdW  Elec       q    Type
REMARK                         _______ _______ _______ _____ _____    ______ ____
ROOT
ATOM      1  C   UNL     1       1.875   3.687  19.138  0.00  0.00    +0.000 C 
ATOM      2  C   UNL     1       2.531   2.650  20.099  0.00  0.00    +0.000 C 
ATOM      3  C   UNL     1       2.032   3.514  21.273  0.00  0.00    +0.000 C 
ATOM      4  C   UNL     1       0.947   4.066  20.330  0.00  0.00    +0.000 C 
ENDROOT
BRANCH   1   5
ATOM      5  C   UNL     1       2.737   4.773  18.386  0.00  0.00    +0.000 A 
ATOM      6  C   UNL     1       2.523   6.159  18.556  0.00  0.00    +0.000 A 
ATOM      7  C   UNL     1       3.316   7.123  17.922  0.00  0.00    +0.000 A 
ATOM      8  C   UNL     1       4.360   6.734  17.091  0.00  0.00    +0.000 A 
ATOM      9  C   UNL     1       4.605   5.380  16.896  0.00  0.00    +0.000 A 
ATOM     10  C   UNL     1       3.808   4.432  17.537  0.00  0.00    +0.000 A 
ATOM     11  F   UNL     1       4.108   3.137  17.348  0.00  0.00    +0.000 F 
ENDBRANCH   1   5
BRANCH   1  12
ATOM     12  N   UNL     1       1.072   2.932  18.171  0.00  0.00    +0.000 NA
ATOM     13  H   UNL     1       0.405   2.300  18.614  0.00  0.00    +0.000 HD
ATOM     14  H   UNL     1       1.646   2.338  17.570  0.00  0.00    +0.000 HD
ENDBRANCH   1  12
TORSDOF 2
ENDMDL
MODEL 9
REMARK VINA RESULT:      -5.8      1.565      1.681
REMARK  Name = 
REMARK  2 active torsions:
REMARK  status: ('A' for Active; 'I' for Inactive)
REMARK    1  A    between atoms: N_1  and  C_2
REMARK    2  A    between atoms: C_2  and  C_3
REMARK                            x       y       z     vdW  Elec       q    Type
REMARK                         _______ _______ _______ _____ _____    ______ ____
ROOT
ATOM      1  C   UNL     1       4.297   3.956  18.204  0.00  0.00    +0.000 C 
ATOM      2  C   UNL     1       4.124   5.120  17.183  0.00  0.00    +0.000 C 
ATOM      3  C   UNL     1       5.135   5.925  18.022  0.00  0.00    +0.000 C 
ATOM      4  C   UNL     1       5.681   4.582  18.543  0.00  0.00    +0.000 C 
ENDROOT
BRANCH   1   5
ATOM      5  C   UNL     1       3.221   3.673  19.322  0.00  0.00    +0.000 A 
ATOM      6  C   UNL     1       1.919   4.220  19.273  0.00  0.00    +0.000 A 
ATOM      7  C   UNL     1       0.949   3.935  20.243  0.00  0.00    +0.000 A 
ATOM      8  C   UNL     1       1.248   3.086  21.302  0.00  0.00    +0.000 A 
ATOM      9  C   UNL     1       2.517   2.527  21.387  0.00  0.00    +0.000 A 
ATOM     10  C   UNL     1       3.471   2.818  20.412  0.00  0.00    +0.000 A 
ATOM     11  F   UNL     1       4.670   2.224  20.518  0.00  0.00    +0.000 F 
ENDBRANCH   1   5
BRANCH   1  12
ATOM     12  N   UNL     1       4.539   2.735  17.427  0.00  0.00    +0.000 NA
ATOM     13  H   UNL     1       4.571   2.902  16.422  0.00  0.00    +0.000 HD
ATOM     14  H   UNL     1       3.806   2.037  17.561  0.00  0.00    +0.000 HD
ENDBRANCH   1  12
TORSDOF 2
ENDMDL
