MODEL 1
REMARK VINA RESULT:      -7.8      0.000      0.000
REMARK  Name = 
REMARK  6 active torsions:
REMARK  status: ('A' for Active; 'I' for Inactive)
REMARK    1  A    between atoms: C_1  and  C_2
REMARK    2  A    between atoms: C_7  and  C_8
REMARK    3  A    between atoms: N_10  and  C_11
REMARK    4  A    between atoms: C_16  and  C_17
REMARK    5  A    between atoms: N_22  and  C_23
REMARK    6  A    between atoms: C_23  and  C_24
REMARK                            x       y       z     vdW  Elec       q    Type
REMARK                         _______ _______ _______ _____ _____    ______ ____
ROOT
ATOM      1  C   UNL     1       1.815   4.522  20.254  0.00  0.00    +0.000 A 
ATOM      2  C   UNL     1       1.972   4.070  21.570  0.00  0.00    +0.000 A 
ATOM      3  C   UNL     1       2.268   2.733  21.850  0.00  0.00    +0.000 A 
ATOM      4  C   UNL     1       2.308   1.800  20.824  0.00  0.00    +0.000 A 
ATOM      5  C   UNL     1       2.147   2.223  19.508  0.00  0.00    +0.000 A 
ATOM      6  C   UNL     1       2.047   3.595  19.217  0.00  0.00    +0.000 A 
ENDROOT
BRANCH   6   7
ATOM      7  C   UNL     1       2.337   4.088  17.840  0.00  0.00    +0.000 C 
ATOM      8  O   UNL     1       1.379   4.287  17.090  0.00  0.00    +0.000 OA
ATOM      9  N   UNL     1       3.656   4.442  17.509  0.00  0.00    +0.000 N 
ATOM     10  C   UNL     1       3.914   5.025  16.186  0.00  0.00    +0.000 C 
ATOM     11  C   UNL     1       5.108   6.008  16.186  0.00  0.00    +0.000 C 
ATOM     12  N   UNL     1       6.356   5.522  16.819  0.00  0.00    +0.000 NA
ATOM     13  C   UNL     1       6.014   5.075  18.184  0.00  0.00    +0.000 C 
ATOM     14  C   UNL     1       4.857   4.066  18.271  0.00  0.00    +0.000 C 
BRANCH  12  15
ATOM     15  C   UNL     1       7.013   4.425  16.088  0.00  0.00    +0.000 C 
BRANCH  15  16
ATOM     16  C   UNL     1       6.997   4.483  14.573  0.00  0.00    +0.000 A 
ATOM     17  C   UNL     1       7.817   5.332  13.819  0.00  0.00    +0.000 A 
ATOM     18  C   UNL     1       7.814   5.264  12.420  0.00  0.00    +0.000 A 
ATOM     19  C   UNL     1       7.009   4.334  11.763  0.00  0.00    +0.000 A 
ATOM     20  C   UNL     1       6.221   3.457  12.503  0.00  0.00    +0.000 A 
ATOM     21  C   UNL     1       6.206   3.538  13.892  0.00  0.00    +0.000 A 
ENDBRANCH  15  16
ENDBRANCH  12  15
ENDBRANCH   6   7
BRANCH   1  24
ATOM     22  C   UNL     1       2.332   6.916  19.724  0.00  0.00    +0.000 C 
ATOM     23  O   UNL     1       3.554   6.816  19.745  0.00  0.00    +0.000 OA
ATOM     24  N   UNL     1       1.448   5.868  19.957  0.00  0.00    +0.000 N 
ATOM     25  H   UNL     1       0.463   6.084  20.097  0.00  0.00    +0.000 HD
BRANCH  22  32
ATOM     26  C   UNL     1       1.017   8.479  21.921  0.00  0.00    +0.000 C 
ATOM     27  C   UNL     1       1.103   8.988  20.505  0.00  0.00    +0.000 A 
ATOM     28  C   UNL     1       0.506  10.229  20.219  0.00  0.00    +0.000 A 
ATOM     29  C   UNL     1       0.539  10.757  18.930  0.00  0.00    +0.000 A 
ATOM     30  C   UNL     1       1.164  10.051  17.906  0.00  0.00    +0.000 A 
ATOM     31  C   UNL     1       1.758   8.810  18.169  0.00  0.00    +0.000 A 
ATOM     32  C   UNL     1       1.747   8.271  19.465  0.00  0.00    +0.000 A 
ENDBRANCH  22  32
ENDBRANCH   1  24
TORSDOF 5
ENDMDL
MODEL 2
REMARK VINA RESULT:      -7.7      0.369      1.256
REMARK  Name = 
REMARK  6 active torsions:
REMARK  status: ('A' for Active; 'I' for Inactive)
REMARK    1  A    between atoms: C_1  and  C_2
REMARK    2  A    between atoms: C_7  and  C_8
REMARK    3  A    between atoms: N_10  and  C_11
REMARK    4  A    between atoms: C_16  and  C_17
REMARK    5  A    between atoms: N_22  and  C_23
REMARK    6  A    between atoms: C_23  and  C_24
REMARK                            x       y       z     vdW  Elec       q    Type
REMARK                         _______ _______ _______ _____ _____    ______ ____
ROOT
ATOM      1  C   UNL     1       1.729   4.377  20.403  0.00  0.00    +0.000 A 
ATOM      2  C   UNL     1       1.871   3.847  21.691  0.00  0.00    +0.000 A 
ATOM      3  C   UNL     1       2.166   2.496  21.894  0.00  0.00    +0.000 A 
ATOM      4  C   UNL     1       2.221   1.626  20.815  0.00  0.00    +0.000 A 
ATOM      5  C   UNL     1       2.075   2.127  19.524  0.00  0.00    +0.000 A 
ATOM      6  C   UNL     1       1.975   3.514  19.315  0.00  0.00    +0.000 A 
ENDROOT
BRANCH   6   7
ATOM      7  C   UNL     1       2.280   4.088  17.973  0.00  0.00    +0.000 C 
ATOM      8  O   UNL     1       1.329   4.408  17.259  0.00  0.00    +0.000 OA
ATOM      9  N   UNL     1       3.617   4.376  17.646  0.00  0.00    +0.000 N 
ATOM     10  C   UNL     1       3.897   5.039  16.366  0.00  0.00    +0.000 C 
ATOM     11  C   UNL     1       5.155   5.936  16.418  0.00  0.00    +0.000 C 
ATOM     12  N   UNL     1       6.375   5.321  16.989  0.00  0.00    +0.000 NA
ATOM     13  C   UNL     1       6.021   4.795  18.323  0.00  0.00    +0.000 C 
ATOM     14  C   UNL     1       4.798   3.863  18.356  0.00  0.00    +0.000 C 
BRANCH  12  15
ATOM     15  C   UNL     1       6.945   4.240  16.167  0.00  0.00    +0.000 C 
BRANCH  15  16
ATOM     16  C   UNL     1       6.984   4.447  14.666  0.00  0.00    +0.000 A 
ATOM     17  C   UNL     1       7.858   5.334  14.025  0.00  0.00    +0.000 A 
ATOM     18  C   UNL     1       7.900   5.404  12.626  0.00  0.00    +0.000 A 
ATOM     19  C   UNL     1       7.086   4.573  11.857  0.00  0.00    +0.000 A 
ATOM     20  C   UNL     1       6.244   3.658  12.481  0.00  0.00    +0.000 A 
ATOM     21  C   UNL     1       6.184   3.604  13.870  0.00  0.00    +0.000 A 
ENDBRANCH  15  16
ENDBRANCH  12  15
ENDBRANCH   6   7
BRANCH   1  24
ATOM     22  C   UNL     1       2.246   6.791  19.980  0.00  0.00    +0.000 C 
ATOM     23  O   UNL     1       3.468   6.686  19.966  0.00  0.00    +0.000 OA
ATOM     24  N   UNL     1       1.362   5.737  20.182  0.00  0.00    +0.000 N 
ATOM     25  H   UNL     1       0.382   5.950  20.357  0.00  0.00    +0.000 HD
BRANCH  22  32
ATOM     26  C   UNL     1       2.556   8.283  17.396  0.00  0.00    +0.000 C 
ATOM     27  C   UNL     1       1.839   8.866  18.587  0.00  0.00    +0.000 A 
ATOM     28  C   UNL     1       1.335  10.174  18.470  0.00  0.00    +0.000 A 
ATOM     29  C   UNL     1       0.669  10.781  19.533  0.00  0.00    +0.000 A 
ATOM     30  C   UNL     1       0.501  10.091  20.730  0.00  0.00    +0.000 A 
ATOM     31  C   UNL     1       1.002   8.791  20.869  0.00  0.00    +0.000 A 
ATOM     32  C   UNL     1       1.662   8.160  19.803  0.00  0.00    +0.000 A 
ENDBRANCH  22  32
ENDBRANCH   1  24
TORSDOF 5
ENDMDL
MODEL 3
REMARK VINA RESULT:      -7.6      3.274      6.016
REMARK  Name = 
REMARK  6 active torsions:
REMARK  status: ('A' for Active; 'I' for Inactive)
REMARK    1  A    between atoms: C_1  and  C_2
REMARK    2  A    between atoms: C_7  and  C_8
REMARK    3  A    between atoms: N_10  and  C_11
REMARK    4  A    between atoms: C_16  and  C_17
REMARK    5  A    between atoms: N_22  and  C_23
REMARK    6  A    between atoms: C_23  and  C_24
REMARK                            x       y       z     vdW  Elec       q    Type
REMARK                         _______ _______ _______ _____ _____    ______ ____
ROOT
ATOM      1  C   UNL     1      -0.434   9.764  20.630  0.00  0.00    +0.000 A 
ATOM      2  C   UNL     1      -0.864  10.140  21.908  0.00  0.00    +0.000 A 
ATOM      3  C   UNL     1      -0.078   9.902  23.040  0.00  0.00    +0.000 A 
ATOM      4  C   UNL     1       1.107   9.189  22.926  0.00  0.00    +0.000 A 
ATOM      5  C   UNL     1       1.551   8.797  21.666  0.00  0.00    +0.000 A 
ATOM      6  C   UNL     1       0.858   9.209  20.515  0.00  0.00    +0.000 A 
ENDROOT
BRANCH   6   7
ATOM      7  C   UNL     1       1.543   9.205  19.191  0.00  0.00    +0.000 C 
ATOM      8  O   UNL     1       1.509  10.241  18.526  0.00  0.00    +0.000 OA
ATOM      9  N   UNL     1       2.313   8.086  18.829  0.00  0.00    +0.000 N 
ATOM     10  C   UNL     1       3.069   8.134  17.571  0.00  0.00    +0.000 C 
ATOM     11  C   UNL     1       4.365   7.292  17.618  0.00  0.00    +0.000 C 
ATOM     12  N   UNL     1       4.228   5.905  18.117  0.00  0.00    +0.000 NA
ATOM     13  C   UNL     1       3.571   5.973  19.437  0.00  0.00    +0.000 C 
ATOM     14  C   UNL     1       2.253   6.764  19.472  0.00  0.00    +0.000 C 
BRANCH  12  15
ATOM     15  C   UNL     1       3.459   5.020  17.227  0.00  0.00    +0.000 C 
BRANCH  15  16
ATOM     16  C   UNL     1       2.879   3.753  17.826  0.00  0.00    +0.000 A 
ATOM     17  C   UNL     1       3.658   2.695  18.311  0.00  0.00    +0.000 A 
ATOM     18  C   UNL     1       3.054   1.596  18.936  0.00  0.00    +0.000 A 
ATOM     19  C   UNL     1       1.670   1.555  19.102  0.00  0.00    +0.000 A 
ATOM     20  C   UNL     1       0.889   2.620  18.661  0.00  0.00    +0.000 A 
ATOM     21  C   UNL     1       1.485   3.701  18.020  0.00  0.00    +0.000 A 
ENDBRANCH  15  16
ENDBRANCH  12  15
ENDBRANCH   6   7
BRANCH   1  24
ATOM     22  C   UNL     1      -1.644  11.161  18.938  0.00  0.00    +0.000 C 
ATOM     23  O   UNL     1      -1.331  12.256  19.392  0.00  0.00    +0.000 OA
ATOM     24  N   UNL     1      -1.254   9.939  19.476  0.00  0.00    +0.000 N 
ATOM     25  H   UNL     1      -1.709   9.092  19.141  0.00  0.00    +0.000 HD
BRANCH  22  32
ATOM     26  C   UNL     1      -4.505  12.044  19.128  0.00  0.00    +0.000 C 
ATOM     27  C   UNL     1      -3.900  11.528  17.847  0.00  0.00    +0.000 A 
ATOM     28  C   UNL     1      -4.737  11.432  16.721  0.00  0.00    +0.000 A 
ATOM     29  C   UNL     1      -4.249  10.955  15.507  0.00  0.00    +0.000 A 
ATOM     30  C   UNL     1      -2.918  10.561  15.401  0.00  0.00    +0.000 A 
ATOM     31  C   UNL     1      -2.070  10.642  16.512  0.00  0.00    +0.000 A 
ATOM     32  C   UNL     1      -2.542  11.134  17.739  0.00  0.00    +0.000 A 
ENDBRANCH  22  32
ENDBRANCH   1  24
TORSDOF 5
ENDMDL
MODEL 4
REMARK VINA RESULT:      -7.1      2.286      8.020
REMARK  Name = 
REMARK  6 active torsions:
REMARK  status: ('A' for Active; 'I' for Inactive)
REMARK    1  A    between atoms: C_1  and  C_2
REMARK    2  A    between atoms: C_7  and  C_8
REMARK    3  A    between atoms: N_10  and  C_11
REMARK    4  A    between atoms: C_16  and  C_17
REMARK    5  A    between atoms: N_22  and  C_23
REMARK    6  A    between atoms: C_23  and  C_24
REMARK                            x       y       z     vdW  Elec       q    Type
REMARK                         _______ _______ _______ _____ _____    ______ ____
ROOT
ATOM      1  C   UNL     1       2.934   4.659  18.705  0.00  0.00    +0.000 A 
ATOM      2  C   UNL     1       2.462   3.461  19.255  0.00  0.00    +0.000 A 
ATOM      3  C   UNL     1       1.680   3.449  20.413  0.00  0.00    +0.000 A 
ATOM      4  C   UNL     1       1.443   4.629  21.104  0.00  0.00    +0.000 A 
ATOM      5  C   UNL     1       1.908   5.832  20.582  0.00  0.00    +0.000 A 
ATOM      6  C   UNL     1       2.523   5.861  19.318  0.00  0.00    +0.000 A 
ENDROOT
BRANCH   6   7
ATOM      7  C   UNL     1       2.603   7.140  18.557  0.00  0.00    +0.000 C 
ATOM      8  O   UNL     1       3.180   7.123  17.469  0.00  0.00    +0.000 OA
ATOM      9  N   UNL     1       1.898   8.259  19.034  0.00  0.00    +0.000 N 
ATOM     10  C   UNL     1       1.896   9.483  18.223  0.00  0.00    +0.000 C 
ATOM     11  C   UNL     1       0.604  10.315  18.395  0.00  0.00    +0.000 C 
ATOM     12  N   UNL     1       0.180  10.585  19.788  0.00  0.00    +0.000 NA
ATOM     13  C   UNL     1       0.091   9.286  20.483  0.00  0.00    +0.000 C 
ATOM     14  C   UNL     1       1.351   8.408  20.391  0.00  0.00    +0.000 C 
BRANCH  12  15
ATOM     15  C   UNL     1       1.083  11.482  20.528  0.00  0.00    +0.000 C 
BRANCH  15  16
ATOM     16  C   UNL     1       1.262  12.891  19.998  0.00  0.00    +0.000 A 
ATOM     17  C   UNL     1       2.482  13.398  19.534  0.00  0.00    +0.000 A 
ATOM     18  C   UNL     1       2.552  14.680  18.973  0.00  0.00    +0.000 A 
ATOM     19  C   UNL     1       1.400  15.457  18.850  0.00  0.00    +0.000 A 
ATOM     20  C   UNL     1       0.175  14.948  19.270  0.00  0.00    +0.000 A 
ATOM     21  C   UNL     1       0.108  13.684  19.848  0.00  0.00    +0.000 A 
ENDBRANCH  15  16
ENDBRANCH  12  15
ENDBRANCH   6   7
BRANCH   1  24
ATOM     22  C   UNL     1       5.135   4.334  17.554  0.00  0.00    +0.000 C 
ATOM     23  O   UNL     1       5.768   3.960  18.535  0.00  0.00    +0.000 OA
ATOM     24  N   UNL     1       3.788   4.681  17.564  0.00  0.00    +0.000 N 
ATOM     25  H   UNL     1       3.400   5.149  16.747  0.00  0.00    +0.000 HD
BRANCH  22  32
ATOM     26  C   UNL     1       7.269   6.410  17.184  0.00  0.00    +0.000 C 
ATOM     27  C   UNL     1       6.860   5.464  16.084  0.00  0.00    +0.000 A 
ATOM     28  C   UNL     1       7.492   5.603  14.835  0.00  0.00    +0.000 A 
ATOM     29  C   UNL     1       7.157   4.771  13.769  0.00  0.00    +0.000 A 
ATOM     30  C   UNL     1       6.183   3.790  13.933  0.00  0.00    +0.000 A 
ATOM     31  C   UNL     1       5.537   3.641  15.167  0.00  0.00    +0.000 A 
ATOM     32  C   UNL     1       5.873   4.461  16.255  0.00  0.00    +0.000 A 
ENDBRANCH  22  32
ENDBRANCH   1  24
TORSDOF 5
ENDMDL
MODEL 5
REMARK VINA RESULT:      -7.1      2.272      8.556
REMARK  Name = 
REMARK  6 active torsions:
REMARK  status: ('A' for Active; 'I' for Inactive)
REMARK    1  A    between atoms: C_1  and  C_2
REMARK    2  A    between atoms: C_7  and  C_8
REMARK    3  A    between atoms: N_10  and  C_11
REMARK    4  A    between atoms: C_16  and  C_17
REMARK    5  A    between atoms: N_22  and  C_23
REMARK    6  A    between atoms: C_23  and  C_24
REMARK                            x       y       z     vdW  Elec       q    Type
REMARK                         _______ _______ _______ _____ _____    ______ ____
ROOT
ATOM      1  C   UNL     1       3.014   4.216  18.917  0.00  0.00    +0.000 A 
ATOM      2  C   UNL     1       2.549   2.973  19.363  0.00  0.00    +0.000 A 
ATOM      3  C   UNL     1       1.785   2.856  20.528  0.00  0.00    +0.000 A 
ATOM      4  C   UNL     1       1.561   3.969  21.327  0.00  0.00    +0.000 A 
ATOM      5  C   UNL     1       2.020   5.215  20.909  0.00  0.00    +0.000 A 
ATOM      6  C   UNL     1       2.614   5.357  19.643  0.00  0.00    +0.000 A 
ENDROOT
BRANCH   6   7
ATOM      7  C   UNL     1       2.684   6.701  19.001  0.00  0.00    +0.000 C 
ATOM      8  O   UNL     1       3.340   6.805  17.962  0.00  0.00    +0.000 OA
ATOM      9  N   UNL     1       1.890   7.742  19.514  0.00  0.00    +0.000 N 
ATOM     10  C   UNL     1       1.885   9.030  18.811  0.00  0.00    +0.000 C 
ATOM     11  C   UNL     1       0.543   9.785  18.951  0.00  0.00    +0.000 C 
ATOM     12  N   UNL     1       0.004   9.913  20.324  0.00  0.00    +0.000 NA
ATOM     13  C   UNL     1      -0.068   8.555  20.899  0.00  0.00    +0.000 C 
ATOM     14  C   UNL     1       1.238   7.746  20.832  0.00  0.00    +0.000 C 
BRANCH  12  15
ATOM     15  C   UNL     1       0.803  10.781  21.205  0.00  0.00    +0.000 C 
BRANCH  15  16
ATOM     16  C   UNL     1       0.132  12.019  21.766  0.00  0.00    +0.000 A 
ATOM     17  C   UNL     1       0.426  13.322  21.344  0.00  0.00    +0.000 A 
ATOM     18  C   UNL     1      -0.301  14.412  21.843  0.00  0.00    +0.000 A 
ATOM     19  C   UNL     1      -1.340  14.207  22.750  0.00  0.00    +0.000 A 
ATOM     20  C   UNL     1      -1.669  12.913  23.145  0.00  0.00    +0.000 A 
ATOM     21  C   UNL     1      -0.933  11.833  22.668  0.00  0.00    +0.000 A 
ENDBRANCH  15  16
ENDBRANCH  12  15
ENDBRANCH   6   7
BRANCH   1  24
ATOM     22  C   UNL     1       5.229   4.168  17.748  0.00  0.00    +0.000 C 
ATOM     23  O   UNL     1       5.911   3.880  18.726  0.00  0.00    +0.000 OA
ATOM     24  N   UNL     1       3.849   4.342  17.768  0.00  0.00    +0.000 N 
ATOM     25  H   UNL     1       3.398   4.755  16.954  0.00  0.00    +0.000 HD
BRANCH  22  32
ATOM     26  C   UNL     1       7.171   6.427  17.394  0.00  0.00    +0.000 C 
ATOM     27  C   UNL     1       6.829   5.470  16.280  0.00  0.00    +0.000 A 
ATOM     28  C   UNL     1       7.429   5.687  15.027  0.00  0.00    +0.000 A 
ATOM     29  C   UNL     1       7.153   4.848  13.949  0.00  0.00    +0.000 A 
ATOM     30  C   UNL     1       6.269   3.784  14.106  0.00  0.00    +0.000 A 
ATOM     31  C   UNL     1       5.656   3.556  15.344  0.00  0.00    +0.000 A 
ATOM     32  C   UNL     1       5.935   4.383  16.444  0.00  0.00    +0.000 A 
ENDBRANCH  22  32
ENDBRANCH   1  24
TORSDOF 5
ENDMDL
MODEL 6
REMARK VINA RESULT:      -6.9      6.158      9.115
REMARK  Name = 
REMARK  6 active torsions:
REMARK  status: ('A' for Active; 'I' for Inactive)
REMARK    1  A    between atoms: C_1  and  C_2
REMARK    2  A    between atoms: C_7  and  C_8
REMARK    3  A    between atoms: N_10  and  C_11
REMARK    4  A    between atoms: C_16  and  C_17
REMARK    5  A    between atoms: N_22  and  C_23
REMARK    6  A    between atoms: C_23  and  C_24
REMARK                            x       y       z     vdW  Elec       q    Type
REMARK                         _______ _______ _______ _____ _____    ______ ____
ROOT
ATOM      1  C   UNL     1      -0.204  10.065  20.472  0.00  0.00    +0.000 A 
ATOM      2  C   UNL     1       0.487   9.034  21.120  0.00  0.00    +0.000 A 
ATOM      3  C   UNL     1       1.477   8.296  20.463  0.00  0.00    +0.000 A 
ATOM      4  C   UNL     1       1.719   8.505  19.113  0.00  0.00    +0.000 A 
ATOM      5  C   UNL     1       1.038   9.519  18.445  0.00  0.00    +0.000 A 
ATOM      6  C   UNL     1       0.191  10.385  19.156  0.00  0.00    +0.000 A 
ENDROOT
BRANCH   6   7
ATOM      7  C   UNL     1      -0.168  11.714  18.583  0.00  0.00    +0.000 C 
ATOM      8  O   UNL     1      -1.297  11.845  18.105  0.00  0.00    +0.000 OA
ATOM      9  N   UNL     1       0.726  12.787  18.742  0.00  0.00    +0.000 N 
ATOM     10  C   UNL     1       0.319  14.115  18.268  0.00  0.00    +0.000 C 
ATOM     11  C   UNL     1       0.942  15.264  19.092  0.00  0.00    +0.000 C 
ATOM     12  N   UNL     1       2.405  15.192  19.314  0.00  0.00    +0.000 NA
ATOM     13  C   UNL     1       2.697  13.872  19.907  0.00  0.00    +0.000 C 
ATOM     14  C   UNL     1       2.141  12.668  19.128  0.00  0.00    +0.000 C 
BRANCH  12  15
ATOM     15  C   UNL     1       3.208  15.376  18.094  0.00  0.00    +0.000 C 
BRANCH  15  16
ATOM     16  C   UNL     1       4.702  15.571  18.261  0.00  0.00    +0.000 A 
ATOM     17  C   UNL     1       5.662  14.668  17.786  0.00  0.00    +0.000 A 
ATOM     18  C   UNL     1       7.028  14.959  17.895  0.00  0.00    +0.000 A 
ATOM     19  C   UNL     1       7.446  16.165  18.459  0.00  0.00    +0.000 A 
ATOM     20  C   UNL     1       6.501  17.088  18.896  0.00  0.00    +0.000 A 
ATOM     21  C   UNL     1       5.145  16.790  18.810  0.00  0.00    +0.000 A 
ENDBRANCH  15  16
ENDBRANCH  12  15
ENDBRANCH   6   7
BRANCH   1  24
ATOM     22  C   UNL     1      -1.104  11.873  21.954  0.00  0.00    +0.000 C 
ATOM     23  O   UNL     1      -0.025  12.366  22.267  0.00  0.00    +0.000 OA
ATOM     24  N   UNL     1      -1.261  10.781  21.108  0.00  0.00    +0.000 N 
ATOM     25  H   UNL     1      -2.174  10.335  21.053  0.00  0.00    +0.000 HD
BRANCH  22  32
ATOM     26  C   UNL     1      -2.403  14.293  20.748  0.00  0.00    +0.000 C 
ATOM     27  C   UNL     1      -2.931  13.627  21.992  0.00  0.00    +0.000 A 
ATOM     28  C   UNL     1      -4.055  14.200  22.614  0.00  0.00    +0.000 A 
ATOM     29  C   UNL     1      -4.592  13.643  23.773  0.00  0.00    +0.000 A 
ATOM     30  C   UNL     1      -4.010  12.508  24.331  0.00  0.00    +0.000 A 
ATOM     31  C   UNL     1      -2.886  11.926  23.732  0.00  0.00    +0.000 A 
ATOM     32  C   UNL     1      -2.342  12.466  22.556  0.00  0.00    +0.000 A 
ENDBRANCH  22  32
ENDBRANCH   1  24
TORSDOF 5
ENDMDL
MODEL 7
REMARK VINA RESULT:      -6.9      7.669      9.908
REMARK  Name = 
REMARK  6 active torsions:
REMARK  status: ('A' for Active; 'I' for Inactive)
REMARK    1  A    between atoms: C_1  and  C_2
REMARK    2  A    between atoms: C_7  and  C_8
REMARK    3  A    between atoms: N_10  and  C_11
REMARK    4  A    between atoms: C_16  and  C_17
REMARK    5  A    between atoms: N_22  and  C_23
REMARK    6  A    between atoms: C_23  and  C_24
REMARK                            x       y       z     vdW  Elec       q    Type
REMARK                         _______ _______ _______ _____ _____    ______ ____
ROOT
ATOM      1  C   UNL     1      -1.066  11.451  22.224  0.00  0.00    +0.000 A 
ATOM      2  C   UNL     1      -0.626  10.466  23.117  0.00  0.00    +0.000 A 
ATOM      3  C   UNL     1      -0.048   9.277  22.663  0.00  0.00    +0.000 A 
ATOM      4  C   UNL     1       0.004   9.004  21.303  0.00  0.00    +0.000 A 
ATOM      5  C   UNL     1      -0.436   9.964  20.396  0.00  0.00    +0.000 A 
ATOM      6  C   UNL     1      -0.831  11.234  20.850  0.00  0.00    +0.000 A 
ENDROOT
BRANCH   6   7
ATOM      7  C   UNL     1      -0.855  12.389  19.907  0.00  0.00    +0.000 C 
ATOM      8  O   UNL     1      -1.927  12.660  19.363  0.00  0.00    +0.000 OA
ATOM      9  N   UNL     1       0.289  13.198  19.795  0.00  0.00    +0.000 N 
ATOM     10  C   UNL     1       0.221  14.393  18.945  0.00  0.00    +0.000 C 
ATOM     11  C   UNL     1       1.144  15.531  19.436  0.00  0.00    +0.000 C 
ATOM     12  N   UNL     1       2.545  15.156  19.734  0.00  0.00    +0.000 NA
ATOM     13  C   UNL     1       2.508  14.031  20.689  0.00  0.00    +0.000 C 
ATOM     14  C   UNL     1       1.637  12.838  20.261  0.00  0.00    +0.000 C 
BRANCH  12  15
ATOM     15  C   UNL     1       3.330  14.772  18.548  0.00  0.00    +0.000 C 
BRANCH  15  16
ATOM     16  C   UNL     1       4.731  15.338  18.422  0.00  0.00    +0.000 A 
ATOM     17  C   UNL     1       5.121  16.576  18.947  0.00  0.00    +0.000 A 
ATOM     18  C   UNL     1       6.456  16.993  18.871  0.00  0.00    +0.000 A 
ATOM     19  C   UNL     1       7.417  16.166  18.290  0.00  0.00    +0.000 A 
ATOM     20  C   UNL     1       7.051  14.915  17.802  0.00  0.00    +0.000 A 
ATOM     21  C   UNL     1       5.720  14.510  17.856  0.00  0.00    +0.000 A 
ENDBRANCH  15  16
ENDBRANCH  12  15
ENDBRANCH   6   7
BRANCH   1  24
ATOM     22  C   UNL     1      -2.894  12.687  23.410  0.00  0.00    +0.000 C 
ATOM     23  O   UNL     1      -3.529  11.704  23.778  0.00  0.00    +0.000 OA
ATOM     24  N   UNL     1      -1.717  12.639  22.671  0.00  0.00    +0.000 N 
ATOM     25  H   UNL     1      -1.364  13.501  22.260  0.00  0.00    +0.000 HD
BRANCH  22  32
ATOM     26  C   UNL     1      -4.954  14.003  21.672  0.00  0.00    +0.000 C 
ATOM     27  C   UNL     1      -4.395  14.663  22.906  0.00  0.00    +0.000 A 
ATOM     28  C   UNL     1      -4.845  15.960  23.215  0.00  0.00    +0.000 A 
ATOM     29  C   UNL     1      -4.365  16.634  24.336  0.00  0.00    +0.000 A 
ATOM     30  C   UNL     1      -3.424  16.026  25.162  0.00  0.00    +0.000 A 
ATOM     31  C   UNL     1      -2.957  14.739  24.867  0.00  0.00    +0.000 A 
ATOM     32  C   UNL     1      -3.442  14.040  23.751  0.00  0.00    +0.000 A 
ENDBRANCH  22  32
ENDBRANCH   1  24
TORSDOF 5
ENDMDL
MODEL 8
REMARK VINA RESULT:      -6.8      4.761      9.148
REMARK  Name = 
REMARK  6 active torsions:
REMARK  status: ('A' for Active; 'I' for Inactive)
REMARK    1  A    between atoms: C_1  and  C_2
REMARK    2  A    between atoms: C_7  and  C_8
REMARK    3  A    between atoms: N_10  and  C_11
REMARK    4  A    between atoms: C_16  and  C_17
REMARK    5  A    between atoms: N_22  and  C_23
REMARK    6  A    between atoms: C_23  and  C_24
REMARK                            x       y       z     vdW  Elec       q    Type
REMARK                         _______ _______ _______ _____ _____    ______ ____
ROOT
ATOM      1  C   UNL     1      -0.790  14.362  20.120  0.00  0.00    +0.000 A 
ATOM      2  C   UNL     1      -0.451  15.121  18.993  0.00  0.00    +0.000 A 
ATOM      3  C   UNL     1       0.857  15.564  18.779  0.00  0.00    +0.000 A 
ATOM      4  C   UNL     1       1.831  15.347  19.743  0.00  0.00    +0.000 A 
ATOM      5  C   UNL     1       1.517  14.602  20.876  0.00  0.00    +0.000 A 
ATOM      6  C   UNL     1       0.256  13.993  20.991  0.00  0.00    +0.000 A 
ENDROOT
BRANCH   6   7
ATOM      7  C   UNL     1       0.064  12.849  21.929  0.00  0.00    +0.000 C 
ATOM      8  O   UNL     1      -0.357  13.102  23.059  0.00  0.00    +0.000 OA
ATOM      9  N   UNL     1       0.223  11.539  21.445  0.00  0.00    +0.000 N 
ATOM     10  C   UNL     1      -0.071  10.419  22.346  0.00  0.00    +0.000 C 
ATOM     11  C   UNL     1      -0.581   9.165  21.599  0.00  0.00    +0.000 C 
ATOM     12  N   UNL     1       0.220   8.728  20.432  0.00  0.00    +0.000 NA
ATOM     13  C   UNL     1       0.354   9.888  19.528  0.00  0.00    +0.000 C 
ATOM     14  C   UNL     1       0.889  11.171  20.186  0.00  0.00    +0.000 C 
BRANCH  12  15
ATOM     15  C   UNL     1       1.555   8.213  20.778  0.00  0.00    +0.000 C 
BRANCH  15  16
ATOM     16  C   UNL     1       2.004   6.925  20.115  0.00  0.00    +0.000 A 
ATOM     17  C   UNL     1       1.743   5.651  20.634  0.00  0.00    +0.000 A 
ATOM     18  C   UNL     1       2.108   4.503  19.919  0.00  0.00    +0.000 A 
ATOM     19  C   UNL     1       2.717   4.619  18.670  0.00  0.00    +0.000 A 
ATOM     20  C   UNL     1       2.944   5.878  18.125  0.00  0.00    +0.000 A 
ATOM     21  C   UNL     1       2.603   7.020  18.844  0.00  0.00    +0.000 A 
ENDBRANCH  15  16
ENDBRANCH  12  15
ENDBRANCH   6   7
BRANCH   1  24
ATOM     22  C   UNL     1      -2.759  12.837  19.858  0.00  0.00    +0.000 C 
ATOM     23  O   UNL     1      -2.233  12.038  19.090  0.00  0.00    +0.000 OA
ATOM     24  N   UNL     1      -2.132  13.961  20.385  0.00  0.00    +0.000 N 
ATOM     25  H   UNL     1      -2.700  14.656  20.864  0.00  0.00    +0.000 HD
BRANCH  22  32
ATOM     26  C   UNL     1      -4.764  11.949  17.810  0.00  0.00    +0.000 C 
ATOM     27  C   UNL     1      -5.137  12.214  19.246  0.00  0.00    +0.000 A 
ATOM     28  C   UNL     1      -6.488  12.067  19.609  0.00  0.00    +0.000 A 
ATOM     29  C   UNL     1      -6.906  12.305  20.916  0.00  0.00    +0.000 A 
ATOM     30  C   UNL     1      -5.982  12.698  21.880  0.00  0.00    +0.000 A 
ATOM     31  C   UNL     1      -4.633  12.857  21.538  0.00  0.00    +0.000 A 
ATOM     32  C   UNL     1      -4.193  12.607  20.229  0.00  0.00    +0.000 A 
ENDBRANCH  22  32
ENDBRANCH   1  24
TORSDOF 5
ENDMDL
MODEL 9
REMARK VINA RESULT:      -6.8      7.439      9.695
REMARK  Name = 
REMARK  6 active torsions:
REMARK  status: ('A' for Active; 'I' for Inactive)
REMARK    1  A    between atoms: C_1  and  C_2
REMARK    2  A    between atoms: C_7  and  C_8
REMARK    3  A    between atoms: N_10  and  C_11
REMARK    4  A    between atoms: C_16  and  C_17
REMARK    5  A    between atoms: N_22  and  C_23
REMARK    6  A    between atoms: C_23  and  C_24
REMARK                            x       y       z     vdW  Elec       q    Type
REMARK                         _______ _______ _______ _____ _____    ______ ____
ROOT
ATOM      1  C   UNL     1      -0.955  11.164  22.105  0.00  0.00    +0.000 A 
ATOM      2  C   UNL     1      -0.440  10.260  23.041  0.00  0.00    +0.000 A 
ATOM      3  C   UNL     1       0.284   9.132  22.643  0.00  0.00    +0.000 A 
ATOM      4  C   UNL     1       0.417   8.832  21.294  0.00  0.00    +0.000 A 
ATOM      5  C   UNL     1      -0.094   9.711  20.344  0.00  0.00    +0.000 A 
ATOM      6  C   UNL     1      -0.647  10.940  20.747  0.00  0.00    +0.000 A 
ENDROOT
BRANCH   6   7
ATOM      7  C   UNL     1      -0.765  12.059  19.770  0.00  0.00    +0.000 C 
ATOM      8  O   UNL     1      -1.850  12.214  19.207  0.00  0.00    +0.000 OA
ATOM      9  N   UNL     1       0.300  12.968  19.645  0.00  0.00    +0.000 N 
ATOM     10  C   UNL     1       0.132  14.126  18.759  0.00  0.00    +0.000 C 
ATOM     11  C   UNL     1       0.939  15.360  19.224  0.00  0.00    +0.000 C 
ATOM     12  N   UNL     1       2.365  15.126  19.548  0.00  0.00    +0.000 NA
ATOM     13  C   UNL     1       2.420  14.030  20.536  0.00  0.00    +0.000 C 
ATOM     14  C   UNL     1       1.670  12.749  20.135  0.00  0.00    +0.000 C 
BRANCH  12  15
ATOM     15  C   UNL     1       3.198  14.783  18.383  0.00  0.00    +0.000 C 
BRANCH  15  16
ATOM     16  C   UNL     1       4.600  15.356  18.329  0.00  0.00    +0.000 A 
ATOM     17  C   UNL     1       4.953  16.599  18.870  0.00  0.00    +0.000 A 
ATOM     18  C   UNL     1       6.288  17.023  18.865  0.00  0.00    +0.000 A 
ATOM     19  C   UNL     1       7.284  16.201  18.339  0.00  0.00    +0.000 A 
ATOM     20  C   UNL     1       6.952  14.947  17.836  0.00  0.00    +0.000 A 
ATOM     21  C   UNL     1       5.623  14.534  17.820  0.00  0.00    +0.000 A 
ENDBRANCH  15  16
ENDBRANCH  12  15
ENDBRANCH   6   7
BRANCH   1  24
ATOM     22  C   UNL     1      -1.266  13.522  22.894  0.00  0.00    +0.000 C 
ATOM     23  O   UNL     1      -0.078  13.818  22.965  0.00  0.00    +0.000 OA
ATOM     24  N   UNL     1      -1.751  12.282  22.493  0.00  0.00    +0.000 N 
ATOM     25  H   UNL     1      -2.737  12.074  22.639  0.00  0.00    +0.000 HD
BRANCH  22  32
ATOM     26  C   UNL     1      -2.549  15.316  20.860  0.00  0.00    +0.000 C 
ATOM     27  C   UNL     1      -2.847  15.419  22.334  0.00  0.00    +0.000 A 
ATOM     28  C   UNL     1      -3.737  16.425  22.752  0.00  0.00    +0.000 A 
ATOM     29  C   UNL     1      -4.052  16.585  24.100  0.00  0.00    +0.000 A 
ATOM     30  C   UNL     1      -3.479  15.746  25.051  0.00  0.00    +0.000 A 
ATOM     31  C   UNL     1      -2.585  14.742  24.656  0.00  0.00    +0.000 A 
ATOM     32  C   UNL     1      -2.268  14.559  23.301  0.00  0.00    +0.000 A 
ENDBRANCH  22  32
ENDBRANCH   1  24
TORSDOF 5
ENDMDL
