MODEL 1
REMARK VINA RESULT:      -6.8      0.000      0.000
REMARK  Name = 
REMARK  7 active torsions:
REMARK  status: ('A' for Active; 'I' for Inactive)
REMARK    1  A    between atoms: C_1  and  C_2
REMARK    2  A    between atoms: C_2  and  C_3
REMARK    3  A    between atoms: C_3  and  C_4
REMARK    4  A    between atoms: C_10  and  O_11
REMARK    5  A    between atoms: O_11  and  C_12
REMARK    6  A    between atoms: N_14  and  C_15
REMARK    7  A    between atoms: N_14  and  C_16
REMARK                            x       y       z     vdW  Elec       q    Type
REMARK                         _______ _______ _______ _____ _____    ______ ____
ROOT
ATOM      1  C   UNL     1       0.285   9.828  20.361  0.00  0.00    +0.000 A 
ATOM      2  C   UNL     1       0.281   8.837  21.340  0.00  0.00    +0.000 A 
ATOM      3  C   UNL     1       1.035   7.670  21.173  0.00  0.00    +0.000 A 
ATOM      4  C   UNL     1       1.835   7.453  20.026  0.00  0.00    +0.000 A 
ATOM      5  C   UNL     1       2.589   6.269  19.775  0.00  0.00    +0.000 A 
ATOM      6 CL   UNL     1       2.485   4.908  20.854  0.00  0.00    +0.000 Cl
ATOM      7  C   UNL     1       3.397   6.162  18.632  0.00  0.00    +0.000 A 
ATOM      8  C   UNL     1       3.432   7.194  17.697  0.00  0.00    +0.000 A 
ATOM      9  C   UNL     1       2.679   8.347  17.918  0.00  0.00    +0.000 A 
ATOM     10  C   UNL     1       1.879   8.489  19.063  0.00  0.00    +0.000 A 
ATOM     11  C   UNL     1       1.107   9.656  19.241  0.00  0.00    +0.000 A 
ENDROOT
BRANCH   1  12
ATOM     12  C   UNL     1      -0.590  11.053  20.509  0.00  0.00    +0.000 C 
BRANCH  12  14
ATOM     13  C   UNL     1      -1.609  11.921  22.689  0.00  0.00    +0.000 C 
ATOM     14  C   UNL     1      -0.366  11.830  21.813  0.00  0.00    +0.000 C 
ENDBRANCH  12  14
ENDBRANCH   1  12
BRANCH   7  15
ATOM     15  O   UNL     1       4.092   4.951  18.398  0.00  0.00    +0.000 OA
BRANCH  15  16
ATOM     16  C   UNL     1       5.475   4.859  18.585  0.00  0.00    +0.000 C 
ATOM     17  O   UNL     1       6.029   5.027  19.667  0.00  0.00    +0.000 OA
ATOM     18  N   UNL     1       6.164   4.566  17.414  0.00  0.00    +0.000 N 
ATOM     19  C   UNL     1       5.527   4.493  16.110  0.00  0.00    +0.000 C 
ATOM     20  C   UNL     1       7.615   4.556  17.432  0.00  0.00    +0.000 C 
ENDBRANCH  15  16
ENDBRANCH   7  15
TORSDOF 4
ENDMDL
MODEL 2
REMARK VINA RESULT:      -6.8      0.766      1.263
REMARK  Name = 
REMARK  7 active torsions:
REMARK  status: ('A' for Active; 'I' for Inactive)
REMARK    1  A    between atoms: C_1  and  C_2
REMARK    2  A    between atoms: C_2  and  C_3
REMARK    3  A    between atoms: C_3  and  C_4
REMARK    4  A    between atoms: C_10  and  O_11
REMARK    5  A    between atoms: O_11  and  C_12
REMARK    6  A    between atoms: N_14  and  C_15
REMARK    7  A    between atoms: N_14  and  C_16
REMARK                            x       y       z     vdW  Elec       q    Type
REMARK                         _______ _______ _______ _____ _____    ______ ____
ROOT
ATOM      1  C   UNL     1       0.360   9.978  20.128  0.00  0.00    +0.000 A 
ATOM      2  C   UNL     1       0.332   9.054  21.171  0.00  0.00    +0.000 A 
ATOM      3  C   UNL     1       1.067   7.866  21.086  0.00  0.00    +0.000 A 
ATOM      4  C   UNL     1       1.873   7.561  19.963  0.00  0.00    +0.000 A 
ATOM      5  C   UNL     1       2.608   6.351  19.797  0.00  0.00    +0.000 A 
ATOM      6 CL   UNL     1       2.473   5.066  20.962  0.00  0.00    +0.000 Cl
ATOM      7  C   UNL     1       3.423   6.157  18.670  0.00  0.00    +0.000 A 
ATOM      8  C   UNL     1       3.483   7.124  17.670  0.00  0.00    +0.000 A 
ATOM      9  C   UNL     1       2.747   8.302  17.809  0.00  0.00    +0.000 A 
ATOM     10  C   UNL     1       1.941   8.531  18.935  0.00  0.00    +0.000 A 
ATOM     11  C   UNL     1       1.188   9.720  19.029  0.00  0.00    +0.000 A 
ENDROOT
BRANCH   1  12
ATOM     12  C   UNL     1      -0.495  11.224  20.189  0.00  0.00    +0.000 C 
BRANCH  12  14
ATOM     13  C   UNL     1      -1.413  12.083  17.961  0.00  0.00    +0.000 C 
ATOM     14  C   UNL     1      -1.666  11.230  19.199  0.00  0.00    +0.000 C 
ENDBRANCH  12  14
ENDBRANCH   1  12
BRANCH   7  15
ATOM     15  O   UNL     1       4.099   4.921  18.522  0.00  0.00    +0.000 OA
BRANCH  15  16
ATOM     16  C   UNL     1       5.489   4.834  18.652  0.00  0.00    +0.000 C 
ATOM     17  O   UNL     1       6.089   5.037  19.702  0.00  0.00    +0.000 OA
ATOM     18  N   UNL     1       6.126   4.501  17.462  0.00  0.00    +0.000 N 
ATOM     19  C   UNL     1       5.433   4.386  16.190  0.00  0.00    +0.000 C 
ATOM     20  C   UNL     1       7.577   4.490  17.416  0.00  0.00    +0.000 C 
ENDBRANCH  15  16
ENDBRANCH   7  15
TORSDOF 4
ENDMDL
MODEL 3
REMARK VINA RESULT:      -6.6      2.296      3.467
REMARK  Name = 
REMARK  7 active torsions:
REMARK  status: ('A' for Active; 'I' for Inactive)
REMARK    1  A    between atoms: C_1  and  C_2
REMARK    2  A    between atoms: C_2  and  C_3
REMARK    3  A    between atoms: C_3  and  C_4
REMARK    4  A    between atoms: C_10  and  O_11
REMARK    5  A    between atoms: O_11  and  C_12
REMARK    6  A    between atoms: N_14  and  C_15
REMARK    7  A    between atoms: N_14  and  C_16
REMARK                            x       y       z     vdW  Elec       q    Type
REMARK                         _______ _______ _______ _____ _____    ______ ____
ROOT
ATOM      1  C   UNL     1       1.730   6.576  20.365  0.00  0.00    +0.000 A 
ATOM      2  C   UNL     1       1.752   5.197  20.566  0.00  0.00    +0.000 A 
ATOM      3  C   UNL     1       2.493   4.368  19.716  0.00  0.00    +0.000 A 
ATOM      4  C   UNL     1       3.254   4.885  18.641  0.00  0.00    +0.000 A 
ATOM      5  C   UNL     1       3.992   4.092  17.714  0.00  0.00    +0.000 A 
ATOM      6 CL   UNL     1       3.915   2.354  17.778  0.00  0.00    +0.000 Cl
ATOM      7  C   UNL     1       4.762   4.695  16.707  0.00  0.00    +0.000 A 
ATOM      8  C   UNL     1       4.773   6.081  16.566  0.00  0.00    +0.000 A 
ATOM      9  C   UNL     1       4.034   6.867  17.450  0.00  0.00    +0.000 A 
ATOM     10  C   UNL     1       3.273   6.291  18.479  0.00  0.00    +0.000 A 
ATOM     11  C   UNL     1       2.514   7.114  19.338  0.00  0.00    +0.000 A 
ENDROOT
BRANCH   1  12
ATOM     12  C   UNL     1       0.868   7.461  21.238  0.00  0.00    +0.000 C 
BRANCH  12  14
ATOM     13  C   UNL     1       0.004   9.719  20.401  0.00  0.00    +0.000 C 
ATOM     14  C   UNL     1       1.142   8.961  21.074  0.00  0.00    +0.000 C 
ENDBRANCH  12  14
ENDBRANCH   1  12
BRANCH   7  15
ATOM     15  O   UNL     1       5.441   3.869  15.779  0.00  0.00    +0.000 OA
BRANCH  15  16
ATOM     16  C   UNL     1       6.589   4.313  15.116  0.00  0.00    +0.000 C 
ATOM     17  O   UNL     1       7.579   4.757  15.689  0.00  0.00    +0.000 OA
ATOM     18  N   UNL     1       6.492   4.211  13.732  0.00  0.00    +0.000 N 
ATOM     19  C   UNL     1       5.277   3.808  13.046  0.00  0.00    +0.000 C 
ATOM     20  C   UNL     1       7.560   4.744  12.907  0.00  0.00    +0.000 C 
ENDBRANCH  15  16
ENDBRANCH   7  15
TORSDOF 4
ENDMDL
MODEL 4
REMARK VINA RESULT:      -6.6      4.490      8.047
REMARK  Name = 
REMARK  7 active torsions:
REMARK  status: ('A' for Active; 'I' for Inactive)
REMARK    1  A    between atoms: C_1  and  C_2
REMARK    2  A    between atoms: C_2  and  C_3
REMARK    3  A    between atoms: C_3  and  C_4
REMARK    4  A    between atoms: C_10  and  O_11
REMARK    5  A    between atoms: O_11  and  C_12
REMARK    6  A    between atoms: N_14  and  C_15
REMARK    7  A    between atoms: N_14  and  C_16
REMARK                            x       y       z     vdW  Elec       q    Type
REMARK                         _______ _______ _______ _____ _____    ______ ____
ROOT
ATOM      1  C   UNL     1       6.349   4.170  14.159  0.00  0.00    +0.000 A 
ATOM      2  C   UNL     1       7.360   4.555  15.037  0.00  0.00    +0.000 A 
ATOM      3  C   UNL     1       7.077   4.786  16.388  0.00  0.00    +0.000 A 
ATOM      4  C   UNL     1       5.774   4.628  16.919  0.00  0.00    +0.000 A 
ATOM      5  C   UNL     1       5.412   4.892  18.272  0.00  0.00    +0.000 A 
ATOM      6 CL   UNL     1       6.572   5.558  19.385  0.00  0.00    +0.000 Cl
ATOM      7  C   UNL     1       4.103   4.657  18.723  0.00  0.00    +0.000 A 
ATOM      8  C   UNL     1       3.124   4.213  17.838  0.00  0.00    +0.000 A 
ATOM      9  C   UNL     1       3.459   3.977  16.504  0.00  0.00    +0.000 A 
ATOM     10  C   UNL     1       4.765   4.183  16.032  0.00  0.00    +0.000 A 
ATOM     11  C   UNL     1       5.063   3.961  14.671  0.00  0.00    +0.000 A 
ENDROOT
BRANCH   1  12
ATOM     12  C   UNL     1       6.643   3.996  12.685  0.00  0.00    +0.000 C 
BRANCH  12  14
ATOM     13  C   UNL     1       5.923   1.859  11.477  0.00  0.00    +0.000 C 
ATOM     14  C   UNL     1       5.538   3.269  11.907  0.00  0.00    +0.000 C 
ENDBRANCH  12  14
ENDBRANCH   1  12
BRANCH   7  15
ATOM     15  O   UNL     1       3.775   4.977  20.063  0.00  0.00    +0.000 OA
BRANCH  15  16
ATOM     16  C   UNL     1       2.557   4.584  20.625  0.00  0.00    +0.000 C 
ATOM     17  O   UNL     1       1.605   5.341  20.787  0.00  0.00    +0.000 OA
ATOM     18  N   UNL     1       2.536   3.244  20.995  0.00  0.00    +0.000 N 
ATOM     19  C   UNL     1       3.700   2.378  20.924  0.00  0.00    +0.000 C 
ATOM     20  C   UNL     1       1.379   2.723  21.700  0.00  0.00    +0.000 C 
ENDBRANCH  15  16
ENDBRANCH   7  15
TORSDOF 4
ENDMDL
MODEL 5
REMARK VINA RESULT:      -6.5      3.912      7.122
REMARK  Name = 
REMARK  7 active torsions:
REMARK  status: ('A' for Active; 'I' for Inactive)
REMARK    1  A    between atoms: C_1  and  C_2
REMARK    2  A    between atoms: C_2  and  C_3
REMARK    3  A    between atoms: C_3  and  C_4
REMARK    4  A    between atoms: C_10  and  O_11
REMARK    5  A    between atoms: O_11  and  C_12
REMARK    6  A    between atoms: N_14  and  C_15
REMARK    7  A    between atoms: N_14  and  C_16
REMARK                            x       y       z     vdW  Elec       q    Type
REMARK                         _______ _______ _______ _____ _____    ______ ____
ROOT
ATOM      1  C   UNL     1       3.406   5.399  18.960  0.00  0.00    +0.000 A 
ATOM      2  C   UNL     1       2.775   5.363  20.202  0.00  0.00    +0.000 A 
ATOM      3  C   UNL     1       2.015   6.451  20.644  0.00  0.00    +0.000 A 
ATOM      4  C   UNL     1       1.843   7.614  19.856  0.00  0.00    +0.000 A 
ATOM      5  C   UNL     1       1.120   8.773  20.267  0.00  0.00    +0.000 A 
ATOM      6 CL   UNL     1       0.465   8.884  21.875  0.00  0.00    +0.000 Cl
ATOM      7  C   UNL     1       0.957   9.862  19.397  0.00  0.00    +0.000 A 
ATOM      8  C   UNL     1       1.547   9.848  18.135  0.00  0.00    +0.000 A 
ATOM      9  C   UNL     1       2.279   8.732  17.731  0.00  0.00    +0.000 A 
ATOM     10  C   UNL     1       2.439   7.620  18.573  0.00  0.00    +0.000 A 
ATOM     11  C   UNL     1       3.210   6.519  18.144  0.00  0.00    +0.000 A 
ENDROOT
BRANCH   1  12
ATOM     12  C   UNL     1       4.290   4.253  18.518  0.00  0.00    +0.000 C 
BRANCH  12  14
ATOM     13  C   UNL     1       2.471   2.922  17.309  0.00  0.00    +0.000 C 
ATOM     14  C   UNL     1       3.841   3.582  17.214  0.00  0.00    +0.000 C 
ENDBRANCH  12  14
ENDBRANCH   1  12
BRANCH   7  15
ATOM     15  O   UNL     1       0.273  11.011  19.862  0.00  0.00    +0.000 OA
BRANCH  15  16
ATOM     16  C   UNL     1       0.961  12.186  20.184  0.00  0.00    +0.000 C 
ATOM     17  O   UNL     1       1.771  12.273  21.101  0.00  0.00    +0.000 OA
ATOM     18  N   UNL     1       0.625  13.255  19.360  0.00  0.00    +0.000 N 
ATOM     19  C   UNL     1      -0.425  13.192  18.358  0.00  0.00    +0.000 C 
ATOM     20  C   UNL     1       1.172  14.568  19.650  0.00  0.00    +0.000 C 
ENDBRANCH  15  16
ENDBRANCH   7  15
TORSDOF 4
ENDMDL
MODEL 6
REMARK VINA RESULT:      -6.5      1.200      1.544
REMARK  Name = 
REMARK  7 active torsions:
REMARK  status: ('A' for Active; 'I' for Inactive)
REMARK    1  A    between atoms: C_1  and  C_2
REMARK    2  A    between atoms: C_2  and  C_3
REMARK    3  A    between atoms: C_3  and  C_4
REMARK    4  A    between atoms: C_10  and  O_11
REMARK    5  A    between atoms: O_11  and  C_12
REMARK    6  A    between atoms: N_14  and  C_15
REMARK    7  A    between atoms: N_14  and  C_16
REMARK                            x       y       z     vdW  Elec       q    Type
REMARK                         _______ _______ _______ _____ _____    ______ ____
ROOT
ATOM      1  C   UNL     1       0.133  10.362  21.241  0.00  0.00    +0.000 A 
ATOM      2  C   UNL     1       0.362   9.250  22.048  0.00  0.00    +0.000 A 
ATOM      3  C   UNL     1       1.049   8.138  21.547  0.00  0.00    +0.000 A 
ATOM      4  C   UNL     1       1.549   8.100  20.223  0.00  0.00    +0.000 A 
ATOM      5  C   UNL     1       2.215   6.983  19.640  0.00  0.00    +0.000 A 
ATOM      6 CL   UNL     1       2.370   5.488  20.515  0.00  0.00    +0.000 Cl
ATOM      7  C   UNL     1       2.724   7.054  18.333  0.00  0.00    +0.000 A 
ATOM      8  C   UNL     1       2.537   8.203  17.568  0.00  0.00    +0.000 A 
ATOM      9  C   UNL     1       1.863   9.293  18.118  0.00  0.00    +0.000 A 
ATOM     10  C   UNL     1       1.363   9.256  19.429  0.00  0.00    +0.000 A 
ATOM     11  C   UNL     1       0.661  10.366  19.944  0.00  0.00    +0.000 A 
ENDROOT
BRANCH   1  12
ATOM     12  C   UNL     1      -0.675  11.530  21.761  0.00  0.00    +0.000 C 
BRANCH  12  14
ATOM     13  C   UNL     1      -2.680  12.098  23.245  0.00  0.00    +0.000 C 
ATOM     14  C   UNL     1      -1.436  11.237  23.060  0.00  0.00    +0.000 C 
ENDBRANCH  12  14
ENDBRANCH   1  12
BRANCH   7  15
ATOM     15  O   UNL     1       3.337   5.906  17.776  0.00  0.00    +0.000 OA
BRANCH  15  16
ATOM     16  C   UNL     1       4.630   5.959  17.246  0.00  0.00    +0.000 C 
ATOM     17  O   UNL     1       4.954   6.679  16.306  0.00  0.00    +0.000 OA
ATOM     18  N   UNL     1       5.516   5.100  17.888  0.00  0.00    +0.000 N 
ATOM     19  C   UNL     1       5.110   4.155  18.913  0.00  0.00    +0.000 C 
ATOM     20  C   UNL     1       6.865   4.960  17.370  0.00  0.00    +0.000 C 
ENDBRANCH  15  16
ENDBRANCH   7  15
TORSDOF 4
ENDMDL
MODEL 7
REMARK VINA RESULT:      -6.5      1.262      1.977
REMARK  Name = 
REMARK  7 active torsions:
REMARK  status: ('A' for Active; 'I' for Inactive)
REMARK    1  A    between atoms: C_1  and  C_2
REMARK    2  A    between atoms: C_2  and  C_3
REMARK    3  A    between atoms: C_3  and  C_4
REMARK    4  A    between atoms: C_10  and  O_11
REMARK    5  A    between atoms: O_11  and  C_12
REMARK    6  A    between atoms: N_14  and  C_15
REMARK    7  A    between atoms: N_14  and  C_16
REMARK                            x       y       z     vdW  Elec       q    Type
REMARK                         _______ _______ _______ _____ _____    ______ ____
ROOT
ATOM      1  C   UNL     1       0.546   9.881  20.248  0.00  0.00    +0.000 A 
ATOM      2  C   UNL     1       1.074  10.116  18.980  0.00  0.00    +0.000 A 
ATOM      3  C   UNL     1       1.873   9.152  18.354  0.00  0.00    +0.000 A 
ATOM      4  C   UNL     1       2.164   7.909  18.963  0.00  0.00    +0.000 A 
ATOM      5  C   UNL     1       3.006   6.906  18.399  0.00  0.00    +0.000 A 
ATOM      6 CL   UNL     1       3.857   7.200  16.910  0.00  0.00    +0.000 Cl
ATOM      7  C   UNL     1       3.197   5.679  19.053  0.00  0.00    +0.000 A 
ATOM      8  C   UNL     1       2.606   5.444  20.293  0.00  0.00    +0.000 A 
ATOM      9  C   UNL     1       1.801   6.427  20.868  0.00  0.00    +0.000 A 
ATOM     10  C   UNL     1       1.577   7.654  20.225  0.00  0.00    +0.000 A 
ATOM     11  C   UNL     1       0.780   8.638  20.849  0.00  0.00    +0.000 A 
ENDROOT
BRANCH   1  12
ATOM     12  C   UNL     1      -0.254  10.954  20.954  0.00  0.00    +0.000 C 
BRANCH  12  14
ATOM     13  C   UNL     1      -1.686  11.526  22.994  0.00  0.00    +0.000 C 
ATOM     14  C   UNL     1      -0.619  10.611  22.403  0.00  0.00    +0.000 C 
ENDBRANCH  12  14
ENDBRANCH   1  12
BRANCH   7  15
ATOM     15  O   UNL     1       4.078   4.730  18.481  0.00  0.00    +0.000 OA
BRANCH  15  16
ATOM     16  C   UNL     1       5.462   4.826  18.658  0.00  0.00    +0.000 C 
ATOM     17  O   UNL     1       5.992   5.230  19.688  0.00  0.00    +0.000 OA
ATOM     18  N   UNL     1       6.183   4.425  17.537  0.00  0.00    +0.000 N 
ATOM     19  C   UNL     1       5.560   4.069  16.274  0.00  0.00    +0.000 C 
ATOM     20  C   UNL     1       7.625   4.582  17.532  0.00  0.00    +0.000 C 
ENDBRANCH  15  16
ENDBRANCH   7  15
TORSDOF 4
ENDMDL
MODEL 8
REMARK VINA RESULT:      -6.4      3.847      7.403
REMARK  Name = 
REMARK  7 active torsions:
REMARK  status: ('A' for Active; 'I' for Inactive)
REMARK    1  A    between atoms: C_1  and  C_2
REMARK    2  A    between atoms: C_2  and  C_3
REMARK    3  A    between atoms: C_3  and  C_4
REMARK    4  A    between atoms: C_10  and  O_11
REMARK    5  A    between atoms: O_11  and  C_12
REMARK    6  A    between atoms: N_14  and  C_15
REMARK    7  A    between atoms: N_14  and  C_16
REMARK                            x       y       z     vdW  Elec       q    Type
REMARK                         _______ _______ _______ _____ _____    ______ ____
ROOT
ATOM      1  C   UNL     1       3.388   5.067  19.087  0.00  0.00    +0.000 A 
ATOM      2  C   UNL     1       2.670   5.108  20.280  0.00  0.00    +0.000 A 
ATOM      3  C   UNL     1       1.945   6.252  20.633  0.00  0.00    +0.000 A 
ATOM      4  C   UNL     1       1.897   7.396  19.801  0.00  0.00    +0.000 A 
ATOM      5  C   UNL     1       1.215   8.606  20.124  0.00  0.00    +0.000 A 
ATOM      6 CL   UNL     1       0.457   8.807  21.677  0.00  0.00    +0.000 Cl
ATOM      7  C   UNL     1       1.177   9.672  19.212  0.00  0.00    +0.000 A 
ATOM      8  C   UNL     1       1.852   9.583  17.997  0.00  0.00    +0.000 A 
ATOM      9  C   UNL     1       2.545   8.414  17.680  0.00  0.00    +0.000 A 
ATOM     10  C   UNL     1       2.581   7.325  18.564  0.00  0.00    +0.000 A 
ATOM     11  C   UNL     1       3.315   6.168  18.225  0.00  0.00    +0.000 A 
ENDROOT
BRANCH   1  12
ATOM     12  C   UNL     1       4.233   3.860  18.744  0.00  0.00    +0.000 C 
BRANCH  12  14
ATOM     13  C   UNL     1       2.390   2.461  17.652  0.00  0.00    +0.000 C 
ATOM     14  C   UNL     1       3.764   3.101  17.496  0.00  0.00    +0.000 C 
ENDBRANCH  12  14
ENDBRANCH   1  12
BRANCH   7  15
ATOM     15  O   UNL     1       0.530  10.873  19.592  0.00  0.00    +0.000 OA
BRANCH  15  16
ATOM     16  C   UNL     1      -0.793  11.133  19.220  0.00  0.00    +0.000 C 
ATOM     17  O   UNL     1      -1.298  10.740  18.174  0.00  0.00    +0.000 OA
ATOM     18  N   UNL     1      -1.481  11.896  20.158  0.00  0.00    +0.000 N 
ATOM     19  C   UNL     1      -0.853  12.471  21.335  0.00  0.00    +0.000 C 
ATOM     20  C   UNL     1      -2.828  12.344  19.853  0.00  0.00    +0.000 C 
ENDBRANCH  15  16
ENDBRANCH   7  15
TORSDOF 4
ENDMDL
MODEL 9
REMARK VINA RESULT:      -6.4      4.203      8.359
REMARK  Name = 
REMARK  7 active torsions:
REMARK  status: ('A' for Active; 'I' for Inactive)
REMARK    1  A    between atoms: C_1  and  C_2
REMARK    2  A    between atoms: C_2  and  C_3
REMARK    3  A    between atoms: C_3  and  C_4
REMARK    4  A    between atoms: C_10  and  O_11
REMARK    5  A    between atoms: O_11  and  C_12
REMARK    6  A    between atoms: N_14  and  C_15
REMARK    7  A    between atoms: N_14  and  C_16
REMARK                            x       y       z     vdW  Elec       q    Type
REMARK                         _______ _______ _______ _____ _____    ______ ____
ROOT
ATOM      1  C   UNL     1       6.498   4.186  13.812  0.00  0.00    +0.000 A 
ATOM      2  C   UNL     1       7.428   4.780  14.663  0.00  0.00    +0.000 A 
ATOM      3  C   UNL     1       7.148   4.930  16.027  0.00  0.00    +0.000 A 
ATOM      4  C   UNL     1       5.934   4.479  16.596  0.00  0.00    +0.000 A 
ATOM      5  C   UNL     1       5.570   4.641  17.965  0.00  0.00    +0.000 A 
ATOM      6 CL   UNL     1       6.590   5.541  19.051  0.00  0.00    +0.000 Cl
ATOM      7  C   UNL     1       4.365   4.115  18.455  0.00  0.00    +0.000 A 
ATOM      8  C   UNL     1       3.479   3.470  17.595  0.00  0.00    +0.000 A 
ATOM      9  C   UNL     1       3.811   3.327  16.247  0.00  0.00    +0.000 A 
ATOM     10  C   UNL     1       5.019   3.825  15.736  0.00  0.00    +0.000 A 
ATOM     11  C   UNL     1       5.311   3.689  14.363  0.00  0.00    +0.000 A 
ENDROOT
BRANCH   1  12
ATOM     12  C   UNL     1       6.771   4.095  12.327  0.00  0.00    +0.000 C 
BRANCH  12  14
ATOM     13  C   UNL     1       7.113   1.842  11.167  0.00  0.00    +0.000 C 
ATOM     14  C   UNL     1       6.115   2.890  11.641  0.00  0.00    +0.000 C 
ENDBRANCH  12  14
ENDBRANCH   1  12
BRANCH   7  15
ATOM     15  O   UNL     1       4.021   4.341  19.810  0.00  0.00    +0.000 OA
BRANCH  15  16
ATOM     16  C   UNL     1       3.403   3.348  20.577  0.00  0.00    +0.000 C 
ATOM     17  O   UNL     1       3.914   2.262  20.827  0.00  0.00    +0.000 OA
ATOM     18  N   UNL     1       2.137   3.715  21.022  0.00  0.00    +0.000 N 
ATOM     19  C   UNL     1       1.476   4.945  20.623  0.00  0.00    +0.000 C 
ATOM     20  C   UNL     1       1.328   2.741  21.731  0.00  0.00    +0.000 C 
ENDBRANCH  15  16
ENDBRANCH   7  15
TORSDOF 4
ENDMDL
