MODEL 1
REMARK VINA RESULT:      -7.4      0.000      0.000
REMARK  Name = 
REMARK  2 active torsions:
REMARK  status: ('A' for Active; 'I' for Inactive)
REMARK    1  A    between atoms: C_1  and  C_2
REMARK    2  A    between atoms: C_7  and  N_8
REMARK                            x       y       z     vdW  Elec       q    Type
REMARK                         _______ _______ _______ _____ _____    ______ ____
ROOT
ATOM      1  N   UNL     1       1.514   9.803  18.883  0.00  0.00    +0.000 N 
ATOM      2  C   UNL     1       1.347   8.858  19.881  0.00  0.00    +0.000 C 
ATOM      3  O   UNL     1       0.656   8.974  20.885  0.00  0.00    +0.000 OA
ATOM      4  N   UNL     1       2.056   7.685  19.646  0.00  0.00    +0.000 N 
ATOM      5  C   UNL     1       1.964   6.576  20.584  0.00  0.00    +0.000 C 
ATOM      6  C   UNL     1       2.966   5.552  20.048  0.00  0.00    +0.000 C 
ATOM      7  C   UNL     1       2.570   4.062  20.096  0.00  0.00    +0.000 C 
ATOM      8  C   UNL     1       1.330   3.784  19.227  0.00  0.00    +0.000 C 
ATOM      9  C   UNL     1       1.588   4.201  17.773  0.00  0.00    +0.000 C 
ATOM     10  C   UNL     1       3.005   4.784  17.624  0.00  0.00    +0.000 C 
ATOM     11  C   UNL     1       4.004   3.689  18.035  0.00  0.00    +0.000 C 
ATOM     12  C   UNL     1       3.748   3.259  19.492  0.00  0.00    +0.000 C 
ATOM     13  C   UNL     1       3.224   5.968  18.579  0.00  0.00    +0.000 C 
ATOM     14  C   UNL     1       2.328   7.164  18.329  0.00  0.00    +0.000 C 
ATOM     15  H   UNL     1       2.218   9.605  18.195  0.00  0.00    +0.000 HD
ENDROOT
BRANCH   1  22
ATOM     16  C   UNL     1      -1.227   9.933  17.780  0.00  0.00    +0.000 C 
ATOM     17  C   UNL     1      -0.433  11.132  18.223  0.00  0.00    +0.000 A 
ATOM     18  C   UNL     1      -1.055  12.388  18.124  0.00  0.00    +0.000 A 
ATOM     19  C   UNL     1      -0.394  13.551  18.520  0.00  0.00    +0.000 A 
ATOM     20  C   UNL     1       0.897  13.472  19.023  0.00  0.00    +0.000 A 
ATOM     21  C   UNL     1       1.524  12.235  19.142  0.00  0.00    +0.000 A 
ATOM     22  C   UNL     1       0.878  11.057  18.754  0.00  0.00    +0.000 A 
ENDBRANCH   1  22
TORSDOF 1
ENDMDL
MODEL 2
REMARK VINA RESULT:      -7.4      5.144      7.568
REMARK  Name = 
REMARK  2 active torsions:
REMARK  status: ('A' for Active; 'I' for Inactive)
REMARK    1  A    between atoms: C_1  and  C_2
REMARK    2  A    between atoms: C_7  and  N_8
REMARK                            x       y       z     vdW  Elec       q    Type
REMARK                         _______ _______ _______ _____ _____    ______ ____
ROOT
ATOM      1  N   UNL     1       5.416   3.919  15.759  0.00  0.00    +0.000 N 
ATOM      2  C   UNL     1       4.830   4.908  16.532  0.00  0.00    +0.000 C 
ATOM      3  O   UNL     1       4.706   6.088  16.230  0.00  0.00    +0.000 OA
ATOM      4  N   UNL     1       4.349   4.438  17.748  0.00  0.00    +0.000 N 
ATOM      5  C   UNL     1       3.675   5.345  18.666  0.00  0.00    +0.000 C 
ATOM      6  C   UNL     1       3.422   4.492  19.911  0.00  0.00    +0.000 C 
ATOM      7  C   UNL     1       2.074   4.663  20.641  0.00  0.00    +0.000 C 
ATOM      8  C   UNL     1       0.893   4.268  19.735  0.00  0.00    +0.000 C 
ATOM      9  C   UNL     1       1.041   2.817  19.262  0.00  0.00    +0.000 C 
ATOM     10  C   UNL     1       2.332   2.196  19.824  0.00  0.00    +0.000 C 
ATOM     11  C   UNL     1       2.237   2.234  21.359  0.00  0.00    +0.000 C 
ATOM     12  C   UNL     1       2.081   3.688  21.843  0.00  0.00    +0.000 C 
ATOM     13  C   UNL     1       3.566   3.025  19.434  0.00  0.00    +0.000 C 
ATOM     14  C   UNL     1       3.838   3.104  17.946  0.00  0.00    +0.000 C 
ATOM     15  H   UNL     1       5.557   3.031  16.206  0.00  0.00    +0.000 HD
ENDROOT
BRANCH   1  22
ATOM     16  C   UNL     1       7.872   5.492  15.271  0.00  0.00    +0.000 C 
ATOM     17  C   UNL     1       7.094   4.777  14.198  0.00  0.00    +0.000 A 
ATOM     18  C   UNL     1       7.592   4.850  12.886  0.00  0.00    +0.000 A 
ATOM     19  C   UNL     1       6.938   4.210  11.833  0.00  0.00    +0.000 A 
ATOM     20  C   UNL     1       5.779   3.486  12.079  0.00  0.00    +0.000 A 
ATOM     21  C   UNL     1       5.279   3.392  13.375  0.00  0.00    +0.000 A 
ATOM     22  C   UNL     1       5.921   4.023  14.445  0.00  0.00    +0.000 A 
ENDBRANCH   1  22
TORSDOF 1
ENDMDL
MODEL 3
REMARK VINA RESULT:      -7.3      5.121      7.757
REMARK  Name = 
REMARK  2 active torsions:
REMARK  status: ('A' for Active; 'I' for Inactive)
REMARK    1  A    between atoms: C_1  and  C_2
REMARK    2  A    between atoms: C_7  and  N_8
REMARK                            x       y       z     vdW  Elec       q    Type
REMARK                         _______ _______ _______ _____ _____    ______ ____
ROOT
ATOM      1  N   UNL     1       5.597   3.941  15.142  0.00  0.00    +0.000 N 
ATOM      2  C   UNL     1       5.888   4.006  16.495  0.00  0.00    +0.000 C 
ATOM      3  O   UNL     1       6.941   4.376  16.996  0.00  0.00    +0.000 OA
ATOM      4  N   UNL     1       4.828   3.605  17.301  0.00  0.00    +0.000 N 
ATOM      5  C   UNL     1       4.958   3.644  18.750  0.00  0.00    +0.000 C 
ATOM      6  C   UNL     1       3.656   3.018  19.256  0.00  0.00    +0.000 C 
ATOM      7  C   UNL     1       2.987   3.646  20.495  0.00  0.00    +0.000 C 
ATOM      8  C   UNL     1       2.560   5.101  20.223  0.00  0.00    +0.000 C 
ATOM      9  C   UNL     1       1.596   5.164  19.031  0.00  0.00    +0.000 C 
ATOM     10  C   UNL     1       1.357   3.755  18.457  0.00  0.00    +0.000 C 
ATOM     11  C   UNL     1       0.744   2.895  19.575  0.00  0.00    +0.000 C 
ATOM     12  C   UNL     1       1.701   2.832  20.780  0.00  0.00    +0.000 C 
ATOM     13  C   UNL     1       2.680   3.085  18.055  0.00  0.00    +0.000 C 
ATOM     14  C   UNL     1       3.441   3.786  16.948  0.00  0.00    +0.000 C 
ATOM     15  H   UNL     1       4.736   3.490  14.893  0.00  0.00    +0.000 HD
ENDROOT
BRANCH   1  22
ATOM     16  C   UNL     1       5.078   2.834  12.449  0.00  0.00    +0.000 C 
ATOM     17  C   UNL     1       6.165   3.828  12.764  0.00  0.00    +0.000 A 
ATOM     18  C   UNL     1       6.963   4.268  11.695  0.00  0.00    +0.000 A 
ATOM     19  C   UNL     1       7.987   5.194  11.896  0.00  0.00    +0.000 A 
ATOM     20  C   UNL     1       8.224   5.693  13.169  0.00  0.00    +0.000 A 
ATOM     21  C   UNL     1       7.434   5.278  14.238  0.00  0.00    +0.000 A 
ATOM     22  C   UNL     1       6.401   4.354  14.057  0.00  0.00    +0.000 A 
ENDBRANCH   1  22
TORSDOF 1
ENDMDL
MODEL 4
REMARK VINA RESULT:      -7.0      0.783      1.541
REMARK  Name = 
REMARK  2 active torsions:
REMARK  status: ('A' for Active; 'I' for Inactive)
REMARK    1  A    between atoms: C_1  and  C_2
REMARK    2  A    between atoms: C_7  and  N_8
REMARK                            x       y       z     vdW  Elec       q    Type
REMARK                         _______ _______ _______ _____ _____    ______ ____
ROOT
ATOM      1  N   UNL     1       1.247   9.403  18.905  0.00  0.00    +0.000 N 
ATOM      2  C   UNL     1       1.394   8.451  19.901  0.00  0.00    +0.000 C 
ATOM      3  O   UNL     1       0.866   8.466  21.005  0.00  0.00    +0.000 OA
ATOM      4  N   UNL     1       2.227   7.401  19.533  0.00  0.00    +0.000 N 
ATOM      5  C   UNL     1       2.463   6.299  20.455  0.00  0.00    +0.000 C 
ATOM      6  C   UNL     1       3.510   5.438  19.745  0.00  0.00    +0.000 C 
ATOM      7  C   UNL     1       3.363   3.906  19.832  0.00  0.00    +0.000 C 
ATOM      8  C   UNL     1       2.055   3.431  19.171  0.00  0.00    +0.000 C 
ATOM      9  C   UNL     1       2.005   3.871  17.702  0.00  0.00    +0.000 C 
ATOM     10  C   UNL     1       3.271   4.666  17.334  0.00  0.00    +0.000 C 
ATOM     11  C   UNL     1       4.482   3.743  17.559  0.00  0.00    +0.000 C 
ATOM     12  C   UNL     1       4.536   3.290  19.030  0.00  0.00    +0.000 C 
ATOM     13  C   UNL     1       3.457   5.878  18.261  0.00  0.00    +0.000 C 
ATOM     14  C   UNL     1       2.358   6.918  18.181  0.00  0.00    +0.000 C 
ATOM     15  H   UNL     1       1.852   9.310  18.109  0.00  0.00    +0.000 HD
ENDROOT
BRANCH   1  22
ATOM     16  C   UNL     1       2.418  12.059  18.340  0.00  0.00    +0.000 C 
ATOM     17  C   UNL     1       0.962  11.819  18.638  0.00  0.00    +0.000 A 
ATOM     18  C   UNL     1       0.109  12.936  18.621  0.00  0.00    +0.000 A 
ATOM     19  C   UNL     1      -1.255  12.802  18.878  0.00  0.00    +0.000 A 
ATOM     20  C   UNL     1      -1.785  11.549  19.154  0.00  0.00    +0.000 A 
ATOM     21  C   UNL     1      -0.958  10.430  19.162  0.00  0.00    +0.000 A 
ATOM     22  C   UNL     1       0.412  10.541  18.903  0.00  0.00    +0.000 A 
ENDBRANCH   1  22
TORSDOF 1
ENDMDL
MODEL 5
REMARK VINA RESULT:      -6.9      4.981      7.427
REMARK  Name = 
REMARK  2 active torsions:
REMARK  status: ('A' for Active; 'I' for Inactive)
REMARK    1  A    between atoms: C_1  and  C_2
REMARK    2  A    between atoms: C_7  and  N_8
REMARK                            x       y       z     vdW  Elec       q    Type
REMARK                         _______ _______ _______ _____ _____    ______ ____
ROOT
ATOM      1  N   UNL     1       6.009   4.531  15.652  0.00  0.00    +0.000 N 
ATOM      2  C   UNL     1       5.184   5.429  16.309  0.00  0.00    +0.000 C 
ATOM      3  O   UNL     1       4.868   6.546  15.921  0.00  0.00    +0.000 OA
ATOM      4  N   UNL     1       4.696   4.939  17.515  0.00  0.00    +0.000 N 
ATOM      5  C   UNL     1       3.788   5.746  18.317  0.00  0.00    +0.000 C 
ATOM      6  C   UNL     1       3.592   4.927  19.594  0.00  0.00    +0.000 C 
ATOM      7  C   UNL     1       2.178   4.874  20.208  0.00  0.00    +0.000 C 
ATOM      8  C   UNL     1       1.175   4.213  19.244  0.00  0.00    +0.000 C 
ATOM      9  C   UNL     1       1.631   2.794  18.883  0.00  0.00    +0.000 C 
ATOM     10  C   UNL     1       2.963   2.463  19.581  0.00  0.00    +0.000 C 
ATOM     11  C   UNL     1       2.730   2.562  21.099  0.00  0.00    +0.000 C 
ATOM     12  C   UNL     1       2.263   3.982  21.470  0.00  0.00    +0.000 C 
ATOM     13  C   UNL     1       4.048   3.492  19.230  0.00  0.00    +0.000 C 
ATOM     14  C   UNL     1       4.429   3.544  17.764  0.00  0.00    +0.000 C 
ATOM     15  H   UNL     1       6.275   3.711  16.167  0.00  0.00    +0.000 HD
ENDROOT
BRANCH   1  22
ATOM     16  C   UNL     1       4.800   3.127  13.347  0.00  0.00    +0.000 C 
ATOM     17  C   UNL     1       6.031   3.991  13.265  0.00  0.00    +0.000 A 
ATOM     18  C   UNL     1       6.621   4.152  12.000  0.00  0.00    +0.000 A 
ATOM     19  C   UNL     1       7.759   4.941  11.832  0.00  0.00    +0.000 A 
ATOM     20  C   UNL     1       8.320   5.582  12.928  0.00  0.00    +0.000 A 
ATOM     21  C   UNL     1       7.741   5.446  14.187  0.00  0.00    +0.000 A 
ATOM     22  C   UNL     1       6.598   4.662  14.375  0.00  0.00    +0.000 A 
ENDBRANCH   1  22
TORSDOF 1
ENDMDL
MODEL 6
REMARK VINA RESULT:      -6.8      1.592      7.171
REMARK  Name = 
REMARK  2 active torsions:
REMARK  status: ('A' for Active; 'I' for Inactive)
REMARK    1  A    between atoms: C_1  and  C_2
REMARK    2  A    between atoms: C_7  and  N_8
REMARK                            x       y       z     vdW  Elec       q    Type
REMARK                         _______ _______ _______ _____ _____    ______ ____
ROOT
ATOM      1  N   UNL     1       2.644   7.224  17.999  0.00  0.00    +0.000 N 
ATOM      2  C   UNL     1       2.202   7.579  19.263  0.00  0.00    +0.000 C 
ATOM      3  O   UNL     1       2.484   7.020  20.315  0.00  0.00    +0.000 OA
ATOM      4  N   UNL     1       1.372   8.693  19.258  0.00  0.00    +0.000 N 
ATOM      5  C   UNL     1       0.846   9.217  20.510  0.00  0.00    +0.000 C 
ATOM      6  C   UNL     1      -0.103  10.336  20.075  0.00  0.00    +0.000 C 
ATOM      7  C   UNL     1      -0.121  11.632  20.909  0.00  0.00    +0.000 C 
ATOM      8  C   UNL     1       1.247  12.339  20.873  0.00  0.00    +0.000 C 
ATOM      9  C   UNL     1       1.647  12.663  19.427  0.00  0.00    +0.000 C 
ATOM     10  C   UNL     1       0.566  12.171  18.447  0.00  0.00    +0.000 C 
ATOM     11  C   UNL     1      -0.745  12.896  18.798  0.00  0.00    +0.000 C 
ATOM     12  C   UNL     1      -1.150  12.583  20.251  0.00  0.00    +0.000 C 
ATOM     13  C   UNL     1       0.302  10.667  18.617  0.00  0.00    +0.000 C 
ATOM     14  C   UNL     1       1.485   9.772  18.308  0.00  0.00    +0.000 C 
ATOM     15  H   UNL     1       2.215   7.702  17.227  0.00  0.00    +0.000 HD
ENDROOT
BRANCH   1  22
ATOM     16  C   UNL     1       1.706   4.426  17.790  0.00  0.00    +0.000 C 
ATOM     17  C   UNL     1       3.126   4.867  17.549  0.00  0.00    +0.000 A 
ATOM     18  C   UNL     1       4.052   3.877  17.179  0.00  0.00    +0.000 A 
ATOM     19  C   UNL     1       5.386   4.198  16.930  0.00  0.00    +0.000 A 
ATOM     20  C   UNL     1       5.811   5.515  17.044  0.00  0.00    +0.000 A 
ATOM     21  C   UNL     1       4.904   6.511  17.397  0.00  0.00    +0.000 A 
ATOM     22  C   UNL     1       3.562   6.210  17.648  0.00  0.00    +0.000 A 
ENDBRANCH   1  22
TORSDOF 1
ENDMDL
MODEL 7
REMARK VINA RESULT:      -6.8      6.793      9.419
REMARK  Name = 
REMARK  2 active torsions:
REMARK  status: ('A' for Active; 'I' for Inactive)
REMARK    1  A    between atoms: C_1  and  C_2
REMARK    2  A    between atoms: C_7  and  N_8
REMARK                            x       y       z     vdW  Elec       q    Type
REMARK                         _______ _______ _______ _____ _____    ______ ____
ROOT
ATOM      1  N   UNL     1       7.117   7.804  17.197  0.00  0.00    +0.000 N 
ATOM      2  C   UNL     1       7.994   7.934  18.262  0.00  0.00    +0.000 C 
ATOM      3  O   UNL     1       8.446   7.026  18.947  0.00  0.00    +0.000 OA
ATOM      4  N   UNL     1       8.362   9.252  18.508  0.00  0.00    +0.000 N 
ATOM      5  C   UNL     1       9.304   9.559  19.574  0.00  0.00    +0.000 C 
ATOM      6  C   UNL     1       9.343  11.089  19.605  0.00  0.00    +0.000 C 
ATOM      7  C   UNL     1      10.708  11.771  19.828  0.00  0.00    +0.000 C 
ATOM      8  C   UNL     1      11.688  11.447  18.685  0.00  0.00    +0.000 C 
ATOM      9  C   UNL     1      11.106  11.890  17.336  0.00  0.00    +0.000 C 
ATOM     10  C   UNL     1       9.711  12.512  17.530  0.00  0.00    +0.000 C 
ATOM     11  C   UNL     1       9.870  13.733  18.452  0.00  0.00    +0.000 C 
ATOM     12  C   UNL     1      10.462  13.299  19.806  0.00  0.00    +0.000 C 
ATOM     13  C   UNL     1       8.760  11.537  18.242  0.00  0.00    +0.000 C 
ATOM     14  C   UNL     1       8.468  10.259  17.482  0.00  0.00    +0.000 C 
ATOM     15  H   UNL     1       6.740   8.657  16.826  0.00  0.00    +0.000 HD
ENDROOT
BRANCH   1  22
ATOM     16  C   UNL     1       4.251   7.140  17.505  0.00  0.00    +0.000 C 
ATOM     17  C   UNL     1       5.247   6.286  16.764  0.00  0.00    +0.000 A 
ATOM     18  C   UNL     1       4.764   5.110  16.164  0.00  0.00    +0.000 A 
ATOM     19  C   UNL     1       5.616   4.266  15.453  0.00  0.00    +0.000 A 
ATOM     20  C   UNL     1       6.961   4.587  15.329  0.00  0.00    +0.000 A 
ATOM     21  C   UNL     1       7.453   5.755  15.906  0.00  0.00    +0.000 A 
ATOM     22  C   UNL     1       6.616   6.617  16.620  0.00  0.00    +0.000 A 
ENDBRANCH   1  22
TORSDOF 1
ENDMDL
MODEL 8
REMARK VINA RESULT:      -6.7      1.942      2.721
REMARK  Name = 
REMARK  2 active torsions:
REMARK  status: ('A' for Active; 'I' for Inactive)
REMARK    1  A    between atoms: C_1  and  C_2
REMARK    2  A    between atoms: C_7  and  N_8
REMARK                            x       y       z     vdW  Elec       q    Type
REMARK                         _______ _______ _______ _____ _____    ______ ____
ROOT
ATOM      1  N   UNL     1       0.959   9.037  19.124  0.00  0.00    +0.000 N 
ATOM      2  C   UNL     1       2.012   9.052  18.224  0.00  0.00    +0.000 C 
ATOM      3  O   UNL     1       2.492  10.039  17.683  0.00  0.00    +0.000 OA
ATOM      4  N   UNL     1       2.531   7.787  17.970  0.00  0.00    +0.000 N 
ATOM      5  C   UNL     1       3.664   7.631  17.070  0.00  0.00    +0.000 C 
ATOM      6  C   UNL     1       3.843   6.116  16.958  0.00  0.00    +0.000 C 
ATOM      7  C   UNL     1       5.280   5.558  16.939  0.00  0.00    +0.000 C 
ATOM      8  C   UNL     1       6.019   5.872  18.254  0.00  0.00    +0.000 C 
ATOM      9  C   UNL     1       5.257   5.289  19.451  0.00  0.00    +0.000 C 
ATOM     10  C   UNL     1       3.975   4.578  18.979  0.00  0.00    +0.000 C 
ATOM     11  C   UNL     1       4.396   3.443  18.029  0.00  0.00    +0.000 C 
ATOM     12  C   UNL     1       5.169   4.018  16.828  0.00  0.00    +0.000 C 
ATOM     13  C   UNL     1       3.078   5.526  18.168  0.00  0.00    +0.000 C 
ATOM     14  C   UNL     1       2.549   6.719  18.938  0.00  0.00    +0.000 C 
ATOM     15  H   UNL     1       0.600   8.133  19.373  0.00  0.00    +0.000 HD
ENDROOT
BRANCH   1  22
ATOM     16  C   UNL     1      -1.403  10.113  17.705  0.00  0.00    +0.000 C 
ATOM     17  C   UNL     1      -0.865  10.663  19.000  0.00  0.00    +0.000 A 
ATOM     18  C   UNL     1      -1.555  11.745  19.574  0.00  0.00    +0.000 A 
ATOM     19  C   UNL     1      -1.130  12.311  20.776  0.00  0.00    +0.000 A 
ATOM     20  C   UNL     1      -0.012  11.801  21.421  0.00  0.00    +0.000 A 
ATOM     21  C   UNL     1       0.675  10.721  20.874  0.00  0.00    +0.000 A 
ATOM     22  C   UNL     1       0.264  10.137  19.672  0.00  0.00    +0.000 A 
ENDBRANCH   1  22
TORSDOF 1
ENDMDL
MODEL 9
REMARK VINA RESULT:      -6.7      1.693      2.748
REMARK  Name = 
REMARK  2 active torsions:
REMARK  status: ('A' for Active; 'I' for Inactive)
REMARK    1  A    between atoms: C_1  and  C_2
REMARK    2  A    between atoms: C_7  and  N_8
REMARK                            x       y       z     vdW  Elec       q    Type
REMARK                         _______ _______ _______ _____ _____    ______ ____
ROOT
ATOM      1  N   UNL     1       1.469   8.398  19.008  0.00  0.00    +0.000 N 
ATOM      2  C   UNL     1       2.519   7.797  18.332  0.00  0.00    +0.000 C 
ATOM      3  O   UNL     1       3.474   8.365  17.820  0.00  0.00    +0.000 OA
ATOM      4  N   UNL     1       2.415   6.411  18.283  0.00  0.00    +0.000 N 
ATOM      5  C   UNL     1       3.454   5.624  17.636  0.00  0.00    +0.000 C 
ATOM      6  C   UNL     1       2.916   4.192  17.679  0.00  0.00    +0.000 C 
ATOM      7  C   UNL     1       3.912   3.056  17.984  0.00  0.00    +0.000 C 
ATOM      8  C   UNL     1       4.525   3.211  19.389  0.00  0.00    +0.000 C 
ATOM      9  C   UNL     1       3.423   3.230  20.457  0.00  0.00    +0.000 C 
ATOM     10  C   UNL     1       2.036   3.102  19.801  0.00  0.00    +0.000 C 
ATOM     11  C   UNL     1       2.001   1.763  19.043  0.00  0.00    +0.000 C 
ATOM     12  C   UNL     1       3.110   1.732  17.974  0.00  0.00    +0.000 C 
ATOM     13  C   UNL     1       1.807   4.208  18.760  0.00  0.00    +0.000 C 
ATOM     14  C   UNL     1       1.798   5.618  19.317  0.00  0.00    +0.000 C 
ATOM     15  H   UNL     1       0.699   7.802  19.252  0.00  0.00    +0.000 HD
ENDROOT
BRANCH   1  22
ATOM     16  C   UNL     1       0.456   9.157  21.681  0.00  0.00    +0.000 C 
ATOM     17  C   UNL     1       0.814  10.140  20.597  0.00  0.00    +0.000 A 
ATOM     18  C   UNL     1       0.676  11.506  20.897  0.00  0.00    +0.000 A 
ATOM     19  C   UNL     1       0.993  12.483  19.954  0.00  0.00    +0.000 A 
ATOM     20  C   UNL     1       1.455  12.108  18.701  0.00  0.00    +0.000 A 
ATOM     21  C   UNL     1       1.612  10.760  18.391  0.00  0.00    +0.000 A 
ATOM     22  C   UNL     1       1.303   9.764  19.323  0.00  0.00    +0.000 A 
ENDBRANCH   1  22
TORSDOF 1
ENDMDL
