MODEL 1
REMARK VINA RESULT:      -7.8      0.000      0.000
REMARK  Name = 
REMARK  15 active torsions:
REMARK  status: ('A' for Active; 'I' for Inactive)
REMARK    1  A    between atoms: C_1  and  C_2
REMARK    2  A    between atoms: C_2  and  C_3
REMARK    3  A    between atoms: C_3  and  C_4
REMARK    4  A    between atoms: C_4  and  N_5
REMARK    5  A    between atoms: N_5  and  C_6
REMARK    6  A    between atoms: C_6  and  C_7
REMARK    7  A    between atoms: C_7  and  O_8
REMARK    8  A    between atoms: C_7  and  C_9
REMARK    9  A    between atoms: C_9  and  O_10
REMARK   10  A    between atoms: O_10  and  C_11
REMARK   11  A    between atoms: C_13  and  O_14
REMARK   12  A    between atoms: O_14  and  C_15
REMARK   13  A    between atoms: C_15  and  C_16
REMARK   14  A    between atoms: C_20  and  O_21
REMARK   15  A    between atoms: O_21  and  C_22
REMARK                            x       y       z     vdW  Elec       q    Type
REMARK                         _______ _______ _______ _____ _____    ______ ____
ROOT
ATOM      1  C   UNL     1       3.088   7.714  17.702  0.00  0.00    +0.000 A 
ATOM      2  C   UNL     1       2.904   6.735  18.673  0.00  0.00    +0.000 A 
ATOM      3  C   UNL     1       2.154   6.990  19.846  0.00  0.00    +0.000 A 
ATOM      4  C   UNL     1       1.504   8.232  19.977  0.00  0.00    +0.000 A 
ATOM      5  C   UNL     1       0.653   8.642  21.132  0.00  0.00    +0.000 A 
ATOM      6  O   UNL     1       0.370   7.891  22.054  0.00  0.00    +0.000 OA
ATOM      7  C   UNL     1       0.140  10.036  21.130  0.00  0.00    +0.000 A 
ATOM      8  C   UNL     1      -0.605  10.554  22.193  0.00  0.00    +0.000 A 
ATOM      9  C   UNL     1      -1.060  11.878  22.149  0.00  0.00    +0.000 A 
ATOM     10  C   UNL     1      -0.779  12.687  21.046  0.00  0.00    +0.000 A 
ATOM     11  C   UNL     1      -0.041  12.170  19.989  0.00  0.00    +0.000 A 
ATOM     12  C   UNL     1       0.414  10.850  20.038  0.00  0.00    +0.000 A 
ATOM     13  O   UNL     1       1.129  10.441  18.955  0.00  0.00    +0.000 OA
ATOM     14  C   UNL     1       1.672   9.186  18.971  0.00  0.00    +0.000 A 
ATOM     15  C   UNL     1       2.468   8.936  17.856  0.00  0.00    +0.000 A 
ENDROOT
BRANCH   1  16
ATOM     16  O   UNL     1       3.918   7.382  16.660  0.00  0.00    +0.000 OA
BRANCH  16  17
ATOM     17  C   UNL     1       5.094   6.650  17.041  0.00  0.00    +0.000 C 
BRANCH  17  18
ATOM     18  C   UNL     1       5.274   5.432  16.140  0.00  0.00    +0.000 C 
BRANCH  18  19
ATOM     19  O   UNL     1       4.818   4.254  16.820  0.00  0.00    +0.000 OA
ATOM     20  H   UNL     1       4.090   4.539  17.403  0.00  0.00    +0.000 HD
ENDBRANCH  18  19
BRANCH  18  21
ATOM     21  C   UNL     1       6.744   5.263  15.722  0.00  0.00    +0.000 C 
BRANCH  21  22
ATOM     22  N   UNL     1       6.821   5.117  14.266  0.00  0.00    +0.000 NA
ATOM     23  H   UNL     1       6.347   5.914  13.835  0.00  0.00    +0.000 HD
BRANCH  22  24
ATOM     24  C   UNL     1       6.236   3.858  13.828  0.00  0.00    +0.000 C 
BRANCH  24  25
ATOM     25  C   UNL     1       6.520   3.654  12.341  0.00  0.00    +0.000 C 
BRANCH  25  27
ATOM     26  C   UNL     1       4.217   3.284  11.397  0.00  0.00    +0.000 C 
ATOM     27  C   UNL     1       5.548   2.641  11.740  0.00  0.00    +0.000 C 
ENDBRANCH  25  27
ENDBRANCH  24  25
ENDBRANCH  22  24
ENDBRANCH  21  22
ENDBRANCH  18  21
ENDBRANCH  17  18
ENDBRANCH  16  17
ENDBRANCH   1  16
BRANCH   3  28
ATOM     28  O   UNL     1       2.072   6.066  20.866  0.00  0.00    +0.000 OA
BRANCH  28  29
ATOM     29  C   UNL     1       1.297   4.899  20.562  0.00  0.00    +0.000 C 
BRANCH  29  30
ATOM     30  C   UNL     1       2.015   3.837  19.766  0.00  0.00    +0.000 A 
ATOM     31  C   UNL     1       1.454   3.229  18.642  0.00  0.00    +0.000 A 
ATOM     32  C   UNL     1       2.112   2.163  18.026  0.00  0.00    +0.000 A 
ATOM     33  C   UNL     1       3.328   1.698  18.535  0.00  0.00    +0.000 A 
ATOM     34  C   UNL     1       3.903   2.293  19.657  0.00  0.00    +0.000 A 
ATOM     35  C   UNL     1       3.247   3.362  20.264  0.00  0.00    +0.000 A 
BRANCH  34  36
ATOM     36  O   UNL     1       5.082   1.737  20.075  0.00  0.00    +0.000 OA
ATOM     37  C   UNL     1       5.106   1.186  21.388  0.00  0.00    +0.000 C 
ENDBRANCH  34  36
ENDBRANCH  29  30
ENDBRANCH  28  29
ENDBRANCH   3  28
TORSDOF 13
ENDMDL
MODEL 2
REMARK VINA RESULT:      -7.6      1.010      1.267
REMARK  Name = 
REMARK  15 active torsions:
REMARK  status: ('A' for Active; 'I' for Inactive)
REMARK    1  A    between atoms: C_1  and  C_2
REMARK    2  A    between atoms: C_2  and  C_3
REMARK    3  A    between atoms: C_3  and  C_4
REMARK    4  A    between atoms: C_4  and  N_5
REMARK    5  A    between atoms: N_5  and  C_6
REMARK    6  A    between atoms: C_6  and  C_7
REMARK    7  A    between atoms: C_7  and  O_8
REMARK    8  A    between atoms: C_7  and  C_9
REMARK    9  A    between atoms: C_9  and  O_10
REMARK   10  A    between atoms: O_10  and  C_11
REMARK   11  A    between atoms: C_13  and  O_14
REMARK   12  A    between atoms: O_14  and  C_15
REMARK   13  A    between atoms: C_15  and  C_16
REMARK   14  A    between atoms: C_20  and  O_21
REMARK   15  A    between atoms: O_21  and  C_22
REMARK                            x       y       z     vdW  Elec       q    Type
REMARK                         _______ _______ _______ _____ _____    ______ ____
ROOT
ATOM      1  C   UNL     1       3.838   6.733  17.535  0.00  0.00    +0.000 A 
ATOM      2  C   UNL     1       3.365   5.979  18.604  0.00  0.00    +0.000 A 
ATOM      3  C   UNL     1       2.501   6.536  19.576  0.00  0.00    +0.000 A 
ATOM      4  C   UNL     1       2.038   7.854  19.395  0.00  0.00    +0.000 A 
ATOM      5  C   UNL     1       1.102   8.573  20.308  0.00  0.00    +0.000 A 
ATOM      6  O   UNL     1       0.575   8.045  21.276  0.00  0.00    +0.000 OA
ATOM      7  C   UNL     1       0.816   9.997  19.996  0.00  0.00    +0.000 A 
ATOM      8  C   UNL     1       0.013  10.790  20.819  0.00  0.00    +0.000 A 
ATOM      9  C   UNL     1      -0.220  12.131  20.488  0.00  0.00    +0.000 A 
ATOM     10  C   UNL     1       0.340  12.683  19.334  0.00  0.00    +0.000 A 
ATOM     11  C   UNL     1       1.136  11.892  18.514  0.00  0.00    +0.000 A 
ATOM     12  C   UNL     1       1.369  10.556  18.851  0.00  0.00    +0.000 A 
ATOM     13  O   UNL     1       2.162   9.870  17.984  0.00  0.00    +0.000 OA
ATOM     14  C   UNL     1       2.497   8.579  18.293  0.00  0.00    +0.000 A 
ATOM     15  C   UNL     1       3.398   8.031  17.385  0.00  0.00    +0.000 A 
ENDROOT
BRANCH   1  16
ATOM     16  O   UNL     1       4.750   6.114  16.716  0.00  0.00    +0.000 OA
BRANCH  16  17
ATOM     17  C   UNL     1       5.235   4.853  17.206  0.00  0.00    +0.000 C 
BRANCH  17  18
ATOM     18  C   UNL     1       6.454   4.408  16.403  0.00  0.00    +0.000 C 
BRANCH  18  19
ATOM     19  O   UNL     1       7.653   4.827  17.069  0.00  0.00    +0.000 OA
ATOM     20  H   UNL     1       7.857   4.135  17.726  0.00  0.00    +0.000 HD
ENDBRANCH  18  19
BRANCH  18  21
ATOM     21  C   UNL     1       6.417   4.979  14.976  0.00  0.00    +0.000 C 
BRANCH  21  22
ATOM     22  N   UNL     1       5.672   4.064  14.106  0.00  0.00    +0.000 NA
ATOM     23  H   UNL     1       5.526   3.186  14.608  0.00  0.00    +0.000 HD
BRANCH  22  24
ATOM     24  C   UNL     1       6.373   3.841  12.849  0.00  0.00    +0.000 C 
BRANCH  24  25
ATOM     25  C   UNL     1       5.538   2.923  11.958  0.00  0.00    +0.000 C 
BRANCH  25  27
ATOM     26  C   UNL     1       3.636   3.393  10.379  0.00  0.00    +0.000 C 
ATOM     27  C   UNL     1       4.113   3.456  11.819  0.00  0.00    +0.000 C 
ENDBRANCH  25  27
ENDBRANCH  24  25
ENDBRANCH  22  24
ENDBRANCH  21  22
ENDBRANCH  18  21
ENDBRANCH  17  18
ENDBRANCH  16  17
ENDBRANCH   1  16
BRANCH   3  28
ATOM     28  O   UNL     1       2.130   5.832  20.701  0.00  0.00    +0.000 OA
BRANCH  28  29
ATOM     29  C   UNL     1       1.422   4.612  20.443  0.00  0.00    +0.000 C 
BRANCH  29  30
ATOM     30  C   UNL     1       2.177   3.590  19.628  0.00  0.00    +0.000 A 
ATOM     31  C   UNL     1       1.703   3.098  18.411  0.00  0.00    +0.000 A 
ATOM     32  C   UNL     1       2.381   2.060  17.769  0.00  0.00    +0.000 A 
ATOM     33  C   UNL     1       3.528   1.508  18.343  0.00  0.00    +0.000 A 
ATOM     34  C   UNL     1       4.017   1.987  19.558  0.00  0.00    +0.000 A 
ATOM     35  C   UNL     1       3.342   3.028  20.192  0.00  0.00    +0.000 A 
BRANCH  34  36
ATOM     36  O   UNL     1       5.134   1.353  20.031  0.00  0.00    +0.000 OA
ATOM     37  C   UNL     1       5.240   1.201  21.442  0.00  0.00    +0.000 C 
ENDBRANCH  34  36
ENDBRANCH  29  30
ENDBRANCH  28  29
ENDBRANCH   3  28
TORSDOF 13
ENDMDL
MODEL 3
REMARK VINA RESULT:      -7.3      1.763      6.432
REMARK  Name = 
REMARK  15 active torsions:
REMARK  status: ('A' for Active; 'I' for Inactive)
REMARK    1  A    between atoms: C_1  and  C_2
REMARK    2  A    between atoms: C_2  and  C_3
REMARK    3  A    between atoms: C_3  and  C_4
REMARK    4  A    between atoms: C_4  and  N_5
REMARK    5  A    between atoms: N_5  and  C_6
REMARK    6  A    between atoms: C_6  and  C_7
REMARK    7  A    between atoms: C_7  and  O_8
REMARK    8  A    between atoms: C_7  and  C_9
REMARK    9  A    between atoms: C_9  and  O_10
REMARK   10  A    between atoms: O_10  and  C_11
REMARK   11  A    between atoms: C_13  and  O_14
REMARK   12  A    between atoms: O_14  and  C_15
REMARK   13  A    between atoms: C_15  and  C_16
REMARK   14  A    between atoms: C_20  and  O_21
REMARK   15  A    between atoms: O_21  and  C_22
REMARK                            x       y       z     vdW  Elec       q    Type
REMARK                         _______ _______ _______ _____ _____    ______ ____
ROOT
ATOM      1  C   UNL     1       4.858   6.338  16.239  0.00  0.00    +0.000 A 
ATOM      2  C   UNL     1       4.272   7.484  16.767  0.00  0.00    +0.000 A 
ATOM      3  C   UNL     1       3.419   7.425  17.894  0.00  0.00    +0.000 A 
ATOM      4  C   UNL     1       3.244   6.190  18.548  0.00  0.00    +0.000 A 
ATOM      5  C   UNL     1       2.407   5.968  19.762  0.00  0.00    +0.000 A 
ATOM      6  O   UNL     1       1.848   6.873  20.364  0.00  0.00    +0.000 OA
ATOM      7  C   UNL     1       2.268   4.568  20.239  0.00  0.00    +0.000 A 
ATOM      8  C   UNL     1       1.453   4.231  21.322  0.00  0.00    +0.000 A 
ATOM      9  C   UNL     1       1.347   2.894  21.729  0.00  0.00    +0.000 A 
ATOM     10  C   UNL     1       2.057   1.893  21.063  0.00  0.00    +0.000 A 
ATOM     11  C   UNL     1       2.870   2.230  19.989  0.00  0.00    +0.000 A 
ATOM     12  C   UNL     1       2.970   3.564  19.583  0.00  0.00    +0.000 A 
ATOM     13  O   UNL     1       3.790   3.788  18.521  0.00  0.00    +0.000 OA
ATOM     14  C   UNL     1       3.873   5.059  18.021  0.00  0.00    +0.000 A 
ATOM     15  C   UNL     1       4.655   5.130  16.872  0.00  0.00    +0.000 A 
ENDROOT
BRANCH   1  16
ATOM     16  O   UNL     1       5.581   6.506  15.084  0.00  0.00    +0.000 OA
BRANCH  16  17
ATOM     17  C   UNL     1       5.605   5.359  14.220  0.00  0.00    +0.000 C 
BRANCH  17  18
ATOM     18  C   UNL     1       7.010   4.766  14.167  0.00  0.00    +0.000 C 
BRANCH  18  19
ATOM     19  O   UNL     1       7.821   5.347  15.197  0.00  0.00    +0.000 OA
ATOM     20  H   UNL     1       8.334   4.615  15.587  0.00  0.00    +0.000 HD
ENDBRANCH  18  19
BRANCH  18  21
ATOM     21  C   UNL     1       7.658   4.998  12.792  0.00  0.00    +0.000 C 
BRANCH  21  22
ATOM     22  N   UNL     1       6.881   4.298  11.765  0.00  0.00    +0.000 NA
ATOM     23  H   UNL     1       6.030   4.833  11.581  0.00  0.00    +0.000 HD
BRANCH  22  24
ATOM     24  C   UNL     1       6.569   2.936  12.173  0.00  0.00    +0.000 C 
BRANCH  24  25
ATOM     25  C   UNL     1       5.363   2.431  11.383  0.00  0.00    +0.000 C 
BRANCH  25  27
ATOM     26  C   UNL     1       3.327   3.425  10.288  0.00  0.00    +0.000 C 
ATOM     27  C   UNL     1       4.176   3.378  11.546  0.00  0.00    +0.000 C 
ENDBRANCH  25  27
ENDBRANCH  24  25
ENDBRANCH  22  24
ENDBRANCH  21  22
ENDBRANCH  18  21
ENDBRANCH  17  18
ENDBRANCH  16  17
ENDBRANCH   1  16
BRANCH   3  28
ATOM     28  O   UNL     1       2.740   8.537  18.344  0.00  0.00    +0.000 OA
BRANCH  28  29
ATOM     29  C   UNL     1       1.645   8.952  17.516  0.00  0.00    +0.000 C 
BRANCH  29  30
ATOM     30  C   UNL     1       0.590   9.779  18.209  0.00  0.00    +0.000 A 
ATOM     31  C   UNL     1      -0.746   9.788  17.805  0.00  0.00    +0.000 A 
ATOM     32  C   UNL     1      -1.647  10.671  18.402  0.00  0.00    +0.000 A 
ATOM     33  C   UNL     1      -1.216  11.550  19.398  0.00  0.00    +0.000 A 
ATOM     34  C   UNL     1       0.115  11.555  19.815  0.00  0.00    +0.000 A 
ATOM     35  C   UNL     1       1.010  10.667  19.222  0.00  0.00    +0.000 A 
BRANCH  34  36
ATOM     36  O   UNL     1       0.422  12.474  20.782  0.00  0.00    +0.000 OA
ATOM     37  C   UNL     1       1.678  13.135  20.666  0.00  0.00    +0.000 C 
ENDBRANCH  34  36
ENDBRANCH  29  30
ENDBRANCH  28  29
ENDBRANCH   3  28
TORSDOF 13
ENDMDL
MODEL 4
REMARK VINA RESULT:      -7.3      4.480     10.911
REMARK  Name = 
REMARK  15 active torsions:
REMARK  status: ('A' for Active; 'I' for Inactive)
REMARK    1  A    between atoms: C_1  and  C_2
REMARK    2  A    between atoms: C_2  and  C_3
REMARK    3  A    between atoms: C_3  and  C_4
REMARK    4  A    between atoms: C_4  and  N_5
REMARK    5  A    between atoms: N_5  and  C_6
REMARK    6  A    between atoms: C_6  and  C_7
REMARK    7  A    between atoms: C_7  and  O_8
REMARK    8  A    between atoms: C_7  and  C_9
REMARK    9  A    between atoms: C_9  and  O_10
REMARK   10  A    between atoms: O_10  and  C_11
REMARK   11  A    between atoms: C_13  and  O_14
REMARK   12  A    between atoms: O_14  and  C_15
REMARK   13  A    between atoms: C_15  and  C_16
REMARK   14  A    between atoms: C_20  and  O_21
REMARK   15  A    between atoms: O_21  and  C_22
REMARK                            x       y       z     vdW  Elec       q    Type
REMARK                         _______ _______ _______ _____ _____    ______ ____
ROOT
ATOM      1  C   UNL     1      -0.111  10.667  22.168  0.00  0.00    +0.000 A 
ATOM      2  C   UNL     1      -0.093  11.450  21.018  0.00  0.00    +0.000 A 
ATOM      3  C   UNL     1       0.521  10.998  19.827  0.00  0.00    +0.000 A 
ATOM      4  C   UNL     1       1.037   9.689  19.785  0.00  0.00    +0.000 A 
ATOM      5  C   UNL     1       1.684   9.054  18.600  0.00  0.00    +0.000 A 
ATOM      6  O   UNL     1       1.755   9.595  17.507  0.00  0.00    +0.000 OA
ATOM      7  C   UNL     1       2.257   7.696  18.792  0.00  0.00    +0.000 A 
ATOM      8  C   UNL     1       2.950   7.034  17.775  0.00  0.00    +0.000 A 
ATOM      9  C   UNL     1       3.481   5.758  18.006  0.00  0.00    +0.000 A 
ATOM     10  C   UNL     1       3.318   5.138  19.246  0.00  0.00    +0.000 A 
ATOM     11  C   UNL     1       2.626   5.796  20.255  0.00  0.00    +0.000 A 
ATOM     12  C   UNL     1       2.102   7.070  20.022  0.00  0.00    +0.000 A 
ATOM     13  O   UNL     1       1.444   7.629  21.074  0.00  0.00    +0.000 OA
ATOM     14  C   UNL     1       0.974   8.907  20.941  0.00  0.00    +0.000 A 
ATOM     15  C   UNL     1       0.422   9.397  22.122  0.00  0.00    +0.000 A 
ENDROOT
BRANCH   1  16
ATOM     16  O   UNL     1      -0.645  11.253  23.290  0.00  0.00    +0.000 OA
BRANCH  16  17
ATOM     17  C   UNL     1      -2.005  11.693  23.146  0.00  0.00    +0.000 C 
BRANCH  17  18
ATOM     18  C   UNL     1      -2.088  13.209  23.289  0.00  0.00    +0.000 C 
BRANCH  18  19
ATOM     19  O   UNL     1      -0.838  13.721  23.773  0.00  0.00    +0.000 OA
ATOM     20  H   UNL     1      -0.669  14.543  23.278  0.00  0.00    +0.000 HD
ENDBRANCH  18  19
BRANCH  18  21
ATOM     21  C   UNL     1      -3.227  13.615  24.240  0.00  0.00    +0.000 C 
BRANCH  21  22
ATOM     22  N   UNL     1      -3.839  14.857  23.761  0.00  0.00    +0.000 NA
ATOM     23  H   UNL     1      -3.490  15.631  24.330  0.00  0.00    +0.000 HD
BRANCH  22  24
ATOM     24  C   UNL     1      -5.293  14.784  23.809  0.00  0.00    +0.000 C 
BRANCH  24  25
ATOM     25  C   UNL     1      -5.759  13.484  23.156  0.00  0.00    +0.000 C 
BRANCH  25  27
ATOM     26  C   UNL     1      -7.916  12.189  23.178  0.00  0.00    +0.000 C 
ATOM     27  C   UNL     1      -6.807  12.790  24.023  0.00  0.00    +0.000 C 
ENDBRANCH  25  27
ENDBRANCH  24  25
ENDBRANCH  22  24
ENDBRANCH  21  22
ENDBRANCH  18  21
ENDBRANCH  17  18
ENDBRANCH  16  17
ENDBRANCH   1  16
BRANCH   3  28
ATOM     28  O   UNL     1       0.650  11.817  18.725  0.00  0.00    +0.000 OA
BRANCH  28  29
ATOM     29  C   UNL     1      -0.554  12.486  18.327  0.00  0.00    +0.000 C 
BRANCH  29  30
ATOM     30  C   UNL     1      -1.718  11.580  18.006  0.00  0.00    +0.000 A 
ATOM     31  C   UNL     1      -1.606  10.483  17.150  0.00  0.00    +0.000 A 
ATOM     32  C   UNL     1      -2.746   9.763  16.790  0.00  0.00    +0.000 A 
ATOM     33  C   UNL     1      -4.000  10.139  17.280  0.00  0.00    +0.000 A 
ATOM     34  C   UNL     1      -4.131  11.231  18.136  0.00  0.00    +0.000 A 
ATOM     35  C   UNL     1      -2.990  11.943  18.499  0.00  0.00    +0.000 A 
BRANCH  34  36
ATOM     36  O   UNL     1      -5.410  11.514  18.532  0.00  0.00    +0.000 OA
ATOM     37  C   UNL     1      -5.569  12.132  19.805  0.00  0.00    +0.000 C 
ENDBRANCH  34  36
ENDBRANCH  29  30
ENDBRANCH  28  29
ENDBRANCH   3  28
TORSDOF 13
ENDMDL
MODEL 5
REMARK VINA RESULT:      -7.2      2.409      4.895
REMARK  Name = 
REMARK  15 active torsions:
REMARK  status: ('A' for Active; 'I' for Inactive)
REMARK    1  A    between atoms: C_1  and  C_2
REMARK    2  A    between atoms: C_2  and  C_3
REMARK    3  A    between atoms: C_3  and  C_4
REMARK    4  A    between atoms: C_4  and  N_5
REMARK    5  A    between atoms: N_5  and  C_6
REMARK    6  A    between atoms: C_6  and  C_7
REMARK    7  A    between atoms: C_7  and  O_8
REMARK    8  A    between atoms: C_7  and  C_9
REMARK    9  A    between atoms: C_9  and  O_10
REMARK   10  A    between atoms: O_10  and  C_11
REMARK   11  A    between atoms: C_13  and  O_14
REMARK   12  A    between atoms: O_14  and  C_15
REMARK   13  A    between atoms: C_15  and  C_16
REMARK   14  A    between atoms: C_20  and  O_21
REMARK   15  A    between atoms: O_21  and  C_22
REMARK                            x       y       z     vdW  Elec       q    Type
REMARK                         _______ _______ _______ _____ _____    ______ ____
ROOT
ATOM      1  C   UNL     1       1.772   6.602  20.682  0.00  0.00    +0.000 A 
ATOM      2  C   UNL     1       2.444   6.613  19.463  0.00  0.00    +0.000 A 
ATOM      3  C   UNL     1       2.416   7.745  18.615  0.00  0.00    +0.000 A 
ATOM      4  C   UNL     1       1.773   8.914  19.065  0.00  0.00    +0.000 A 
ATOM      5  C   UNL     1       1.684  10.196  18.308  0.00  0.00    +0.000 A 
ATOM      6  O   UNL     1       2.242  10.379  17.236  0.00  0.00    +0.000 OA
ATOM      7  C   UNL     1       0.871  11.282  18.914  0.00  0.00    +0.000 A 
ATOM      8  C   UNL     1       0.657  12.499  18.262  0.00  0.00    +0.000 A 
ATOM      9  C   UNL     1      -0.125  13.490  18.870  0.00  0.00    +0.000 A 
ATOM     10  C   UNL     1      -0.689  13.274  20.129  0.00  0.00    +0.000 A 
ATOM     11  C   UNL     1      -0.472  12.065  20.777  0.00  0.00    +0.000 A 
ATOM     12  C   UNL     1       0.305  11.077  20.165  0.00  0.00    +0.000 A 
ATOM     13  O   UNL     1       0.456   9.930  20.882  0.00  0.00    +0.000 OA
ATOM     14  C   UNL     1       1.138   8.891  20.309  0.00  0.00    +0.000 A 
ATOM     15  C   UNL     1       1.123   7.745  21.099  0.00  0.00    +0.000 A 
ENDROOT
BRANCH   1  16
ATOM     16  O   UNL     1       1.786   5.413  21.369  0.00  0.00    +0.000 OA
BRANCH  16  17
ATOM     17  C   UNL     1       2.708   4.437  20.857  0.00  0.00    +0.000 C 
BRANCH  17  18
ATOM     18  C   UNL     1       2.500   3.097  21.556  0.00  0.00    +0.000 C 
BRANCH  18  19
ATOM     19  O   UNL     1       3.690   2.303  21.446  0.00  0.00    +0.000 OA
ATOM     20  H   UNL     1       4.029   2.442  20.542  0.00  0.00    +0.000 HD
ENDBRANCH  18  19
BRANCH  18  21
ATOM     21  C   UNL     1       1.303   2.339  20.959  0.00  0.00    +0.000 C 
BRANCH  21  22
ATOM     22  N   UNL     1       0.528   3.248  20.110  0.00  0.00    +0.000 NA
ATOM     23  H   UNL     1      -0.464   3.128  20.326  0.00  0.00    +0.000 HD
BRANCH  22  24
ATOM     24  C   UNL     1       0.792   3.008  18.698  0.00  0.00    +0.000 C 
BRANCH  24  25
ATOM     25  C   UNL     1       1.682   1.776  18.548  0.00  0.00    +0.000 C 
BRANCH  25  27
ATOM     26  C   UNL     1       2.923   3.555  17.272  0.00  0.00    +0.000 C 
ATOM     27  C   UNL     1       2.915   2.100  17.707  0.00  0.00    +0.000 C 
ENDBRANCH  25  27
ENDBRANCH  24  25
ENDBRANCH  22  24
ENDBRANCH  21  22
ENDBRANCH  18  21
ENDBRANCH  17  18
ENDBRANCH  16  17
ENDBRANCH   1  16
BRANCH   3  28
ATOM     28  O   UNL     1       2.975   7.716  17.355  0.00  0.00    +0.000 OA
BRANCH  28  29
ATOM     29  C   UNL     1       4.385   7.972  17.315  0.00  0.00    +0.000 C 
BRANCH  29  30
ATOM     30  C   UNL     1       5.241   6.800  16.901  0.00  0.00    +0.000 A 
ATOM     31  C   UNL     1       5.051   6.116  15.698  0.00  0.00    +0.000 A 
ATOM     32  C   UNL     1       5.789   4.961  15.432  0.00  0.00    +0.000 A 
ATOM     33  C   UNL     1       6.711   4.483  16.366  0.00  0.00    +0.000 A 
ATOM     34  C   UNL     1       6.915   5.153  17.572  0.00  0.00    +0.000 A 
ATOM     35  C   UNL     1       6.182   6.310  17.831  0.00  0.00    +0.000 A 
BRANCH  34  36
ATOM     36  O   UNL     1       7.827   4.579  18.414  0.00  0.00    +0.000 OA
ATOM     37  C   UNL     1       8.152   5.298  19.600  0.00  0.00    +0.000 C 
ENDBRANCH  34  36
ENDBRANCH  29  30
ENDBRANCH  28  29
ENDBRANCH   3  28
TORSDOF 13
ENDMDL
MODEL 6
REMARK VINA RESULT:      -7.2      1.190      1.489
REMARK  Name = 
REMARK  15 active torsions:
REMARK  status: ('A' for Active; 'I' for Inactive)
REMARK    1  A    between atoms: C_1  and  C_2
REMARK    2  A    between atoms: C_2  and  C_3
REMARK    3  A    between atoms: C_3  and  C_4
REMARK    4  A    between atoms: C_4  and  N_5
REMARK    5  A    between atoms: N_5  and  C_6
REMARK    6  A    between atoms: C_6  and  C_7
REMARK    7  A    between atoms: C_7  and  O_8
REMARK    8  A    between atoms: C_7  and  C_9
REMARK    9  A    between atoms: C_9  and  O_10
REMARK   10  A    between atoms: O_10  and  C_11
REMARK   11  A    between atoms: C_13  and  O_14
REMARK   12  A    between atoms: O_14  and  C_15
REMARK   13  A    between atoms: C_15  and  C_16
REMARK   14  A    between atoms: C_20  and  O_21
REMARK   15  A    between atoms: O_21  and  C_22
REMARK                            x       y       z     vdW  Elec       q    Type
REMARK                         _______ _______ _______ _____ _____    ______ ____
ROOT
ATOM      1  C   UNL     1       3.312   7.479  17.839  0.00  0.00    +0.000 A 
ATOM      2  C   UNL     1       2.861   6.713  18.910  0.00  0.00    +0.000 A 
ATOM      3  C   UNL     1       1.949   7.234  19.858  0.00  0.00    +0.000 A 
ATOM      4  C   UNL     1       1.417   8.521  19.650  0.00  0.00    +0.000 A 
ATOM      5  C   UNL     1       0.425   9.197  20.536  0.00  0.00    +0.000 A 
ATOM      6  O   UNL     1      -0.090   8.653  21.501  0.00  0.00    +0.000 OA
ATOM      7  C   UNL     1       0.067  10.599  20.199  0.00  0.00    +0.000 A 
ATOM      8  C   UNL     1      -0.795  11.356  20.997  0.00  0.00    +0.000 A 
ATOM      9  C   UNL     1      -1.096  12.678  20.644  0.00  0.00    +0.000 A 
ATOM     10  C   UNL     1      -0.545  13.246  19.493  0.00  0.00    +0.000 A 
ATOM     11  C   UNL     1       0.308  12.491  18.699  0.00  0.00    +0.000 A 
ATOM     12  C   UNL     1       0.610  11.174  19.058  0.00  0.00    +0.000 A 
ATOM     13  O   UNL     1       1.456  10.523  18.215  0.00  0.00    +0.000 OA
ATOM     14  C   UNL     1       1.856   9.257  18.547  0.00  0.00    +0.000 A 
ATOM     15  C   UNL     1       2.804   8.749  17.663  0.00  0.00    +0.000 A 
ENDROOT
BRANCH   1  16
ATOM     16  O   UNL     1       4.272   6.902  17.046  0.00  0.00    +0.000 OA
BRANCH  16  17
ATOM     17  C   UNL     1       4.394   5.478  17.193  0.00  0.00    +0.000 C 
BRANCH  17  18
ATOM     18  C   UNL     1       5.840   5.100  17.500  0.00  0.00    +0.000 C 
BRANCH  18  19
ATOM     19  O   UNL     1       6.030   5.019  18.920  0.00  0.00    +0.000 OA
ATOM     20  H   UNL     1       5.998   5.935  19.253  0.00  0.00    +0.000 HD
ENDBRANCH  18  19
BRANCH  18  21
ATOM     21  C   UNL     1       6.820   6.118  16.894  0.00  0.00    +0.000 C 
BRANCH  21  22
ATOM     22  N   UNL     1       6.960   5.862  15.458  0.00  0.00    +0.000 NA
ATOM     23  H   UNL     1       6.250   6.403  14.961  0.00  0.00    +0.000 HD
BRANCH  22  24
ATOM     24  C   UNL     1       6.844   4.441  15.160  0.00  0.00    +0.000 C 
BRANCH  24  25
ATOM     25  C   UNL     1       5.755   4.229  14.110  0.00  0.00    +0.000 C 
BRANCH  25  27
ATOM     26  C   UNL     1       5.244   3.128  11.906  0.00  0.00    +0.000 C 
ATOM     27  C   UNL     1       6.339   3.599  12.847  0.00  0.00    +0.000 C 
ENDBRANCH  25  27
ENDBRANCH  24  25
ENDBRANCH  22  24
ENDBRANCH  21  22
ENDBRANCH  18  21
ENDBRANCH  17  18
ENDBRANCH  16  17
ENDBRANCH   1  16
BRANCH   3  28
ATOM     28  O   UNL     1       1.596   6.523  20.985  0.00  0.00    +0.000 OA
BRANCH  28  29
ATOM     29  C   UNL     1       2.352   5.325  21.205  0.00  0.00    +0.000 C 
BRANCH  29  30
ATOM     30  C   UNL     1       1.998   4.166  20.305  0.00  0.00    +0.000 A 
ATOM     31  C   UNL     1       0.679   3.804  20.026  0.00  0.00    +0.000 A 
ATOM     32  C   UNL     1       0.416   2.646  19.293  0.00  0.00    +0.000 A 
ATOM     33  C   UNL     1       1.468   1.844  18.843  0.00  0.00    +0.000 A 
ATOM     34  C   UNL     1       2.792   2.189  19.111  0.00  0.00    +0.000 A 
ATOM     35  C   UNL     1       3.050   3.351  19.837  0.00  0.00    +0.000 A 
BRANCH  34  36
ATOM     36  O   UNL     1       3.733   1.316  18.638  0.00  0.00    +0.000 OA
ATOM     37  C   UNL     1       4.332   1.632  17.385  0.00  0.00    +0.000 C 
ENDBRANCH  34  36
ENDBRANCH  29  30
ENDBRANCH  28  29
ENDBRANCH   3  28
TORSDOF 13
ENDMDL
MODEL 7
REMARK VINA RESULT:      -7.2      4.216     10.571
REMARK  Name = 
REMARK  15 active torsions:
REMARK  status: ('A' for Active; 'I' for Inactive)
REMARK    1  A    between atoms: C_1  and  C_2
REMARK    2  A    between atoms: C_2  and  C_3
REMARK    3  A    between atoms: C_3  and  C_4
REMARK    4  A    between atoms: C_4  and  N_5
REMARK    5  A    between atoms: N_5  and  C_6
REMARK    6  A    between atoms: C_6  and  C_7
REMARK    7  A    between atoms: C_7  and  O_8
REMARK    8  A    between atoms: C_7  and  C_9
REMARK    9  A    between atoms: C_9  and  O_10
REMARK   10  A    between atoms: O_10  and  C_11
REMARK   11  A    between atoms: C_13  and  O_14
REMARK   12  A    between atoms: O_14  and  C_15
REMARK   13  A    between atoms: C_15  and  C_16
REMARK   14  A    between atoms: C_20  and  O_21
REMARK   15  A    between atoms: O_21  and  C_22
REMARK                            x       y       z     vdW  Elec       q    Type
REMARK                         _______ _______ _______ _____ _____    ______ ____
ROOT
ATOM      1  C   UNL     1       0.105  10.264  22.088  0.00  0.00    +0.000 A 
ATOM      2  C   UNL     1       0.057  11.040  20.934  0.00  0.00    +0.000 A 
ATOM      3  C   UNL     1       0.642  10.600  19.723  0.00  0.00    +0.000 A 
ATOM      4  C   UNL     1       1.195   9.306  19.670  0.00  0.00    +0.000 A 
ATOM      5  C   UNL     1       1.818   8.683  18.465  0.00  0.00    +0.000 A 
ATOM      6  O   UNL     1       1.833   9.220  17.368  0.00  0.00    +0.000 OA
ATOM      7  C   UNL     1       2.439   7.345  18.643  0.00  0.00    +0.000 A 
ATOM      8  C   UNL     1       3.114   6.698  17.605  0.00  0.00    +0.000 A 
ATOM      9  C   UNL     1       3.691   5.440  17.823  0.00  0.00    +0.000 A 
ATOM     10  C   UNL     1       3.593   4.823  19.072  0.00  0.00    +0.000 A 
ATOM     11  C   UNL     1       2.918   5.466  20.101  0.00  0.00    +0.000 A 
ATOM     12  C   UNL     1       2.347   6.723  19.881  0.00  0.00    +0.000 A 
ATOM     13  O   UNL     1       1.712   7.268  20.953  0.00  0.00    +0.000 OA
ATOM     14  C   UNL     1       1.198   8.530  20.832  0.00  0.00    +0.000 A 
ATOM     15  C   UNL     1       0.675   9.010  22.029  0.00  0.00    +0.000 A 
ENDROOT
BRANCH   1  16
ATOM     16  O   UNL     1      -0.405  10.841  23.226  0.00  0.00    +0.000 OA
BRANCH  16  17
ATOM     17  C   UNL     1      -1.747  11.337  23.095  0.00  0.00    +0.000 C 
BRANCH  17  18
ATOM     18  C   UNL     1      -1.740  12.861  23.007  0.00  0.00    +0.000 C 
BRANCH  18  19
ATOM     19  O   UNL     1      -0.512  13.372  23.542  0.00  0.00    +0.000 OA
ATOM     20  H   UNL     1      -0.609  13.359  24.512  0.00  0.00    +0.000 HD
ENDBRANCH  18  19
BRANCH  18  21
ATOM     21  C   UNL     1      -2.936  13.465  23.761  0.00  0.00    +0.000 C 
BRANCH  21  22
ATOM     22  N   UNL     1      -3.985  13.820  22.802  0.00  0.00    +0.000 NA
ATOM     23  H   UNL     1      -4.193  14.816  22.901  0.00  0.00    +0.000 HD
BRANCH  22  24
ATOM     24  C   UNL     1      -5.180  13.012  23.000  0.00  0.00    +0.000 C 
BRANCH  24  25
ATOM     25  C   UNL     1      -6.239  13.408  21.973  0.00  0.00    +0.000 C 
BRANCH  25  27
ATOM     26  C   UNL     1      -7.517  12.512  19.999  0.00  0.00    +0.000 C 
ATOM     27  C   UNL     1      -6.845  12.169  21.317  0.00  0.00    +0.000 C 
ENDBRANCH  25  27
ENDBRANCH  24  25
ENDBRANCH  22  24
ENDBRANCH  21  22
ENDBRANCH  18  21
ENDBRANCH  17  18
ENDBRANCH  16  17
ENDBRANCH   1  16
BRANCH   3  28
ATOM     28  O   UNL     1       0.705  11.415  18.614  0.00  0.00    +0.000 OA
BRANCH  28  29
ATOM     29  C   UNL     1      -0.148  12.566  18.662  0.00  0.00    +0.000 C 
BRANCH  29  30
ATOM     30  C   UNL     1      -1.619  12.286  18.469  0.00  0.00    +0.000 A 
ATOM     31  C   UNL     1      -2.563  12.485  19.478  0.00  0.00    +0.000 A 
ATOM     32  C   UNL     1      -3.886  12.085  19.281  0.00  0.00    +0.000 A 
ATOM     33  C   UNL     1      -4.267  11.481  18.080  0.00  0.00    +0.000 A 
ATOM     34  C   UNL     1      -3.339  11.275  17.060  0.00  0.00    +0.000 A 
ATOM     35  C   UNL     1      -2.020  11.683  17.258  0.00  0.00    +0.000 A 
BRANCH  34  36
ATOM     36  O   UNL     1      -3.825  10.656  15.941  0.00  0.00    +0.000 OA
ATOM     37  C   UNL     1      -2.869  10.093  15.049  0.00  0.00    +0.000 C 
ENDBRANCH  34  36
ENDBRANCH  29  30
ENDBRANCH  28  29
ENDBRANCH   3  28
TORSDOF 13
ENDMDL
MODEL 8
REMARK VINA RESULT:      -7.1      1.732      5.131
REMARK  Name = 
REMARK  15 active torsions:
REMARK  status: ('A' for Active; 'I' for Inactive)
REMARK    1  A    between atoms: C_1  and  C_2
REMARK    2  A    between atoms: C_2  and  C_3
REMARK    3  A    between atoms: C_3  and  C_4
REMARK    4  A    between atoms: C_4  and  N_5
REMARK    5  A    between atoms: N_5  and  C_6
REMARK    6  A    between atoms: C_6  and  C_7
REMARK    7  A    between atoms: C_7  and  O_8
REMARK    8  A    between atoms: C_7  and  C_9
REMARK    9  A    between atoms: C_9  and  O_10
REMARK   10  A    between atoms: O_10  and  C_11
REMARK   11  A    between atoms: C_13  and  O_14
REMARK   12  A    between atoms: O_14  and  C_15
REMARK   13  A    between atoms: C_15  and  C_16
REMARK   14  A    between atoms: C_20  and  O_21
REMARK   15  A    between atoms: O_21  and  C_22
REMARK                            x       y       z     vdW  Elec       q    Type
REMARK                         _______ _______ _______ _____ _____    ______ ____
ROOT
ATOM      1  C   UNL     1       2.778   5.614  20.288  0.00  0.00    +0.000 A 
ATOM      2  C   UNL     1       3.314   5.918  19.040  0.00  0.00    +0.000 A 
ATOM      3  C   UNL     1       2.966   7.106  18.356  0.00  0.00    +0.000 A 
ATOM      4  C   UNL     1       2.136   8.042  19.003  0.00  0.00    +0.000 A 
ATOM      5  C   UNL     1       1.705   9.352  18.433  0.00  0.00    +0.000 A 
ATOM      6  O   UNL     1       2.107   9.779  17.362  0.00  0.00    +0.000 OA
ATOM      7  C   UNL     1       0.741  10.151  19.234  0.00  0.00    +0.000 A 
ATOM      8  C   UNL     1       0.213  11.358  18.769  0.00  0.00    +0.000 A 
ATOM      9  C   UNL     1      -0.700  12.071  19.556  0.00  0.00    +0.000 A 
ATOM     10  C   UNL     1      -1.083  11.589  20.809  0.00  0.00    +0.000 A 
ATOM     11  C   UNL     1      -0.554  10.391  21.272  0.00  0.00    +0.000 A 
ATOM     12  C   UNL     1       0.353   9.679  20.481  0.00  0.00    +0.000 A 
ATOM     13  O   UNL     1       0.811   8.519  21.024  0.00  0.00    +0.000 OA
ATOM     14  C   UNL     1       1.640   7.732  20.272  0.00  0.00    +0.000 A 
ATOM     15  C   UNL     1       1.944   6.527  20.898  0.00  0.00    +0.000 A 
ENDROOT
BRANCH   1  16
ATOM     16  O   UNL     1       3.110   4.386  20.805  0.00  0.00    +0.000 OA
BRANCH  16  17
ATOM     17  C   UNL     1       4.259   3.773  20.201  0.00  0.00    +0.000 C 
BRANCH  17  18
ATOM     18  C   UNL     1       4.140   2.253  20.260  0.00  0.00    +0.000 C 
BRANCH  18  19
ATOM     19  O   UNL     1       5.157   1.719  21.119  0.00  0.00    +0.000 OA
ATOM     20  H   UNL     1       5.993   2.141  20.848  0.00  0.00    +0.000 HD
ENDBRANCH  18  19
BRANCH  18  21
ATOM     21  C   UNL     1       4.255   1.632  18.858  0.00  0.00    +0.000 C 
BRANCH  21  22
ATOM     22  N   UNL     1       2.915   1.471  18.287  0.00  0.00    +0.000 NA
ATOM     23  H   UNL     1       2.876   0.575  17.796  0.00  0.00    +0.000 HD
BRANCH  22  24
ATOM     24  C   UNL     1       2.583   2.574  17.395  0.00  0.00    +0.000 C 
BRANCH  24  25
ATOM     25  C   UNL     1       1.357   3.311  17.930  0.00  0.00    +0.000 C 
BRANCH  25  27
ATOM     26  C   UNL     1       0.467   3.057  20.271  0.00  0.00    +0.000 C 
ATOM     27  C   UNL     1       0.573   2.423  18.895  0.00  0.00    +0.000 C 
ENDBRANCH  25  27
ENDBRANCH  24  25
ENDBRANCH  22  24
ENDBRANCH  21  22
ENDBRANCH  18  21
ENDBRANCH  17  18
ENDBRANCH  16  17
ENDBRANCH   1  16
BRANCH   3  28
ATOM     28  O   UNL     1       3.396   7.351  17.070  0.00  0.00    +0.000 OA
BRANCH  28  29
ATOM     29  C   UNL     1       4.809   7.555  16.935  0.00  0.00    +0.000 C 
BRANCH  29  30
ATOM     30  C   UNL     1       5.602   6.332  16.544  0.00  0.00    +0.000 A 
ATOM     31  C   UNL     1       6.380   5.615  17.456  0.00  0.00    +0.000 A 
ATOM     32  C   UNL     1       7.192   4.572  17.008  0.00  0.00    +0.000 A 
ATOM     33  C   UNL     1       7.234   4.247  15.649  0.00  0.00    +0.000 A 
ATOM     34  C   UNL     1       6.465   4.951  14.724  0.00  0.00    +0.000 A 
ATOM     35  C   UNL     1       5.649   5.987  15.177  0.00  0.00    +0.000 A 
BRANCH  34  36
ATOM     36  O   UNL     1       6.606   4.555  13.422  0.00  0.00    +0.000 OA
ATOM     37  C   UNL     1       5.835   3.434  13.002  0.00  0.00    +0.000 C 
ENDBRANCH  34  36
ENDBRANCH  29  30
ENDBRANCH  28  29
ENDBRANCH   3  28
TORSDOF 13
ENDMDL
MODEL 9
REMARK VINA RESULT:      -7.1      1.342      1.887
REMARK  Name = 
REMARK  15 active torsions:
REMARK  status: ('A' for Active; 'I' for Inactive)
REMARK    1  A    between atoms: C_1  and  C_2
REMARK    2  A    between atoms: C_2  and  C_3
REMARK    3  A    between atoms: C_3  and  C_4
REMARK    4  A    between atoms: C_4  and  N_5
REMARK    5  A    between atoms: N_5  and  C_6
REMARK    6  A    between atoms: C_6  and  C_7
REMARK    7  A    between atoms: C_7  and  O_8
REMARK    8  A    between atoms: C_7  and  C_9
REMARK    9  A    between atoms: C_9  and  O_10
REMARK   10  A    between atoms: O_10  and  C_11
REMARK   11  A    between atoms: C_13  and  O_14
REMARK   12  A    between atoms: O_14  and  C_15
REMARK   13  A    between atoms: C_15  and  C_16
REMARK   14  A    between atoms: C_20  and  O_21
REMARK   15  A    between atoms: O_21  and  C_22
REMARK                            x       y       z     vdW  Elec       q    Type
REMARK                         _______ _______ _______ _____ _____    ______ ____
ROOT
ATOM      1  C   UNL     1       3.262   7.696  17.900  0.00  0.00    +0.000 A 
ATOM      2  C   UNL     1       2.797   6.934  18.968  0.00  0.00    +0.000 A 
ATOM      3  C   UNL     1       1.854   7.450  19.888  0.00  0.00    +0.000 A 
ATOM      4  C   UNL     1       1.307   8.726  19.653  0.00  0.00    +0.000 A 
ATOM      5  C   UNL     1       0.283   9.396  20.507  0.00  0.00    +0.000 A 
ATOM      6  O   UNL     1      -0.247   8.854  21.465  0.00  0.00    +0.000 OA
ATOM      7  C   UNL     1      -0.089  10.788  20.146  0.00  0.00    +0.000 A 
ATOM      8  C   UNL     1      -0.982  11.540  20.914  0.00  0.00    +0.000 A 
ATOM      9  C   UNL     1      -1.295  12.853  20.539  0.00  0.00    +0.000 A 
ATOM     10  C   UNL     1      -0.725  13.418  19.396  0.00  0.00    +0.000 A 
ATOM     11  C   UNL     1       0.160  12.668  18.632  0.00  0.00    +0.000 A 
ATOM     12  C   UNL     1       0.473  11.360  19.012  0.00  0.00    +0.000 A 
ATOM     13  O   UNL     1       1.350  10.713  18.197  0.00  0.00    +0.000 OA
ATOM     14  C   UNL     1       1.762   9.457  18.553  0.00  0.00    +0.000 A 
ATOM     15  C   UNL     1       2.739   8.955  17.698  0.00  0.00    +0.000 A 
ENDROOT
BRANCH   1  16
ATOM     16  O   UNL     1       4.251   7.126  17.137  0.00  0.00    +0.000 OA
BRANCH  16  17
ATOM     17  C   UNL     1       4.902   5.999  17.746  0.00  0.00    +0.000 C 
BRANCH  17  18
ATOM     18  C   UNL     1       6.417   6.131  17.617  0.00  0.00    +0.000 C 
BRANCH  18  19
ATOM     19  O   UNL     1       6.745   7.391  17.014  0.00  0.00    +0.000 OA
ATOM     20  H   UNL     1       5.902   7.870  16.907  0.00  0.00    +0.000 HD
ENDBRANCH  18  19
BRANCH  18  21
ATOM     21  C   UNL     1       7.006   4.980  16.786  0.00  0.00    +0.000 C 
BRANCH  21  22
ATOM     22  N   UNL     1       7.340   5.470  15.446  0.00  0.00    +0.000 NA
ATOM     23  H   UNL     1       7.556   6.467  15.510  0.00  0.00    +0.000 HD
BRANCH  22  24
ATOM     24  C   UNL     1       6.255   5.225  14.507  0.00  0.00    +0.000 C 
BRANCH  24  25
ATOM     25  C   UNL     1       6.162   3.729  14.213  0.00  0.00    +0.000 C 
BRANCH  25  27
ATOM     26  C   UNL     1       7.072   3.818  11.869  0.00  0.00    +0.000 C 
ATOM     27  C   UNL     1       5.869   3.486  12.734  0.00  0.00    +0.000 C 
ENDBRANCH  25  27
ENDBRANCH  24  25
ENDBRANCH  22  24
ENDBRANCH  21  22
ENDBRANCH  18  21
ENDBRANCH  17  18
ENDBRANCH  16  17
ENDBRANCH   1  16
BRANCH   3  28
ATOM     28  O   UNL     1       1.484   6.746  21.014  0.00  0.00    +0.000 OA
BRANCH  28  29
ATOM     29  C   UNL     1       0.673   5.590  20.764  0.00  0.00    +0.000 C 
BRANCH  29  30
ATOM     30  C   UNL     1       1.432   4.298  20.585  0.00  0.00    +0.000 A 
ATOM     31  C   UNL     1       2.126   3.680  21.627  0.00  0.00    +0.000 A 
ATOM     32  C   UNL     1       2.914   2.558  21.368  0.00  0.00    +0.000 A 
ATOM     33  C   UNL     1       3.017   2.054  20.069  0.00  0.00    +0.000 A 
ATOM     34  C   UNL     1       2.332   2.658  19.015  0.00  0.00    +0.000 A 
ATOM     35  C   UNL     1       1.539   3.773  19.279  0.00  0.00    +0.000 A 
BRANCH  34  36
ATOM     36  O   UNL     1       2.528   2.088  17.787  0.00  0.00    +0.000 OA
ATOM     37  C   UNL     1       3.793   2.306  17.170  0.00  0.00    +0.000 C 
ENDBRANCH  34  36
ENDBRANCH  29  30
ENDBRANCH  28  29
ENDBRANCH   3  28
TORSDOF 13
ENDMDL
