MODEL 1
REMARK VINA RESULT:      -7.9      0.000      0.000
REMARK  Name = 
REMARK  7 active torsions:
REMARK  status: ('A' for Active; 'I' for Inactive)
REMARK    1  A    between atoms: C_1  and  C_2
REMARK    2  A    between atoms: C_2  and  C_3
REMARK    3  A    between atoms: C_2  and  S_4
REMARK    4  A    between atoms: S_4  and  C_7
REMARK    5  A    between atoms: C_7  and  C_8
REMARK    6  A    between atoms: C_12  and  N_13
REMARK    7  A    between atoms: C_15  and  C_16
REMARK                            x       y       z     vdW  Elec       q    Type
REMARK                         _______ _______ _______ _____ _____    ______ ____
ROOT
ATOM      1  C   UNL     1       4.113   5.829  18.281  0.00  0.00    +0.000 C 
ATOM      2  O   UNL     1       3.686   6.776  17.620  0.00  0.00    +0.000 OA
ATOM      3  N   UNL     1       5.455   5.572  18.392  0.00  0.00    +0.000 N 
ATOM      4  C   UNL     1       6.564   6.375  17.900  0.00  0.00    +0.000 C 
ATOM      5  C   UNL     1       7.227   5.076  17.416  0.00  0.00    +0.000 C 
ATOM      6  C   UNL     1       6.147   4.305  18.202  0.00  0.00    +0.000 C 
ENDROOT
BRANCH   5   7
ATOM      7  N   UNL     1       7.127   4.864  15.998  0.00  0.00    +0.000 N 
ATOM      8  C   UNL     1       6.409   3.897  15.349  0.00  0.00    +0.000 A 
ATOM      9  C   UNL     1       6.558   4.205  14.015  0.00  0.00    +0.000 A 
ATOM     10  N   UNL     1       7.394   5.287  13.901  0.00  0.00    +0.000 NA
ATOM     11  N   UNL     1       7.736   5.682  15.122  0.00  0.00    +0.000 NA
BRANCH   9  12
ATOM     12  C   UNL     1       5.927   3.527  12.895  0.00  0.00    +0.000 A 
ATOM     13  C   UNL     1       6.552   2.460  12.232  0.00  0.00    +0.000 A 
ATOM     14  C   UNL     1       5.923   1.813  11.165  0.00  0.00    +0.000 A 
ATOM     15  C   UNL     1       4.661   2.224  10.748  0.00  0.00    +0.000 A 
ATOM     16  C   UNL     1       4.024   3.280  11.398  0.00  0.00    +0.000 A 
ATOM     17  C   UNL     1       4.653   3.927  12.467  0.00  0.00    +0.000 A 
ENDBRANCH   9  12
ENDBRANCH   5   7
BRANCH   1  18
ATOM     18  C   UNL     1       3.178   4.862  18.951  0.00  0.00    +0.000 C 
BRANCH  18  19
ATOM     19  S   UNL     1       2.440   3.823  17.710  0.00  0.00    +0.000 S 
ATOM     20  O   UNL     1       3.398   3.637  16.636  0.00  0.00    +0.000 OA
ATOM     21  O   UNL     1       1.110   4.337  17.433  0.00  0.00    +0.000 OA
BRANCH  19  23
ATOM     22  C   UNL     1       3.533   1.491  18.587  0.00  0.00    +0.000 C 
ATOM     23  C   UNL     1       2.194   2.225  18.505  0.00  0.00    +0.000 C 
ATOM     24  C   UNL     1       1.569   2.342  19.888  0.00  0.00    +0.000 C 
ENDBRANCH  19  23
ENDBRANCH  18  19
ENDBRANCH   1  18
TORSDOF 5
ENDMDL
MODEL 2
REMARK VINA RESULT:      -7.5      3.654      6.775
REMARK  Name = 
REMARK  7 active torsions:
REMARK  status: ('A' for Active; 'I' for Inactive)
REMARK    1  A    between atoms: C_1  and  C_2
REMARK    2  A    between atoms: C_2  and  C_3
REMARK    3  A    between atoms: C_2  and  S_4
REMARK    4  A    between atoms: S_4  and  C_7
REMARK    5  A    between atoms: C_7  and  C_8
REMARK    6  A    between atoms: C_12  and  N_13
REMARK    7  A    between atoms: C_15  and  C_16
REMARK                            x       y       z     vdW  Elec       q    Type
REMARK                         _______ _______ _______ _____ _____    ______ ____
ROOT
ATOM      1  C   UNL     1       4.294   5.447  18.698  0.00  0.00    +0.000 C 
ATOM      2  O   UNL     1       3.965   6.079  19.702  0.00  0.00    +0.000 OA
ATOM      3  N   UNL     1       5.594   5.076  18.471  0.00  0.00    +0.000 N 
ATOM      4  C   UNL     1       6.736   5.227  19.360  0.00  0.00    +0.000 C 
ATOM      5  C   UNL     1       7.557   5.693  18.148  0.00  0.00    +0.000 C 
ATOM      6  C   UNL     1       6.381   5.247  17.257  0.00  0.00    +0.000 C 
ENDROOT
BRANCH   5   7
ATOM      7  N   UNL     1       7.772   7.114  18.101  0.00  0.00    +0.000 N 
ATOM      8  C   UNL     1       8.568   7.863  18.924  0.00  0.00    +0.000 A 
ATOM      9  C   UNL     1       8.512   9.129  18.386  0.00  0.00    +0.000 A 
ATOM     10  N   UNL     1       7.654   9.117  17.315  0.00  0.00    +0.000 NA
ATOM     11  N   UNL     1       7.207   7.878  17.151  0.00  0.00    +0.000 NA
BRANCH   9  12
ATOM     12  C   UNL     1       9.249  10.296  18.841  0.00  0.00    +0.000 A 
ATOM     13  C   UNL     1       9.363  10.610  20.205  0.00  0.00    +0.000 A 
ATOM     14  C   UNL     1      10.086  11.729  20.624  0.00  0.00    +0.000 A 
ATOM     15  C   UNL     1      10.705  12.549  19.686  0.00  0.00    +0.000 A 
ATOM     16  C   UNL     1      10.605  12.250  18.328  0.00  0.00    +0.000 A 
ATOM     17  C   UNL     1       9.882  11.129  17.909  0.00  0.00    +0.000 A 
ENDBRANCH   9  12
ENDBRANCH   5   7
BRANCH   1  18
ATOM     18  C   UNL     1       3.294   5.103  17.630  0.00  0.00    +0.000 C 
BRANCH  18  19
ATOM     19  S   UNL     1       2.511   3.562  18.051  0.00  0.00    +0.000 S 
ATOM     20  O   UNL     1       3.407   2.478  17.695  0.00  0.00    +0.000 OA
ATOM     21  O   UNL     1       1.153   3.599  17.535  0.00  0.00    +0.000 OA
BRANCH  19  23
ATOM     22  C   UNL     1       0.888   3.369  20.226  0.00  0.00    +0.000 C 
ATOM     23  C   UNL     1       2.355   3.576  19.845  0.00  0.00    +0.000 C 
ATOM     24  C   UNL     1       3.230   2.531  20.523  0.00  0.00    +0.000 C 
ENDBRANCH  19  23
ENDBRANCH  18  19
ENDBRANCH   1  18
TORSDOF 5
ENDMDL
MODEL 3
REMARK VINA RESULT:      -7.5      1.416      1.823
REMARK  Name = 
REMARK  7 active torsions:
REMARK  status: ('A' for Active; 'I' for Inactive)
REMARK    1  A    between atoms: C_1  and  C_2
REMARK    2  A    between atoms: C_2  and  C_3
REMARK    3  A    between atoms: C_2  and  S_4
REMARK    4  A    between atoms: S_4  and  C_7
REMARK    5  A    between atoms: C_7  and  C_8
REMARK    6  A    between atoms: C_12  and  N_13
REMARK    7  A    between atoms: C_15  and  C_16
REMARK                            x       y       z     vdW  Elec       q    Type
REMARK                         _______ _______ _______ _____ _____    ______ ____
ROOT
ATOM      1  C   UNL     1       3.356   5.288  18.537  0.00  0.00    +0.000 C 
ATOM      2  O   UNL     1       2.473   5.024  17.721  0.00  0.00    +0.000 OA
ATOM      3  N   UNL     1       4.328   6.218  18.275  0.00  0.00    +0.000 N 
ATOM      4  C   UNL     1       4.430   7.107  17.127  0.00  0.00    +0.000 C 
ATOM      5  C   UNL     1       5.930   6.781  17.068  0.00  0.00    +0.000 C 
ATOM      6  C   UNL     1       5.770   6.085  18.435  0.00  0.00    +0.000 C 
ENDROOT
BRANCH   5   7
ATOM      7  N   UNL     1       6.286   5.860  16.023  0.00  0.00    +0.000 N 
ATOM      8  C   UNL     1       5.444   5.223  15.152  0.00  0.00    +0.000 A 
ATOM      9  C   UNL     1       6.289   4.557  14.293  0.00  0.00    +0.000 A 
ATOM     10  N   UNL     1       7.584   4.758  14.701  0.00  0.00    +0.000 NA
ATOM     11  N   UNL     1       7.569   5.557  15.762  0.00  0.00    +0.000 NA
BRANCH   9  12
ATOM     12  C   UNL     1       5.902   3.784  13.126  0.00  0.00    +0.000 A 
ATOM     13  C   UNL     1       6.811   2.943  12.464  0.00  0.00    +0.000 A 
ATOM     14  C   UNL     1       6.416   2.197  11.351  0.00  0.00    +0.000 A 
ATOM     15  C   UNL     1       5.108   2.281  10.884  0.00  0.00    +0.000 A 
ATOM     16  C   UNL     1       4.192   3.109  11.532  0.00  0.00    +0.000 A 
ATOM     17  C   UNL     1       4.587   3.854  12.647  0.00  0.00    +0.000 A 
ENDBRANCH   9  12
ENDBRANCH   5   7
BRANCH   1  18
ATOM     18  C   UNL     1       3.456   4.552  19.844  0.00  0.00    +0.000 C 
BRANCH  18  19
ATOM     19  S   UNL     1       3.620   2.812  19.513  0.00  0.00    +0.000 S 
ATOM     20  O   UNL     1       4.554   2.248  20.469  0.00  0.00    +0.000 OA
ATOM     21  O   UNL     1       3.836   2.650  18.086  0.00  0.00    +0.000 OA
BRANCH  19  23
ATOM     22  C   UNL     1       1.360   2.840  21.026  0.00  0.00    +0.000 C 
ATOM     23  C   UNL     1       1.999   2.103  19.848  0.00  0.00    +0.000 C 
ATOM     24  C   UNL     1       1.076   2.137  18.638  0.00  0.00    +0.000 C 
ENDBRANCH  19  23
ENDBRANCH  18  19
ENDBRANCH   1  18
TORSDOF 5
ENDMDL
MODEL 4
REMARK VINA RESULT:      -7.4      3.661      6.839
REMARK  Name = 
REMARK  7 active torsions:
REMARK  status: ('A' for Active; 'I' for Inactive)
REMARK    1  A    between atoms: C_1  and  C_2
REMARK    2  A    between atoms: C_2  and  C_3
REMARK    3  A    between atoms: C_2  and  S_4
REMARK    4  A    between atoms: S_4  and  C_7
REMARK    5  A    between atoms: C_7  and  C_8
REMARK    6  A    between atoms: C_12  and  N_13
REMARK    7  A    between atoms: C_15  and  C_16
REMARK                            x       y       z     vdW  Elec       q    Type
REMARK                         _______ _______ _______ _____ _____    ______ ____
ROOT
ATOM      1  C   UNL     1       5.048   4.603  18.750  0.00  0.00    +0.000 C 
ATOM      2  O   UNL     1       5.939   3.878  19.194  0.00  0.00    +0.000 OA
ATOM      3  N   UNL     1       5.228   5.360  17.621  0.00  0.00    +0.000 N 
ATOM      4  C   UNL     1       6.368   5.362  16.717  0.00  0.00    +0.000 C 
ATOM      5  C   UNL     1       6.288   6.896  16.697  0.00  0.00    +0.000 C 
ATOM      6  C   UNL     1       4.937   6.774  17.430  0.00  0.00    +0.000 C 
ENDROOT
BRANCH   5   7
ATOM      7  N   UNL     1       7.289   7.542  17.500  0.00  0.00    +0.000 N 
ATOM      8  C   UNL     1       7.679   8.853  17.448  0.00  0.00    +0.000 A 
ATOM      9  C   UNL     1       8.570   8.981  18.490  0.00  0.00    +0.000 A 
ATOM     10  N   UNL     1       8.735   7.756  19.085  0.00  0.00    +0.000 NA
ATOM     11  N   UNL     1       7.945   6.883  18.470  0.00  0.00    +0.000 NA
BRANCH   9  12
ATOM     12  C   UNL     1       9.224  10.204  18.924  0.00  0.00    +0.000 A 
ATOM     13  C   UNL     1       9.812  11.091  18.007  0.00  0.00    +0.000 A 
ATOM     14  C   UNL     1      10.426  12.268  18.443  0.00  0.00    +0.000 A 
ATOM     15  C   UNL     1      10.459  12.575  19.800  0.00  0.00    +0.000 A 
ATOM     16  C   UNL     1       9.876  11.707  20.723  0.00  0.00    +0.000 A 
ATOM     17  C   UNL     1       9.262  10.530  20.286  0.00  0.00    +0.000 A 
ENDBRANCH   9  12
ENDBRANCH   5   7
BRANCH   1  18
ATOM     18  C   UNL     1       3.733   4.747  19.462  0.00  0.00    +0.000 C 
BRANCH  18  19
ATOM     19  S   UNL     1       2.460   3.989  18.478  0.00  0.00    +0.000 S 
ATOM     20  O   UNL     1       3.009   2.802  17.849  0.00  0.00    +0.000 OA
ATOM     21  O   UNL     1       1.839   5.029  17.677  0.00  0.00    +0.000 OA
BRANCH  19  23
ATOM     22  C   UNL     1       0.632   2.107  19.197  0.00  0.00    +0.000 C 
ATOM     23  C   UNL     1       1.201   3.453  19.649  0.00  0.00    +0.000 C 
ATOM     24  C   UNL     1       1.723   3.354  21.076  0.00  0.00    +0.000 C 
ENDBRANCH  19  23
ENDBRANCH  18  19
ENDBRANCH   1  18
TORSDOF 5
ENDMDL
MODEL 5
REMARK VINA RESULT:      -7.3      3.703      6.849
REMARK  Name = 
REMARK  7 active torsions:
REMARK  status: ('A' for Active; 'I' for Inactive)
REMARK    1  A    between atoms: C_1  and  C_2
REMARK    2  A    between atoms: C_2  and  C_3
REMARK    3  A    between atoms: C_2  and  S_4
REMARK    4  A    between atoms: S_4  and  C_7
REMARK    5  A    between atoms: C_7  and  C_8
REMARK    6  A    between atoms: C_12  and  N_13
REMARK    7  A    between atoms: C_15  and  C_16
REMARK                            x       y       z     vdW  Elec       q    Type
REMARK                         _______ _______ _______ _____ _____    ______ ____
ROOT
ATOM      1  C   UNL     1       5.086   4.520  18.670  0.00  0.00    +0.000 C 
ATOM      2  O   UNL     1       6.006   3.805  19.067  0.00  0.00    +0.000 OA
ATOM      3  N   UNL     1       5.214   5.316  17.561  0.00  0.00    +0.000 N 
ATOM      4  C   UNL     1       6.328   5.375  16.626  0.00  0.00    +0.000 C 
ATOM      5  C   UNL     1       6.209   6.906  16.656  0.00  0.00    +0.000 C 
ATOM      6  C   UNL     1       4.883   6.727  17.421  0.00  0.00    +0.000 C 
ENDROOT
BRANCH   5   7
ATOM      7  N   UNL     1       7.217   7.554  17.451  0.00  0.00    +0.000 N 
ATOM      8  C   UNL     1       7.607   8.864  17.395  0.00  0.00    +0.000 A 
ATOM      9  C   UNL     1       8.505   8.994  18.430  0.00  0.00    +0.000 A 
ATOM     10  N   UNL     1       8.672   7.769  19.026  0.00  0.00    +0.000 NA
ATOM     11  N   UNL     1       7.878   6.895  18.418  0.00  0.00    +0.000 NA
BRANCH   9  12
ATOM     12  C   UNL     1       9.163  10.217  18.858  0.00  0.00    +0.000 A 
ATOM     13  C   UNL     1       9.411  10.485  20.213  0.00  0.00    +0.000 A 
ATOM     14  C   UNL     1      10.057  11.661  20.603  0.00  0.00    +0.000 A 
ATOM     15  C   UNL     1      10.462  12.584  19.644  0.00  0.00    +0.000 A 
ATOM     16  C   UNL     1      10.226  12.331  18.293  0.00  0.00    +0.000 A 
ATOM     17  C   UNL     1       9.582  11.153  17.903  0.00  0.00    +0.000 A 
ENDBRANCH   9  12
ENDBRANCH   5   7
BRANCH   1  18
ATOM     18  C   UNL     1       3.787   4.608  19.422  0.00  0.00    +0.000 C 
BRANCH  18  19
ATOM     19  S   UNL     1       2.717   3.297  18.877  0.00  0.00    +0.000 S 
ATOM     20  O   UNL     1       3.441   2.043  18.969  0.00  0.00    +0.000 OA
ATOM     21  O   UNL     1       2.112   3.710  17.623  0.00  0.00    +0.000 OA
BRANCH  19  23
ATOM     22  C   UNL     1       1.857   2.534  21.342  0.00  0.00    +0.000 C 
ATOM     23  C   UNL     1       1.374   3.242  20.075  0.00  0.00    +0.000 C 
ATOM     24  C   UNL     1       0.828   4.621  20.416  0.00  0.00    +0.000 C 
ENDBRANCH  19  23
ENDBRANCH  18  19
ENDBRANCH   1  18
TORSDOF 5
ENDMDL
MODEL 6
REMARK VINA RESULT:      -7.3      1.623      1.948
REMARK  Name = 
REMARK  7 active torsions:
REMARK  status: ('A' for Active; 'I' for Inactive)
REMARK    1  A    between atoms: C_1  and  C_2
REMARK    2  A    between atoms: C_2  and  C_3
REMARK    3  A    between atoms: C_2  and  S_4
REMARK    4  A    between atoms: S_4  and  C_7
REMARK    5  A    between atoms: C_7  and  C_8
REMARK    6  A    between atoms: C_12  and  N_13
REMARK    7  A    between atoms: C_15  and  C_16
REMARK                            x       y       z     vdW  Elec       q    Type
REMARK                         _______ _______ _______ _____ _____    ______ ____
ROOT
ATOM      1  C   UNL     1       4.165   4.156  18.252  0.00  0.00    +0.000 C 
ATOM      2  O   UNL     1       3.198   4.525  17.586  0.00  0.00    +0.000 OA
ATOM      3  N   UNL     1       5.356   4.834  18.234  0.00  0.00    +0.000 N 
ATOM      4  C   UNL     1       5.657   6.099  17.581  0.00  0.00    +0.000 C 
ATOM      5  C   UNL     1       6.981   5.484  17.105  0.00  0.00    +0.000 C 
ATOM      6  C   UNL     1       6.696   4.295  18.045  0.00  0.00    +0.000 C 
ENDROOT
BRANCH   5   7
ATOM      7  N   UNL     1       6.981   5.098  15.720  0.00  0.00    +0.000 N 
ATOM      8  C   UNL     1       6.233   4.116  15.129  0.00  0.00    +0.000 A 
ATOM      9  C   UNL     1       6.520   4.235  13.788  0.00  0.00    +0.000 A 
ATOM     10  N   UNL     1       7.458   5.222  13.622  0.00  0.00    +0.000 NA
ATOM     11  N   UNL     1       7.733   5.743  14.812  0.00  0.00    +0.000 NA
BRANCH   9  12
ATOM     12  C   UNL     1       5.924   3.471  12.705  0.00  0.00    +0.000 A 
ATOM     13  C   UNL     1       6.586   2.379  12.122  0.00  0.00    +0.000 A 
ATOM     14  C   UNL     1       5.991   1.650  11.089  0.00  0.00    +0.000 A 
ATOM     15  C   UNL     1       4.727   2.001  10.627  0.00  0.00    +0.000 A 
ATOM     16  C   UNL     1       4.054   3.081  11.198  0.00  0.00    +0.000 A 
ATOM     17  C   UNL     1       4.649   3.810  12.232  0.00  0.00    +0.000 A 
ENDBRANCH   9  12
ENDBRANCH   5   7
BRANCH   1  18
ATOM     18  C   UNL     1       4.111   2.898  19.073  0.00  0.00    +0.000 C 
BRANCH  18  19
ATOM     19  S   UNL     1       3.110   3.194  20.513  0.00  0.00    +0.000 S 
ATOM     20  O   UNL     1       3.049   4.625  20.745  0.00  0.00    +0.000 OA
ATOM     21  O   UNL     1       3.562   2.295  21.561  0.00  0.00    +0.000 OA
BRANCH  19  23
ATOM     22  C   UNL     1       0.523   3.850  19.991  0.00  0.00    +0.000 C 
ATOM     23  C   UNL     1       1.455   2.640  20.071  0.00  0.00    +0.000 C 
ATOM     24  C   UNL     1       1.421   1.860  18.764  0.00  0.00    +0.000 C 
ENDBRANCH  19  23
ENDBRANCH  18  19
ENDBRANCH   1  18
TORSDOF 5
ENDMDL
MODEL 7
REMARK VINA RESULT:      -7.2      3.933      7.070
REMARK  Name = 
REMARK  7 active torsions:
REMARK  status: ('A' for Active; 'I' for Inactive)
REMARK    1  A    between atoms: C_1  and  C_2
REMARK    2  A    between atoms: C_2  and  C_3
REMARK    3  A    between atoms: C_2  and  S_4
REMARK    4  A    between atoms: S_4  and  C_7
REMARK    5  A    between atoms: C_7  and  C_8
REMARK    6  A    between atoms: C_12  and  N_13
REMARK    7  A    between atoms: C_15  and  C_16
REMARK                            x       y       z     vdW  Elec       q    Type
REMARK                         _______ _______ _______ _____ _____    ______ ____
ROOT
ATOM      1  C   UNL     1       5.346   4.618  18.753  0.00  0.00    +0.000 C 
ATOM      2  O   UNL     1       6.295   3.953  19.169  0.00  0.00    +0.000 OA
ATOM      3  N   UNL     1       5.446   5.398  17.630  0.00  0.00    +0.000 N 
ATOM      4  C   UNL     1       6.563   5.490  16.702  0.00  0.00    +0.000 C 
ATOM      5  C   UNL     1       6.375   7.015  16.702  0.00  0.00    +0.000 C 
ATOM      6  C   UNL     1       5.052   6.790  17.462  0.00  0.00    +0.000 C 
ENDROOT
BRANCH   5   7
ATOM      7  N   UNL     1       7.346   7.722  17.491  0.00  0.00    +0.000 N 
ATOM      8  C   UNL     1       7.659   9.052  17.429  0.00  0.00    +0.000 A 
ATOM      9  C   UNL     1       8.553   9.237  18.461  0.00  0.00    +0.000 A 
ATOM     10  N   UNL     1       8.793   8.026  19.059  0.00  0.00    +0.000 NA
ATOM     11  N   UNL     1       8.049   7.106  18.457  0.00  0.00    +0.000 NA
BRANCH   9  12
ATOM     12  C   UNL     1       9.140  10.497  18.882  0.00  0.00    +0.000 A 
ATOM     13  C   UNL     1       9.185  11.611  18.028  0.00  0.00    +0.000 A 
ATOM     14  C   UNL     1       9.743  12.818  18.456  0.00  0.00    +0.000 A 
ATOM     15  C   UNL     1      10.262  12.929  19.743  0.00  0.00    +0.000 A 
ATOM     16  C   UNL     1      10.222  11.833  20.604  0.00  0.00    +0.000 A 
ATOM     17  C   UNL     1       9.663  10.625  20.176  0.00  0.00    +0.000 A 
ENDBRANCH   9  12
ENDBRANCH   5   7
BRANCH   1  18
ATOM     18  C   UNL     1       4.039   4.661  19.495  0.00  0.00    +0.000 C 
BRANCH  18  19
ATOM     19  S   UNL     1       3.283   3.052  19.422  0.00  0.00    +0.000 S 
ATOM     20  O   UNL     1       3.336   2.458  20.745  0.00  0.00    +0.000 OA
ATOM     21  O   UNL     1       3.837   2.353  18.275  0.00  0.00    +0.000 OA
BRANCH  19  23
ATOM     22  C   UNL     1       0.867   4.009  20.225  0.00  0.00    +0.000 C 
ATOM     23  C   UNL     1       1.552   3.352  19.026  0.00  0.00    +0.000 C 
ATOM     24  C   UNL     1       1.369   4.206  17.779  0.00  0.00    +0.000 C 
ENDBRANCH  19  23
ENDBRANCH  18  19
ENDBRANCH   1  18
TORSDOF 5
ENDMDL
MODEL 8
REMARK VINA RESULT:      -7.2      0.913      1.541
REMARK  Name = 
REMARK  7 active torsions:
REMARK  status: ('A' for Active; 'I' for Inactive)
REMARK    1  A    between atoms: C_1  and  C_2
REMARK    2  A    between atoms: C_2  and  C_3
REMARK    3  A    between atoms: C_2  and  S_4
REMARK    4  A    between atoms: S_4  and  C_7
REMARK    5  A    between atoms: C_7  and  C_8
REMARK    6  A    between atoms: C_12  and  N_13
REMARK    7  A    between atoms: C_15  and  C_16
REMARK                            x       y       z     vdW  Elec       q    Type
REMARK                         _______ _______ _______ _____ _____    ______ ____
ROOT
ATOM      1  C   UNL     1       4.173   5.349  18.132  0.00  0.00    +0.000 C 
ATOM      2  O   UNL     1       3.437   6.048  17.434  0.00  0.00    +0.000 OA
ATOM      3  N   UNL     1       5.533   5.519  18.144  0.00  0.00    +0.000 N 
ATOM      4  C   UNL     1       6.311   6.560  17.490  0.00  0.00    +0.000 C 
ATOM      5  C   UNL     1       7.310   5.476  17.059  0.00  0.00    +0.000 C 
ATOM      6  C   UNL     1       6.568   4.505  18.000  0.00  0.00    +0.000 C 
ENDROOT
BRANCH   5   7
ATOM      7  N   UNL     1       7.197   5.094  15.678  0.00  0.00    +0.000 N 
ATOM      8  C   UNL     1       6.372   4.142  15.143  0.00  0.00    +0.000 A 
ATOM      9  C   UNL     1       6.566   4.253  13.784  0.00  0.00    +0.000 A 
ATOM     10  N   UNL     1       7.528   5.204  13.551  0.00  0.00    +0.000 NA
ATOM     11  N   UNL     1       7.906   5.712  14.719  0.00  0.00    +0.000 NA
BRANCH   9  12
ATOM     12  C   UNL     1       5.866   3.515  12.747  0.00  0.00    +0.000 A 
ATOM     13  C   UNL     1       4.591   3.899  12.302  0.00  0.00    +0.000 A 
ATOM     14  C   UNL     1       3.939   3.184  11.294  0.00  0.00    +0.000 A 
ATOM     15  C   UNL     1       4.554   2.076  10.718  0.00  0.00    +0.000 A 
ATOM     16  C   UNL     1       5.821   1.684  11.145  0.00  0.00    +0.000 A 
ATOM     17  C   UNL     1       6.474   2.401  12.153  0.00  0.00    +0.000 A 
ENDBRANCH   9  12
ENDBRANCH   5   7
BRANCH   1  18
ATOM     18  C   UNL     1       3.621   4.224  18.961  0.00  0.00    +0.000 C 
BRANCH  18  19
ATOM     19  S   UNL     1       1.878   4.487  19.200  0.00  0.00    +0.000 S 
ATOM     20  O   UNL     1       1.227   4.468  17.904  0.00  0.00    +0.000 OA
ATOM     21  O   UNL     1       1.719   5.623  20.091  0.00  0.00    +0.000 OA
BRANCH  19  23
ATOM     22  C   UNL     1       1.683   1.779  19.371  0.00  0.00    +0.000 C 
ATOM     23  C   UNL     1       1.297   3.054  20.123  0.00  0.00    +0.000 C 
ATOM     24  C   UNL     1       1.833   3.010  21.548  0.00  0.00    +0.000 C 
ENDBRANCH  19  23
ENDBRANCH  18  19
ENDBRANCH   1  18
TORSDOF 5
ENDMDL
MODEL 9
REMARK VINA RESULT:      -7.1      3.722      6.809
REMARK  Name = 
REMARK  7 active torsions:
REMARK  status: ('A' for Active; 'I' for Inactive)
REMARK    1  A    between atoms: C_1  and  C_2
REMARK    2  A    between atoms: C_2  and  C_3
REMARK    3  A    between atoms: C_2  and  S_4
REMARK    4  A    between atoms: S_4  and  C_7
REMARK    5  A    between atoms: C_7  and  C_8
REMARK    6  A    between atoms: C_12  and  N_13
REMARK    7  A    between atoms: C_15  and  C_16
REMARK                            x       y       z     vdW  Elec       q    Type
REMARK                         _______ _______ _______ _____ _____    ______ ____
ROOT
ATOM      1  C   UNL     1       4.626   4.770  19.122  0.00  0.00    +0.000 C 
ATOM      2  O   UNL     1       5.495   3.998  19.528  0.00  0.00    +0.000 OA
ATOM      3  N   UNL     1       4.762   5.457  17.944  0.00  0.00    +0.000 N 
ATOM      4  C   UNL     1       5.815   5.325  16.948  0.00  0.00    +0.000 C 
ATOM      5  C   UNL     1       5.850   6.858  16.852  0.00  0.00    +0.000 C 
ATOM      6  C   UNL     1       4.564   6.879  17.702  0.00  0.00    +0.000 C 
ENDROOT
BRANCH   5   7
ATOM      7  N   UNL     1       6.965   7.459  17.532  0.00  0.00    +0.000 N 
ATOM      8  C   UNL     1       7.357   8.770  17.492  0.00  0.00    +0.000 A 
ATOM      9  C   UNL     1       8.392   8.840  18.397  0.00  0.00    +0.000 A 
ATOM     10  N   UNL     1       8.629   7.585  18.897  0.00  0.00    +0.000 NA
ATOM     11  N   UNL     1       7.749   6.748  18.360  0.00  0.00    +0.000 NA
BRANCH   9  12
ATOM     12  C   UNL     1       9.115  10.037  18.792  0.00  0.00    +0.000 A 
ATOM     13  C   UNL     1       9.256  10.401  20.141  0.00  0.00    +0.000 A 
ATOM     14  C   UNL     1       9.966  11.549  20.502  0.00  0.00    +0.000 A 
ATOM     15  C   UNL     1      10.545  12.347  19.521  0.00  0.00    +0.000 A 
ATOM     16  C   UNL     1      10.418  11.998  18.177  0.00  0.00    +0.000 A 
ATOM     17  C   UNL     1       9.708  10.848  17.816  0.00  0.00    +0.000 A 
ENDBRANCH   9  12
ENDBRANCH   5   7
BRANCH   1  18
ATOM     18  C   UNL     1       3.393   5.053  19.934  0.00  0.00    +0.000 C 
BRANCH  18  19
ATOM     19  S   UNL     1       2.576   3.514  20.292  0.00  0.00    +0.000 S 
ATOM     20  O   UNL     1       1.307   3.805  20.933  0.00  0.00    +0.000 OA
ATOM     21  O   UNL     1       3.542   2.636  20.930  0.00  0.00    +0.000 OA
BRANCH  19  23
ATOM     22  C   UNL     1       3.186   1.612  18.446  0.00  0.00    +0.000 C 
ATOM     23  C   UNL     1       2.222   2.773  18.690  0.00  0.00    +0.000 C 
ATOM     24  C   UNL     1       0.780   2.299  18.562  0.00  0.00    +0.000 C 
ENDBRANCH  19  23
ENDBRANCH  18  19
ENDBRANCH   1  18
TORSDOF 5
ENDMDL
