MODEL 1
REMARK VINA RESULT:      -7.0      0.000      0.000
REMARK  Name = 
REMARK  6 active torsions:
REMARK  status: ('A' for Active; 'I' for Inactive)
REMARK    1  A    between atoms: C_2  and  C_3
REMARK    2  A    between atoms: C_3  and  N_4
REMARK    3  A    between atoms: N_4  and  C_5
REMARK    4  A    between atoms: C_5  and  N_7
REMARK    5  A    between atoms: N_7  and  N_8
REMARK    6  A    between atoms: C_9  and  C_10
REMARK                            x       y       z     vdW  Elec       q    Type
REMARK                         _______ _______ _______ _____ _____    ______ ____
ROOT
ATOM      1  N   UNL     1       4.775   6.513  16.705  0.00  0.00    +0.000 NA
ATOM      2  C   UNL     1       3.971   5.561  17.047  0.00  0.00    +0.000 C 
ENDROOT
BRANCH   2   3
ATOM      3  C   UNL     1       3.159   5.725  18.278  0.00  0.00    +0.000 A 
ATOM      4  C   UNL     1       2.927   7.029  18.719  0.00  0.00    +0.000 A 
ATOM      5  C   UNL     1       2.168   7.211  19.851  0.00  0.00    +0.000 A 
ATOM      6  N   UNL     1       1.635   6.197  20.553  0.00  0.00    +0.000 NA
ATOM      7  C   UNL     1       1.853   4.941  20.135  0.00  0.00    +0.000 A 
ATOM      8  C   UNL     1       1.290   3.913  20.872  0.00  0.00    +0.000 A 
ATOM      9  C   UNL     1       1.460   2.575  20.525  0.00  0.00    +0.000 A 
ATOM     10  C   UNL     1       2.216   2.244  19.408  0.00  0.00    +0.000 A 
ATOM     11  C   UNL     1       2.793   3.257  18.646  0.00  0.00    +0.000 A 
ATOM     12  C   UNL     1       2.622   4.622  18.985  0.00  0.00    +0.000 A 
ENDBRANCH   2   3
BRANCH   1  13
ATOM     13  N   UNL     1       5.498   6.367  15.562  0.00  0.00    +0.000 N 
ATOM     14  H   UNL     1       5.724   7.200  15.027  0.00  0.00    +0.000 HD
BRANCH  13  15
ATOM     15  C   UNL     1       6.376   5.317  15.480  0.00  0.00    +0.000 C 
ATOM     16  S   UNL     1       6.134   4.085  14.384  0.00  0.00    +0.000 S 
BRANCH  15  17
ATOM     17  N   UNL     1       7.455   5.290  16.317  0.00  0.00    +0.000 N 
ATOM     18  H   UNL     1       8.316   5.668  15.944  0.00  0.00    +0.000 HD
BRANCH  17  19
ATOM     19  C   UNL     1       7.518   4.580  17.577  0.00  0.00    +0.000 C 
BRANCH  19  21
ATOM     20  C   UNL     1       7.918   6.891  18.450  0.00  0.00    +0.000 C 
ATOM     21  C   UNL     1       7.760   5.579  18.657  0.00  0.00    +0.000 C 
ENDBRANCH  19  21
ENDBRANCH  17  19
ENDBRANCH  15  17
ENDBRANCH  13  15
ENDBRANCH   1  13
TORSDOF 6
ENDMDL
MODEL 2
REMARK VINA RESULT:      -6.6      1.986      3.678
REMARK  Name = 
REMARK  6 active torsions:
REMARK  status: ('A' for Active; 'I' for Inactive)
REMARK    1  A    between atoms: C_2  and  C_3
REMARK    2  A    between atoms: C_3  and  N_4
REMARK    3  A    between atoms: N_4  and  C_5
REMARK    4  A    between atoms: C_5  and  N_7
REMARK    5  A    between atoms: N_7  and  N_8
REMARK    6  A    between atoms: C_9  and  C_10
REMARK                            x       y       z     vdW  Elec       q    Type
REMARK                         _______ _______ _______ _____ _____    ______ ____
ROOT
ATOM      1  N   UNL     1       6.200   4.347  18.557  0.00  0.00    +0.000 NA
ATOM      2  C   UNL     1       5.006   3.963  18.249  0.00  0.00    +0.000 C 
ENDROOT
BRANCH   2   3
ATOM      3  C   UNL     1       3.970   3.947  19.311  0.00  0.00    +0.000 A 
ATOM      4  C   UNL     1       3.804   2.758  20.023  0.00  0.00    +0.000 A 
ATOM      5  C   UNL     1       2.859   2.718  21.020  0.00  0.00    +0.000 A 
ATOM      6  N   UNL     1       2.087   3.768  21.346  0.00  0.00    +0.000 NA
ATOM      7  C   UNL     1       2.239   4.914  20.666  0.00  0.00    +0.000 A 
ATOM      8  C   UNL     1       1.435   5.984  21.023  0.00  0.00    +0.000 A 
ATOM      9  C   UNL     1       1.512   7.216  20.377  0.00  0.00    +0.000 A 
ATOM     10  C   UNL     1       2.418   7.393  19.340  0.00  0.00    +0.000 A 
ATOM     11  C   UNL     1       3.242   6.336  18.960  0.00  0.00    +0.000 A 
ATOM     12  C   UNL     1       3.177   5.080  19.613  0.00  0.00    +0.000 A 
ENDBRANCH   2   3
BRANCH   1  13
ATOM     13  N   UNL     1       7.140   4.384  17.573  0.00  0.00    +0.000 N 
ATOM     14  H   UNL     1       7.423   3.507  17.146  0.00  0.00    +0.000 HD
BRANCH  13  15
ATOM     15  C   UNL     1       7.220   5.510  16.795  0.00  0.00    +0.000 C 
ATOM     16  S   UNL     1       7.373   7.017  17.489  0.00  0.00    +0.000 S 
BRANCH  15  17
ATOM     17  N   UNL     1       7.166   5.381  15.437  0.00  0.00    +0.000 N 
ATOM     18  H   UNL     1       7.908   5.831  14.918  0.00  0.00    +0.000 HD
BRANCH  17  19
ATOM     19  C   UNL     1       6.041   4.857  14.691  0.00  0.00    +0.000 C 
BRANCH  19  21
ATOM     20  C   UNL     1       5.842   3.499  12.597  0.00  0.00    +0.000 C 
ATOM     21  C   UNL     1       6.575   3.982  13.607  0.00  0.00    +0.000 C 
ENDBRANCH  19  21
ENDBRANCH  17  19
ENDBRANCH  15  17
ENDBRANCH  13  15
ENDBRANCH   1  13
TORSDOF 6
ENDMDL
MODEL 3
REMARK VINA RESULT:      -6.6      1.091      1.211
REMARK  Name = 
REMARK  6 active torsions:
REMARK  status: ('A' for Active; 'I' for Inactive)
REMARK    1  A    between atoms: C_2  and  C_3
REMARK    2  A    between atoms: C_3  and  N_4
REMARK    3  A    between atoms: N_4  and  C_5
REMARK    4  A    between atoms: C_5  and  N_7
REMARK    5  A    between atoms: N_7  and  N_8
REMARK    6  A    between atoms: C_9  and  C_10
REMARK                            x       y       z     vdW  Elec       q    Type
REMARK                         _______ _______ _______ _____ _____    ______ ____
ROOT
ATOM      1  N   UNL     1       5.150   3.943  17.196  0.00  0.00    +0.000 NA
ATOM      2  C   UNL     1       4.215   4.808  16.980  0.00  0.00    +0.000 C 
ENDROOT
BRANCH   2   3
ATOM      3  C   UNL     1       3.381   5.252  18.125  0.00  0.00    +0.000 A 
ATOM      4  C   UNL     1       3.341   6.621  18.391  0.00  0.00    +0.000 A 
ATOM      5  C   UNL     1       2.567   7.062  19.438  0.00  0.00    +0.000 A 
ATOM      6  N   UNL     1       1.846   6.240  20.219  0.00  0.00    +0.000 NA
ATOM      7  C   UNL     1       1.880   4.922  19.970  0.00  0.00    +0.000 A 
ATOM      8  C   UNL     1       1.125   4.096  20.785  0.00  0.00    +0.000 A 
ATOM      9  C   UNL     1       1.095   2.714  20.613  0.00  0.00    +0.000 A 
ATOM     10  C   UNL     1       1.840   2.130  19.597  0.00  0.00    +0.000 A 
ATOM     11  C   UNL     1       2.608   2.937  18.760  0.00  0.00    +0.000 A 
ATOM     12  C   UNL     1       2.642   4.344  18.921  0.00  0.00    +0.000 A 
ENDBRANCH   2   3
BRANCH   1  13
ATOM     13  N   UNL     1       5.928   3.559  16.147  0.00  0.00    +0.000 N 
ATOM     14  H   UNL     1       5.572   2.842  15.522  0.00  0.00    +0.000 HD
BRANCH  13  15
ATOM     15  C   UNL     1       6.794   4.479  15.612  0.00  0.00    +0.000 C 
ATOM     16  S   UNL     1       6.899   4.694  13.963  0.00  0.00    +0.000 S 
BRANCH  15  17
ATOM     17  N   UNL     1       7.577   5.215  16.453  0.00  0.00    +0.000 N 
ATOM     18  H   UNL     1       8.323   4.715  16.919  0.00  0.00    +0.000 HD
BRANCH  17  19
ATOM     19  C   UNL     1       7.294   6.566  16.893  0.00  0.00    +0.000 C 
BRANCH  19  21
ATOM     20  C   UNL     1       7.628   5.741  19.233  0.00  0.00    +0.000 C 
ATOM     21  C   UNL     1       7.756   6.696  18.305  0.00  0.00    +0.000 C 
ENDBRANCH  19  21
ENDBRANCH  17  19
ENDBRANCH  15  17
ENDBRANCH  13  15
ENDBRANCH   1  13
TORSDOF 6
ENDMDL
MODEL 4
REMARK VINA RESULT:      -6.6      3.483      4.957
REMARK  Name = 
REMARK  6 active torsions:
REMARK  status: ('A' for Active; 'I' for Inactive)
REMARK    1  A    between atoms: C_2  and  C_3
REMARK    2  A    between atoms: C_3  and  N_4
REMARK    3  A    between atoms: N_4  and  C_5
REMARK    4  A    between atoms: C_5  and  N_7
REMARK    5  A    between atoms: N_7  and  N_8
REMARK    6  A    between atoms: C_9  and  C_10
REMARK                            x       y       z     vdW  Elec       q    Type
REMARK                         _______ _______ _______ _____ _____    ______ ____
ROOT
ATOM      1  N   UNL     1       5.845   4.237  14.073  0.00  0.00    +0.000 NA
ATOM      2  C   UNL     1       5.669   3.840  15.289  0.00  0.00    +0.000 C 
ENDROOT
BRANCH   2   3
ATOM      3  C   UNL     1       5.021   4.765  16.251  0.00  0.00    +0.000 A 
ATOM      4  C   UNL     1       5.564   6.045  16.369  0.00  0.00    +0.000 A 
ATOM      5  C   UNL     1       4.977   6.928  17.245  0.00  0.00    +0.000 A 
ATOM      6  N   UNL     1       3.904   6.621  17.992  0.00  0.00    +0.000 NA
ATOM      7  C   UNL     1       3.375   5.392  17.884  0.00  0.00    +0.000 A 
ATOM      8  C   UNL     1       2.267   5.100  18.661  0.00  0.00    +0.000 A 
ATOM      9  C   UNL     1       1.646   3.854  18.626  0.00  0.00    +0.000 A 
ATOM     10  C   UNL     1       2.143   2.860  17.792  0.00  0.00    +0.000 A 
ATOM     11  C   UNL     1       3.256   3.126  16.998  0.00  0.00    +0.000 A 
ATOM     12  C   UNL     1       3.892   4.392  17.020  0.00  0.00    +0.000 A 
ENDBRANCH   2   3
BRANCH   1  13
ATOM     13  N   UNL     1       6.416   3.374  13.189  0.00  0.00    +0.000 N 
ATOM     14  H   UNL     1       7.179   2.788  13.514  0.00  0.00    +0.000 HD
BRANCH  13  15
ATOM     15  C   UNL     1       5.639   2.879  12.172  0.00  0.00    +0.000 C 
ATOM     16  S   UNL     1       6.157   1.590  11.253  0.00  0.00    +0.000 S 
BRANCH  15  17
ATOM     17  N   UNL     1       4.432   3.464  11.919  0.00  0.00    +0.000 N 
ATOM     18  H   UNL     1       4.063   4.056  12.651  0.00  0.00    +0.000 HD
BRANCH  17  19
ATOM     19  C   UNL     1       3.559   3.134  10.812  0.00  0.00    +0.000 C 
BRANCH  19  21
ATOM     20  C   UNL     1       2.452   4.493   9.025  0.00  0.00    +0.000 C 
ATOM     21  C   UNL     1       3.359   4.369  10.000  0.00  0.00    +0.000 C 
ENDBRANCH  19  21
ENDBRANCH  17  19
ENDBRANCH  15  17
ENDBRANCH  13  15
ENDBRANCH   1  13
TORSDOF 6
ENDMDL
MODEL 5
REMARK VINA RESULT:      -6.5      1.418      2.808
REMARK  Name = 
REMARK  6 active torsions:
REMARK  status: ('A' for Active; 'I' for Inactive)
REMARK    1  A    between atoms: C_2  and  C_3
REMARK    2  A    between atoms: C_3  and  N_4
REMARK    3  A    between atoms: N_4  and  C_5
REMARK    4  A    between atoms: C_5  and  N_7
REMARK    5  A    between atoms: N_7  and  N_8
REMARK    6  A    between atoms: C_9  and  C_10
REMARK                            x       y       z     vdW  Elec       q    Type
REMARK                         _______ _______ _______ _____ _____    ______ ____
ROOT
ATOM      1  N   UNL     1       4.817   3.336  17.438  0.00  0.00    +0.000 NA
ATOM      2  C   UNL     1       3.537   3.440  17.299  0.00  0.00    +0.000 C 
ENDROOT
BRANCH   2   3
ATOM      3  C   UNL     1       2.710   3.688  18.507  0.00  0.00    +0.000 A 
ATOM      4  C   UNL     1       2.185   2.571  19.159  0.00  0.00    +0.000 A 
ATOM      5  C   UNL     1       1.424   2.770  20.287  0.00  0.00    +0.000 A 
ATOM      6  N   UNL     1       1.162   3.985  20.795  0.00  0.00    +0.000 NA
ATOM      7  C   UNL     1       1.663   5.063  20.173  0.00  0.00    +0.000 A 
ATOM      8  C   UNL     1       1.383   6.305  20.718  0.00  0.00    +0.000 A 
ATOM      9  C   UNL     1       1.852   7.486  20.147  0.00  0.00    +0.000 A 
ATOM     10  C   UNL     1       2.625   7.434  18.994  0.00  0.00    +0.000 A 
ATOM     11  C   UNL     1       2.924   6.199  18.425  0.00  0.00    +0.000 A 
ATOM     12  C   UNL     1       2.459   4.990  19.000  0.00  0.00    +0.000 A 
ENDBRANCH   2   3
BRANCH   1  13
ATOM     13  N   UNL     1       5.572   3.135  16.324  0.00  0.00    +0.000 N 
ATOM     14  H   UNL     1       5.204   2.530  15.597  0.00  0.00    +0.000 HD
BRANCH  13  15
ATOM     15  C   UNL     1       6.425   4.134  15.931  0.00  0.00    +0.000 C 
ATOM     16  S   UNL     1       6.061   5.103  14.626  0.00  0.00    +0.000 S 
BRANCH  15  17
ATOM     17  N   UNL     1       7.586   4.322  16.624  0.00  0.00    +0.000 N 
ATOM     18  H   UNL     1       8.421   3.929  16.209  0.00  0.00    +0.000 HD
BRANCH  17  19
ATOM     19  C   UNL     1       7.680   4.827  17.978  0.00  0.00    +0.000 C 
BRANCH  19  21
ATOM     20  C   UNL     1       7.584   7.296  17.574  0.00  0.00    +0.000 C 
ATOM     21  C   UNL     1       7.022   6.165  18.016  0.00  0.00    +0.000 C 
ENDBRANCH  19  21
ENDBRANCH  17  19
ENDBRANCH  15  17
ENDBRANCH  13  15
ENDBRANCH   1  13
TORSDOF 6
ENDMDL
MODEL 6
REMARK VINA RESULT:      -6.4      2.541      3.707
REMARK  Name = 
REMARK  6 active torsions:
REMARK  status: ('A' for Active; 'I' for Inactive)
REMARK    1  A    between atoms: C_2  and  C_3
REMARK    2  A    between atoms: C_3  and  N_4
REMARK    3  A    between atoms: N_4  and  C_5
REMARK    4  A    between atoms: C_5  and  N_7
REMARK    5  A    between atoms: N_7  and  N_8
REMARK    6  A    between atoms: C_9  and  C_10
REMARK                            x       y       z     vdW  Elec       q    Type
REMARK                         _______ _______ _______ _____ _____    ______ ____
ROOT
ATOM      1  N   UNL     1       5.464   3.886  16.464  0.00  0.00    +0.000 NA
ATOM      2  C   UNL     1       4.213   4.186  16.345  0.00  0.00    +0.000 C 
ENDROOT
BRANCH   2   3
ATOM      3  C   UNL     1       3.527   4.837  17.489  0.00  0.00    +0.000 A 
ATOM      4  C   UNL     1       3.764   6.199  17.682  0.00  0.00    +0.000 A 
ATOM      5  C   UNL     1       3.134   6.832  18.727  0.00  0.00    +0.000 A 
ATOM      6  N   UNL     1       2.298   6.205  19.572  0.00  0.00    +0.000 NA
ATOM      7  C   UNL     1       2.065   4.896  19.393  0.00  0.00    +0.000 A 
ATOM      8  C   UNL     1       1.197   4.273  20.274  0.00  0.00    +0.000 A 
ATOM      9  C   UNL     1       0.892   2.917  20.177  0.00  0.00    +0.000 A 
ATOM     10  C   UNL     1       1.469   2.152  19.172  0.00  0.00    +0.000 A 
ATOM     11  C   UNL     1       2.345   2.752  18.270  0.00  0.00    +0.000 A 
ATOM     12  C   UNL     1       2.658   4.131  18.355  0.00  0.00    +0.000 A 
ENDBRANCH   2   3
BRANCH   1  13
ATOM     13  N   UNL     1       6.093   3.312  15.402  0.00  0.00    +0.000 N 
ATOM     14  H   UNL     1       6.116   2.298  15.348  0.00  0.00    +0.000 HD
BRANCH  13  15
ATOM     15  C   UNL     1       6.122   4.001  14.217  0.00  0.00    +0.000 C 
ATOM     16  S   UNL     1       7.319   5.119  13.909  0.00  0.00    +0.000 S 
BRANCH  15  17
ATOM     17  N   UNL     1       5.150   3.761  13.289  0.00  0.00    +0.000 N 
ATOM     18  H   UNL     1       4.198   3.763  13.633  0.00  0.00    +0.000 HD
BRANCH  17  19
ATOM     19  C   UNL     1       5.379   3.294  11.938  0.00  0.00    +0.000 C 
BRANCH  19  21
ATOM     20  C   UNL     1       3.522   3.760  10.325  0.00  0.00    +0.000 C 
ATOM     21  C   UNL     1       4.052   3.028  11.312  0.00  0.00    +0.000 C 
ENDBRANCH  19  21
ENDBRANCH  17  19
ENDBRANCH  15  17
ENDBRANCH  13  15
ENDBRANCH   1  13
TORSDOF 6
ENDMDL
MODEL 7
REMARK VINA RESULT:      -6.4      2.589      6.117
REMARK  Name = 
REMARK  6 active torsions:
REMARK  status: ('A' for Active; 'I' for Inactive)
REMARK    1  A    between atoms: C_2  and  C_3
REMARK    2  A    between atoms: C_3  and  N_4
REMARK    3  A    between atoms: N_4  and  C_5
REMARK    4  A    between atoms: C_5  and  N_7
REMARK    5  A    between atoms: N_7  and  N_8
REMARK    6  A    between atoms: C_9  and  C_10
REMARK                            x       y       z     vdW  Elec       q    Type
REMARK                         _______ _______ _______ _____ _____    ______ ____
ROOT
ATOM      1  N   UNL     1       3.558   5.214  19.901  0.00  0.00    +0.000 NA
ATOM      2  C   UNL     1       3.792   5.261  18.632  0.00  0.00    +0.000 C 
ENDROOT
BRANCH   2   3
ATOM      3  C   UNL     1       5.203   5.278  18.170  0.00  0.00    +0.000 A 
ATOM      4  C   UNL     1       6.173   5.651  19.101  0.00  0.00    +0.000 A 
ATOM      5  C   UNL     1       7.489   5.665  18.704  0.00  0.00    +0.000 A 
ATOM      6  N   UNL     1       7.890   5.334  17.465  0.00  0.00    +0.000 NA
ATOM      7  C   UNL     1       6.962   4.974  16.565  0.00  0.00    +0.000 A 
ATOM      8  C   UNL     1       7.399   4.634  15.295  0.00  0.00    +0.000 A 
ATOM      9  C   UNL     1       6.517   4.250  14.288  0.00  0.00    +0.000 A 
ATOM     10  C   UNL     1       5.154   4.203  14.547  0.00  0.00    +0.000 A 
ATOM     11  C   UNL     1       4.685   4.539  15.815  0.00  0.00    +0.000 A 
ATOM     12  C   UNL     1       5.573   4.924  16.850  0.00  0.00    +0.000 A 
ENDBRANCH   2   3
BRANCH   1  13
ATOM     13  N   UNL     1       2.263   5.173  20.317  0.00  0.00    +0.000 N 
ATOM     14  H   UNL     1       1.656   5.949  20.074  0.00  0.00    +0.000 HD
BRANCH  13  15
ATOM     15  C   UNL     1       1.672   3.945  20.476  0.00  0.00    +0.000 C 
ATOM     16  S   UNL     1       2.045   2.981  21.783  0.00  0.00    +0.000 S 
BRANCH  15  17
ATOM     17  N   UNL     1       0.775   3.518  19.540  0.00  0.00    +0.000 N 
ATOM     18  H   UNL     1      -0.082   4.052  19.469  0.00  0.00    +0.000 HD
BRANCH  17  19
ATOM     19  C   UNL     1       0.851   2.265  18.819  0.00  0.00    +0.000 C 
BRANCH  19  21
ATOM     20  C   UNL     1       3.187   1.750  18.080  0.00  0.00    +0.000 C 
ATOM     21  C   UNL     1       2.005   2.344  17.878  0.00  0.00    +0.000 C 
ENDBRANCH  19  21
ENDBRANCH  17  19
ENDBRANCH  15  17
ENDBRANCH  13  15
ENDBRANCH   1  13
TORSDOF 6
ENDMDL
MODEL 8
REMARK VINA RESULT:      -6.3      1.533      2.871
REMARK  Name = 
REMARK  6 active torsions:
REMARK  status: ('A' for Active; 'I' for Inactive)
REMARK    1  A    between atoms: C_2  and  C_3
REMARK    2  A    between atoms: C_3  and  N_4
REMARK    3  A    between atoms: N_4  and  C_5
REMARK    4  A    between atoms: C_5  and  N_7
REMARK    5  A    between atoms: N_7  and  N_8
REMARK    6  A    between atoms: C_9  and  C_10
REMARK                            x       y       z     vdW  Elec       q    Type
REMARK                         _______ _______ _______ _____ _____    ______ ____
ROOT
ATOM      1  N   UNL     1       5.784   3.935  17.658  0.00  0.00    +0.000 NA
ATOM      2  C   UNL     1       4.622   3.771  17.118  0.00  0.00    +0.000 C 
ENDROOT
BRANCH   2   3
ATOM      3  C   UNL     1       3.472   3.439  17.996  0.00  0.00    +0.000 A 
ATOM      4  C   UNL     1       3.015   2.120  17.976  0.00  0.00    +0.000 A 
ATOM      5  C   UNL     1       1.959   1.781  18.787  0.00  0.00    +0.000 A 
ATOM      6  N   UNL     1       1.345   2.655  19.602  0.00  0.00    +0.000 NA
ATOM      7  C   UNL     1       1.778   3.924  19.627  0.00  0.00    +0.000 A 
ATOM      8  C   UNL     1       1.133   4.806  20.478  0.00  0.00    +0.000 A 
ATOM      9  C   UNL     1       1.503   6.145  20.576  0.00  0.00    +0.000 A 
ATOM     10  C   UNL     1       2.550   6.628  19.802  0.00  0.00    +0.000 A 
ATOM     11  C   UNL     1       3.220   5.764  18.938  0.00  0.00    +0.000 A 
ATOM     12  C   UNL     1       2.856   4.399  18.835  0.00  0.00    +0.000 A 
ENDBRANCH   2   3
BRANCH   1  13
ATOM     13  N   UNL     1       6.829   4.265  16.851  0.00  0.00    +0.000 N 
ATOM     14  H   UNL     1       7.572   3.584  16.724  0.00  0.00    +0.000 HD
BRANCH  13  15
ATOM     15  C   UNL     1       6.599   5.137  15.817  0.00  0.00    +0.000 C 
ATOM     16  S   UNL     1       6.609   4.609  14.237  0.00  0.00    +0.000 S 
BRANCH  15  17
ATOM     17  N   UNL     1       6.367   6.452  16.102  0.00  0.00    +0.000 N 
ATOM     18  H   UNL     1       6.262   7.067  15.306  0.00  0.00    +0.000 HD
BRANCH  17  19
ATOM     19  C   UNL     1       6.481   7.057  17.412  0.00  0.00    +0.000 C 
BRANCH  19  21
ATOM     20  C   UNL     1       8.020   8.974  17.885  0.00  0.00    +0.000 C 
ATOM     21  C   UNL     1       7.820   7.708  17.504  0.00  0.00    +0.000 C 
ENDBRANCH  19  21
ENDBRANCH  17  19
ENDBRANCH  15  17
ENDBRANCH  13  15
ENDBRANCH   1  13
TORSDOF 6
ENDMDL
MODEL 9
REMARK VINA RESULT:      -6.3      3.900      6.195
REMARK  Name = 
REMARK  6 active torsions:
REMARK  status: ('A' for Active; 'I' for Inactive)
REMARK    1  A    between atoms: C_2  and  C_3
REMARK    2  A    between atoms: C_3  and  N_4
REMARK    3  A    between atoms: N_4  and  C_5
REMARK    4  A    between atoms: C_5  and  N_7
REMARK    5  A    between atoms: N_7  and  N_8
REMARK    6  A    between atoms: C_9  and  C_10
REMARK                            x       y       z     vdW  Elec       q    Type
REMARK                         _______ _______ _______ _____ _____    ______ ____
ROOT
ATOM      1  N   UNL     1       1.654   6.980  20.560  0.00  0.00    +0.000 NA
ATOM      2  C   UNL     1       1.793   5.746  20.917  0.00  0.00    +0.000 C 
ENDROOT
BRANCH   2   3
ATOM      3  C   UNL     1       1.845   4.704  19.862  0.00  0.00    +0.000 A 
ATOM      4  C   UNL     1       0.878   3.698  19.911  0.00  0.00    +0.000 A 
ATOM      5  C   UNL     1       0.895   2.726  18.940  0.00  0.00    +0.000 A 
ATOM      6  N   UNL     1       1.795   2.694  17.943  0.00  0.00    +0.000 NA
ATOM      7  C   UNL     1       2.728   3.657  17.889  0.00  0.00    +0.000 A 
ATOM      8  C   UNL     1       3.642   3.606  16.850  0.00  0.00    +0.000 A 
ATOM      9  C   UNL     1       4.652   4.555  16.706  0.00  0.00    +0.000 A 
ATOM     10  C   UNL     1       4.760   5.591  17.626  0.00  0.00    +0.000 A 
ATOM     11  C   UNL     1       3.853   5.668  18.680  0.00  0.00    +0.000 A 
ATOM     12  C   UNL     1       2.818   4.713  18.834  0.00  0.00    +0.000 A 
ENDBRANCH   2   3
BRANCH   1  13
ATOM     13  N   UNL     1       1.633   7.934  21.530  0.00  0.00    +0.000 N 
ATOM     14  H   UNL     1       2.511   8.190  21.970  0.00  0.00    +0.000 HD
BRANCH  13  15
ATOM     15  C   UNL     1       0.660   8.899  21.468  0.00  0.00    +0.000 C 
ATOM     16  S   UNL     1      -0.011   9.524  22.859  0.00  0.00    +0.000 S 
BRANCH  15  17
ATOM     17  N   UNL     1       0.244   9.340  20.245  0.00  0.00    +0.000 N 
ATOM     18  H   UNL     1      -0.539   8.845  19.838  0.00  0.00    +0.000 HD
BRANCH  17  19
ATOM     19  C   UNL     1       0.956  10.283  19.408  0.00  0.00    +0.000 C 
BRANCH  19  21
ATOM     20  C   UNL     1       2.119   8.816  17.746  0.00  0.00    +0.000 C 
ATOM     21  C   UNL     1       1.133   9.662  18.063  0.00  0.00    +0.000 C 
ENDBRANCH  19  21
ENDBRANCH  17  19
ENDBRANCH  15  17
ENDBRANCH  13  15
ENDBRANCH   1  13
TORSDOF 6
ENDMDL
