MODEL 1
REMARK VINA RESULT:      -8.6      0.000      0.000
REMARK  Name = 
REMARK  6 active torsions:
REMARK  status: ('A' for Active; 'I' for Inactive)
REMARK    1  A    between atoms: C_1  and  C_2
REMARK    2  A    between atoms: C_6  and  C_7
REMARK    3  A    between atoms: C_8  and  C_9
REMARK    4  A    between atoms: C_9  and  N_10
REMARK    5  A    between atoms: C_17  and  C_18
REMARK    6  A    between atoms: C_18  and  O_20
REMARK                            x       y       z     vdW  Elec       q    Type
REMARK                         _______ _______ _______ _____ _____    ______ ____
ROOT
ATOM      1  N   UNL     1       5.096   3.702  17.358  0.00  0.00    +0.000 N 
ATOM      2  N   UNL     1       5.714   4.368  18.359  0.00  0.00    +0.000 NA
ATOM      3  C   UNL     1       6.653   5.083  17.736  0.00  0.00    +0.000 A 
ATOM      4 CL   UNL     1       7.685   6.105  18.605  0.00  0.00    +0.000 Cl
ATOM      5  C   UNL     1       6.656   4.888  16.335  0.00  0.00    +0.000 A 
ATOM      6  C   UNL     1       7.401   5.364  15.237  0.00  0.00    +0.000 A 
ATOM      7  C   UNL     1       7.118   4.876  13.950  0.00  0.00    +0.000 A 
ATOM      8  C   UNL     1       6.095   3.942  13.753  0.00  0.00    +0.000 A 
ATOM      9  C   UNL     1       5.280   3.543  14.823  0.00  0.00    +0.000 A 
ATOM     10  C   UNL     1       5.609   4.000  16.107  0.00  0.00    +0.000 A 
ENDROOT
BRANCH   8  11
ATOM     11  C   UNL     1       5.816   3.326  12.428  0.00  0.00    +0.000 C 
ATOM     12  O   UNL     1       4.725   3.394  11.888  0.00  0.00    +0.000 OA
BRANCH  11  13
ATOM     13  O   UNL     1       6.845   2.619  11.913  0.00  0.00    +0.000 OA
ATOM     14  H   UNL     1       7.425   3.103  11.298  0.00  0.00    +0.000 HD
ENDBRANCH  11  13
ENDBRANCH   8  11
BRANCH   1  15
ATOM     15  C   UNL     1       3.852   2.982  17.638  0.00  0.00    +0.000 C 
BRANCH  15  23
ATOM     16  C   UNL     1       4.729   1.768  20.461  0.00  0.00    +0.000 C 
ATOM     17  C   UNL     1       3.502   2.602  20.212  0.00  0.00    +0.000 A 
ATOM     18  C   UNL     1       2.646   2.723  21.327  0.00  0.00    +0.000 A 
ATOM     19  C   UNL     1       1.465   3.443  21.267  0.00  0.00    +0.000 A 
ATOM     20  C   UNL     1       1.111   4.066  20.083  0.00  0.00    +0.000 A 
ATOM     21  C   UNL     1       1.924   3.955  18.940  0.00  0.00    +0.000 A 
ATOM     22  C   UNL     1       1.428   4.649  17.692  0.00  0.00    +0.000 C 
ATOM     23  C   UNL     1       3.144   3.206  18.975  0.00  0.00    +0.000 A 
ENDBRANCH  15  23
ENDBRANCH   1  15
TORSDOF 4
ENDMDL
MODEL 2
REMARK VINA RESULT:      -8.5      1.132      1.347
REMARK  Name = 
REMARK  6 active torsions:
REMARK  status: ('A' for Active; 'I' for Inactive)
REMARK    1  A    between atoms: C_1  and  C_2
REMARK    2  A    between atoms: C_6  and  C_7
REMARK    3  A    between atoms: C_8  and  C_9
REMARK    4  A    between atoms: C_9  and  N_10
REMARK    5  A    between atoms: C_17  and  C_18
REMARK    6  A    between atoms: C_18  and  O_20
REMARK                            x       y       z     vdW  Elec       q    Type
REMARK                         _______ _______ _______ _____ _____    ______ ____
ROOT
ATOM      1  N   UNL     1       4.682   5.104  17.295  0.00  0.00    +0.000 N 
ATOM      2  N   UNL     1       5.425   5.691  18.259  0.00  0.00    +0.000 NA
ATOM      3  C   UNL     1       6.622   5.848  17.689  0.00  0.00    +0.000 A 
ATOM      4 CL   UNL     1       7.898   6.572  18.535  0.00  0.00    +0.000 Cl
ATOM      5  C   UNL     1       6.669   5.365  16.361  0.00  0.00    +0.000 A 
ATOM      6  C   UNL     1       7.635   5.275  15.338  0.00  0.00    +0.000 A 
ATOM      7  C   UNL     1       7.293   4.660  14.122  0.00  0.00    +0.000 A 
ATOM      8  C   UNL     1       6.004   4.158  13.916  0.00  0.00    +0.000 A 
ATOM      9  C   UNL     1       5.008   4.339  14.888  0.00  0.00    +0.000 A 
ATOM     10  C   UNL     1       5.379   4.907  16.114  0.00  0.00    +0.000 A 
ENDROOT
BRANCH   8  11
ATOM     11  C   UNL     1       5.617   3.419  12.685  0.00  0.00    +0.000 C 
ATOM     12  O   UNL     1       4.535   3.565  12.142  0.00  0.00    +0.000 OA
BRANCH  11  13
ATOM     13  O   UNL     1       6.531   2.517  12.266  0.00  0.00    +0.000 OA
ATOM     14  H   UNL     1       6.270   1.976  11.499  0.00  0.00    +0.000 HD
ENDBRANCH  11  13
ENDBRANCH   8  11
BRANCH   1  15
ATOM     15  C   UNL     1       3.235   4.983  17.480  0.00  0.00    +0.000 C 
BRANCH  15  23
ATOM     16  C   UNL     1       3.005   1.829  17.939  0.00  0.00    +0.000 C 
ATOM     17  C   UNL     1       2.534   2.888  18.898  0.00  0.00    +0.000 A 
ATOM     18  C   UNL     1       1.834   2.388  20.017  0.00  0.00    +0.000 A 
ATOM     19  C   UNL     1       1.317   3.227  20.990  0.00  0.00    +0.000 A 
ATOM     20  C   UNL     1       1.493   4.594  20.868  0.00  0.00    +0.000 A 
ATOM     21  C   UNL     1       2.165   5.139  19.759  0.00  0.00    +0.000 A 
ATOM     22  C   UNL     1       2.273   6.645  19.710  0.00  0.00    +0.000 C 
ATOM     23  C   UNL     1       2.698   4.291  18.733  0.00  0.00    +0.000 A 
ENDBRANCH  15  23
ENDBRANCH   1  15
TORSDOF 4
ENDMDL
MODEL 3
REMARK VINA RESULT:      -8.4      1.111      1.778
REMARK  Name = 
REMARK  6 active torsions:
REMARK  status: ('A' for Active; 'I' for Inactive)
REMARK    1  A    between atoms: C_1  and  C_2
REMARK    2  A    between atoms: C_6  and  C_7
REMARK    3  A    between atoms: C_8  and  C_9
REMARK    4  A    between atoms: C_9  and  N_10
REMARK    5  A    between atoms: C_17  and  C_18
REMARK    6  A    between atoms: C_18  and  O_20
REMARK                            x       y       z     vdW  Elec       q    Type
REMARK                         _______ _______ _______ _____ _____    ______ ____
ROOT
ATOM      1  N   UNL     1       4.546   4.991  17.350  0.00  0.00    +0.000 N 
ATOM      2  N   UNL     1       5.272   5.502  18.369  0.00  0.00    +0.000 NA
ATOM      3  C   UNL     1       6.498   5.627  17.858  0.00  0.00    +0.000 A 
ATOM      4 CL   UNL     1       7.766   6.256  18.787  0.00  0.00    +0.000 Cl
ATOM      5  C   UNL     1       6.581   5.198  16.513  0.00  0.00    +0.000 A 
ATOM      6  C   UNL     1       7.587   5.106  15.528  0.00  0.00    +0.000 A 
ATOM      7  C   UNL     1       7.272   4.559  14.273  0.00  0.00    +0.000 A 
ATOM      8  C   UNL     1       5.972   4.126  13.992  0.00  0.00    +0.000 A 
ATOM      9  C   UNL     1       4.943   4.311  14.928  0.00  0.00    +0.000 A 
ATOM     10  C   UNL     1       5.284   4.811  16.192  0.00  0.00    +0.000 A 
ENDROOT
BRANCH   8  11
ATOM     11  C   UNL     1       5.607   3.457  12.715  0.00  0.00    +0.000 C 
ATOM     12  O   UNL     1       4.514   3.590  12.190  0.00  0.00    +0.000 OA
BRANCH  11  13
ATOM     13  O   UNL     1       6.557   2.629  12.228  0.00  0.00    +0.000 OA
ATOM     14  H   UNL     1       6.814   1.891  12.809  0.00  0.00    +0.000 HD
ENDBRANCH  11  13
ENDBRANCH   8  11
BRANCH   1  15
ATOM     15  C   UNL     1       3.088   4.929  17.469  0.00  0.00    +0.000 C 
BRANCH  15  23
ATOM     16  C   UNL     1       2.229   6.702  19.985  0.00  0.00    +0.000 C 
ATOM     17  C   UNL     1       2.154   5.202  19.907  0.00  0.00    +0.000 A 
ATOM     18  C   UNL     1       1.780   4.576  21.115  0.00  0.00    +0.000 A 
ATOM     19  C   UNL     1       1.678   3.199  21.223  0.00  0.00    +0.000 A 
ATOM     20  C   UNL     1       1.945   2.411  20.118  0.00  0.00    +0.000 A 
ATOM     21  C   UNL     1       2.342   2.990  18.899  0.00  0.00    +0.000 A 
ATOM     22  C   UNL     1       2.639   2.036  17.765  0.00  0.00    +0.000 C 
ATOM     23  C   UNL     1       2.466   4.411  18.766  0.00  0.00    +0.000 A 
ENDBRANCH  15  23
ENDBRANCH   1  15
TORSDOF 4
ENDMDL
MODEL 4
REMARK VINA RESULT:      -8.0      1.122      1.942
REMARK  Name = 
REMARK  6 active torsions:
REMARK  status: ('A' for Active; 'I' for Inactive)
REMARK    1  A    between atoms: C_1  and  C_2
REMARK    2  A    between atoms: C_6  and  C_7
REMARK    3  A    between atoms: C_8  and  C_9
REMARK    4  A    between atoms: C_9  and  N_10
REMARK    5  A    between atoms: C_17  and  C_18
REMARK    6  A    between atoms: C_18  and  O_20
REMARK                            x       y       z     vdW  Elec       q    Type
REMARK                         _______ _______ _______ _____ _____    ______ ____
ROOT
ATOM      1  N   UNL     1       4.836   4.040  17.256  0.00  0.00    +0.000 N 
ATOM      2  N   UNL     1       5.556   4.543  18.284  0.00  0.00    +0.000 NA
ATOM      3  C   UNL     1       6.682   4.969  17.709  0.00  0.00    +0.000 A 
ATOM      4 CL   UNL     1       7.902   5.702  18.625  0.00  0.00    +0.000 Cl
ATOM      5  C   UNL     1       6.706   4.747  16.312  0.00  0.00    +0.000 A 
ATOM      6  C   UNL     1       7.608   4.983  15.254  0.00  0.00    +0.000 A 
ATOM      7  C   UNL     1       7.273   4.556  13.958  0.00  0.00    +0.000 A 
ATOM      8  C   UNL     1       6.051   3.922  13.711  0.00  0.00    +0.000 A 
ATOM      9  C   UNL     1       5.104   3.779  14.737  0.00  0.00    +0.000 A 
ATOM     10  C   UNL     1       5.475   4.162  16.033  0.00  0.00    +0.000 A 
ENDROOT
BRANCH   8  11
ATOM     11  C   UNL     1       5.687   3.370  12.379  0.00  0.00    +0.000 C 
ATOM     12  O   UNL     1       4.628   3.621  11.829  0.00  0.00    +0.000 OA
BRANCH  11  13
ATOM     13  O   UNL     1       6.591   2.508  11.866  0.00  0.00    +0.000 OA
ATOM     14  H   UNL     1       7.479   2.874  11.701  0.00  0.00    +0.000 HD
ENDBRANCH  11  13
ENDBRANCH   8  11
BRANCH   1  15
ATOM     15  C   UNL     1       3.433   3.683  17.472  0.00  0.00    +0.000 C 
BRANCH  15  23
ATOM     16  C   UNL     1       3.264   6.852  17.846  0.00  0.00    +0.000 C 
ATOM     17  C   UNL     1       2.619   5.831  18.742  0.00  0.00    +0.000 A 
ATOM     18  C   UNL     1       2.004   6.372  19.891  0.00  0.00    +0.000 A 
ATOM     19  C   UNL     1       1.378   5.571  20.831  0.00  0.00    +0.000 A 
ATOM     20  C   UNL     1       1.347   4.202  20.641  0.00  0.00    +0.000 A 
ATOM     21  C   UNL     1       1.964   3.615  19.520  0.00  0.00    +0.000 A 
ATOM     22  C   UNL     1       1.897   2.108  19.426  0.00  0.00    +0.000 C 
ATOM     23  C   UNL     1       2.629   4.422  18.541  0.00  0.00    +0.000 A 
ENDBRANCH  15  23
ENDBRANCH   1  15
TORSDOF 4
ENDMDL
MODEL 5
REMARK VINA RESULT:      -7.8      0.546      1.865
REMARK  Name = 
REMARK  6 active torsions:
REMARK  status: ('A' for Active; 'I' for Inactive)
REMARK    1  A    between atoms: C_1  and  C_2
REMARK    2  A    between atoms: C_6  and  C_7
REMARK    3  A    between atoms: C_8  and  C_9
REMARK    4  A    between atoms: C_9  and  N_10
REMARK    5  A    between atoms: C_17  and  C_18
REMARK    6  A    between atoms: C_18  and  O_20
REMARK                            x       y       z     vdW  Elec       q    Type
REMARK                         _______ _______ _______ _____ _____    ______ ____
ROOT
ATOM      1  N   UNL     1       5.091   3.843  17.198  0.00  0.00    +0.000 N 
ATOM      2  N   UNL     1       5.719   4.511  18.191  0.00  0.00    +0.000 NA
ATOM      3  C   UNL     1       6.700   5.166  17.566  0.00  0.00    +0.000 A 
ATOM      4 CL   UNL     1       7.761   6.167  18.425  0.00  0.00    +0.000 Cl
ATOM      5  C   UNL     1       6.720   4.929  16.172  0.00  0.00    +0.000 A 
ATOM      6  C   UNL     1       7.506   5.340  15.076  0.00  0.00    +0.000 A 
ATOM      7  C   UNL     1       7.225   4.827  13.798  0.00  0.00    +0.000 A 
ATOM      8  C   UNL     1       6.166   3.933  13.607  0.00  0.00    +0.000 A 
ATOM      9  C   UNL     1       5.315   3.602  14.672  0.00  0.00    +0.000 A 
ATOM     10  C   UNL     1       5.640   4.082  15.949  0.00  0.00    +0.000 A 
ENDROOT
BRANCH   8  11
ATOM     11  C   UNL     1       5.884   3.291  12.296  0.00  0.00    +0.000 C 
ATOM     12  O   UNL     1       4.808   3.393  11.731  0.00  0.00    +0.000 OA
BRANCH  11  13
ATOM     13  O   UNL     1       6.889   2.523  11.822  0.00  0.00    +0.000 OA
ATOM     14  H   UNL     1       7.733   2.585  12.305  0.00  0.00    +0.000 HD
ENDBRANCH  11  13
ENDBRANCH   8  11
BRANCH   1  15
ATOM     15  C   UNL     1       3.811   3.187  17.474  0.00  0.00    +0.000 C 
BRANCH  15  23
ATOM     16  C   UNL     1       1.978   5.738  18.059  0.00  0.00    +0.000 C 
ATOM     17  C   UNL     1       2.327   4.667  19.055  0.00  0.00    +0.000 A 
ATOM     18  C   UNL     1       1.880   4.926  20.368  0.00  0.00    +0.000 A 
ATOM     19  C   UNL     1       2.130   4.051  21.411  0.00  0.00    +0.000 A 
ATOM     20  C   UNL     1       2.835   2.887  21.164  0.00  0.00    +0.000 A 
ATOM     21  C   UNL     1       3.319   2.596  19.875  0.00  0.00    +0.000 A 
ATOM     22  C   UNL     1       4.102   1.313  19.723  0.00  0.00    +0.000 C 
ATOM     23  C   UNL     1       3.082   3.492  18.782  0.00  0.00    +0.000 A 
ENDBRANCH  15  23
ENDBRANCH   1  15
TORSDOF 4
ENDMDL
MODEL 6
REMARK VINA RESULT:      -7.5      4.552      6.027
REMARK  Name = 
REMARK  6 active torsions:
REMARK  status: ('A' for Active; 'I' for Inactive)
REMARK    1  A    between atoms: C_1  and  C_2
REMARK    2  A    between atoms: C_6  and  C_7
REMARK    3  A    between atoms: C_8  and  C_9
REMARK    4  A    between atoms: C_9  and  N_10
REMARK    5  A    between atoms: C_17  and  C_18
REMARK    6  A    between atoms: C_18  and  O_20
REMARK                            x       y       z     vdW  Elec       q    Type
REMARK                         _______ _______ _______ _____ _____    ______ ____
ROOT
ATOM      1  N   UNL     1       2.057   6.448  19.873  0.00  0.00    +0.000 N 
ATOM      2  N   UNL     1       1.280   5.522  20.478  0.00  0.00    +0.000 NA
ATOM      3  C   UNL     1       1.623   4.377  19.884  0.00  0.00    +0.000 A 
ATOM      4 CL   UNL     1       0.904   2.914  20.339  0.00  0.00    +0.000 Cl
ATOM      5  C   UNL     1       2.616   4.547  18.892  0.00  0.00    +0.000 A 
ATOM      6  C   UNL     1       3.313   3.718  17.989  0.00  0.00    +0.000 A 
ATOM      7  C   UNL     1       4.228   4.294  17.092  0.00  0.00    +0.000 A 
ATOM      8  C   UNL     1       4.463   5.674  17.104  0.00  0.00    +0.000 A 
ATOM      9  C   UNL     1       3.853   6.490  18.068  0.00  0.00    +0.000 A 
ATOM     10  C   UNL     1       2.905   5.907  18.921  0.00  0.00    +0.000 A 
ENDROOT
BRANCH   8  11
ATOM     11  C   UNL     1       5.351   6.345  16.117  0.00  0.00    +0.000 C 
ATOM     12  O   UNL     1       4.923   7.066  15.231  0.00  0.00    +0.000 OA
BRANCH  11  13
ATOM     13  O   UNL     1       6.657   6.027  16.235  0.00  0.00    +0.000 OA
ATOM     14  H   UNL     1       7.281   6.625  15.786  0.00  0.00    +0.000 HD
ENDBRANCH  11  13
ENDBRANCH   8  11
BRANCH   1  15
ATOM     15  C   UNL     1       2.121   7.802  20.426  0.00  0.00    +0.000 C 
BRANCH  15  23
ATOM     16  C   UNL     1       2.016   9.246  17.578  0.00  0.00    +0.000 C 
ATOM     17  C   UNL     1       1.098   9.529  18.735  0.00  0.00    +0.000 A 
ATOM     18  C   UNL     1       0.218  10.613  18.527  0.00  0.00    +0.000 A 
ATOM     19  C   UNL     1      -0.683  11.018  19.497  0.00  0.00    +0.000 A 
ATOM     20  C   UNL     1      -0.729  10.344  20.703  0.00  0.00    +0.000 A 
ATOM     21  C   UNL     1       0.143   9.270  20.963  0.00  0.00    +0.000 A 
ATOM     22  C   UNL     1       0.028   8.624  22.324  0.00  0.00    +0.000 C 
ATOM     23  C   UNL     1       1.092   8.840  19.980  0.00  0.00    +0.000 A 
ENDBRANCH  15  23
ENDBRANCH   1  15
TORSDOF 4
ENDMDL
MODEL 7
REMARK VINA RESULT:      -7.3      1.219      1.487
REMARK  Name = 
REMARK  6 active torsions:
REMARK  status: ('A' for Active; 'I' for Inactive)
REMARK    1  A    between atoms: C_1  and  C_2
REMARK    2  A    between atoms: C_6  and  C_7
REMARK    3  A    between atoms: C_8  and  C_9
REMARK    4  A    between atoms: C_9  and  N_10
REMARK    5  A    between atoms: C_17  and  C_18
REMARK    6  A    between atoms: C_18  and  O_20
REMARK                            x       y       z     vdW  Elec       q    Type
REMARK                         _______ _______ _______ _____ _____    ______ ____
ROOT
ATOM      1  N   UNL     1       4.857   4.324  17.347  0.00  0.00    +0.000 N 
ATOM      2  N   UNL     1       5.605   4.797  18.369  0.00  0.00    +0.000 NA
ATOM      3  C   UNL     1       6.765   5.120  17.794  0.00  0.00    +0.000 A 
ATOM      4 CL   UNL     1       8.030   5.781  18.704  0.00  0.00    +0.000 Cl
ATOM      5  C   UNL     1       6.784   4.859  16.404  0.00  0.00    +0.000 A 
ATOM      6  C   UNL     1       7.710   4.996  15.350  0.00  0.00    +0.000 A 
ATOM      7  C   UNL     1       7.354   4.561  14.062  0.00  0.00    +0.000 A 
ATOM      8  C   UNL     1       6.089   4.016  13.819  0.00  0.00    +0.000 A 
ATOM      9  C   UNL     1       5.126   3.974  14.838  0.00  0.00    +0.000 A 
ATOM     10  C   UNL     1       5.514   4.363  16.128  0.00  0.00    +0.000 A 
ENDROOT
BRANCH   8  11
ATOM     11  C   UNL     1       5.696   3.458  12.498  0.00  0.00    +0.000 C 
ATOM     12  O   UNL     1       4.565   3.558  12.052  0.00  0.00    +0.000 OA
BRANCH  11  13
ATOM     13  O   UNL     1       6.671   2.766  11.871  0.00  0.00    +0.000 OA
ATOM     14  H   UNL     1       7.556   3.173  11.886  0.00  0.00    +0.000 HD
ENDBRANCH  11  13
ENDBRANCH   8  11
BRANCH   1  15
ATOM     15  C   UNL     1       3.429   4.081  17.557  0.00  0.00    +0.000 C 
BRANCH  15  23
ATOM     16  C   UNL     1       2.156   2.370  19.936  0.00  0.00    +0.000 C 
ATOM     17  C   UNL     1       2.125   3.869  19.825  0.00  0.00    +0.000 A 
ATOM     18  C   UNL     1       1.355   4.510  20.819  0.00  0.00    +0.000 A 
ATOM     19  C   UNL     1       1.207   5.886  20.855  0.00  0.00    +0.000 A 
ATOM     20  C   UNL     1       1.833   6.660  19.895  0.00  0.00    +0.000 A 
ATOM     21  C   UNL     1       2.595   6.064  18.873  0.00  0.00    +0.000 A 
ATOM     22  C   UNL     1       3.209   7.000  17.858  0.00  0.00    +0.000 C 
ATOM     23  C   UNL     1       2.752   4.641  18.808  0.00  0.00    +0.000 A 
ENDBRANCH  15  23
ENDBRANCH   1  15
TORSDOF 4
ENDMDL
MODEL 8
REMARK VINA RESULT:      -7.3      4.328      5.790
REMARK  Name = 
REMARK  6 active torsions:
REMARK  status: ('A' for Active; 'I' for Inactive)
REMARK    1  A    between atoms: C_1  and  C_2
REMARK    2  A    between atoms: C_6  and  C_7
REMARK    3  A    between atoms: C_8  and  C_9
REMARK    4  A    between atoms: C_9  and  N_10
REMARK    5  A    between atoms: C_17  and  C_18
REMARK    6  A    between atoms: C_18  and  O_20
REMARK                            x       y       z     vdW  Elec       q    Type
REMARK                         _______ _______ _______ _____ _____    ______ ____
ROOT
ATOM      1  N   UNL     1       2.189   6.408  19.830  0.00  0.00    +0.000 N 
ATOM      2  N   UNL     1       1.404   5.615  20.594  0.00  0.00    +0.000 NA
ATOM      3  C   UNL     1       1.631   4.388  20.121  0.00  0.00    +0.000 A 
ATOM      4 CL   UNL     1       0.861   3.041  20.798  0.00  0.00    +0.000 Cl
ATOM      5  C   UNL     1       2.556   4.372  19.051  0.00  0.00    +0.000 A 
ATOM      6  C   UNL     1       3.131   3.396  18.211  0.00  0.00    +0.000 A 
ATOM      7  C   UNL     1       4.010   3.799  17.192  0.00  0.00    +0.000 A 
ATOM      8  C   UNL     1       4.329   5.151  17.020  0.00  0.00    +0.000 A 
ATOM      9  C   UNL     1       3.844   6.115  17.917  0.00  0.00    +0.000 A 
ATOM     10  C   UNL     1       2.929   5.703  18.896  0.00  0.00    +0.000 A 
ENDROOT
BRANCH   8  11
ATOM     11  C   UNL     1       5.179   5.639  15.902  0.00  0.00    +0.000 C 
ATOM     12  O   UNL     1       5.290   6.822  15.628  0.00  0.00    +0.000 OA
BRANCH  11  13
ATOM     13  O   UNL     1       5.753   4.661  15.169  0.00  0.00    +0.000 OA
ATOM     14  H   UNL     1       5.927   3.826  15.639  0.00  0.00    +0.000 HD
ENDBRANCH  11  13
ENDBRANCH   8  11
BRANCH   1  15
ATOM     15  C   UNL     1       2.376   7.809  20.209  0.00  0.00    +0.000 C 
BRANCH  15  23
ATOM     16  C   UNL     1       0.124   8.751  22.272  0.00  0.00    +0.000 C 
ATOM     17  C   UNL     1       0.221   9.172  20.831  0.00  0.00    +0.000 A 
ATOM     18  C   UNL     1      -0.866   9.951  20.380  0.00  0.00    +0.000 A 
ATOM     19  C   UNL     1      -0.945  10.410  19.076  0.00  0.00    +0.000 A 
ATOM     20  C   UNL     1       0.070  10.102  18.188  0.00  0.00    +0.000 A 
ATOM     21  C   UNL     1       1.163   9.311  18.587  0.00  0.00    +0.000 A 
ATOM     22  C   UNL     1       2.199   9.010  17.529  0.00  0.00    +0.000 C 
ATOM     23  C   UNL     1       1.260   8.815  19.928  0.00  0.00    +0.000 A 
ENDBRANCH  15  23
ENDBRANCH   1  15
TORSDOF 4
ENDMDL
MODEL 9
REMARK VINA RESULT:      -7.2      4.261      5.687
REMARK  Name = 
REMARK  6 active torsions:
REMARK  status: ('A' for Active; 'I' for Inactive)
REMARK    1  A    between atoms: C_1  and  C_2
REMARK    2  A    between atoms: C_6  and  C_7
REMARK    3  A    between atoms: C_8  and  C_9
REMARK    4  A    between atoms: C_9  and  N_10
REMARK    5  A    between atoms: C_17  and  C_18
REMARK    6  A    between atoms: C_18  and  O_20
REMARK                            x       y       z     vdW  Elec       q    Type
REMARK                         _______ _______ _______ _____ _____    ______ ____
ROOT
ATOM      1  N   UNL     1       2.258   5.837  19.465  0.00  0.00    +0.000 N 
ATOM      2  N   UNL     1       1.250   4.960  19.666  0.00  0.00    +0.000 NA
ATOM      3  C   UNL     1       1.628   3.875  18.986  0.00  0.00    +0.000 A 
ATOM      4 CL   UNL     1       0.663   2.485  18.962  0.00  0.00    +0.000 Cl
ATOM      5  C   UNL     1       2.875   4.037  18.338  0.00  0.00    +0.000 A 
ATOM      6  C   UNL     1       3.711   3.253  17.517  0.00  0.00    +0.000 A 
ATOM      7  C   UNL     1       4.899   3.811  17.014  0.00  0.00    +0.000 A 
ATOM      8  C   UNL     1       5.261   5.123  17.336  0.00  0.00    +0.000 A 
ATOM      9  C   UNL     1       4.489   5.873  18.237  0.00  0.00    +0.000 A 
ATOM     10  C   UNL     1       3.283   5.320  18.689  0.00  0.00    +0.000 A 
ENDROOT
BRANCH   8  11
ATOM     11  C   UNL     1       6.457   5.790  16.757  0.00  0.00    +0.000 C 
ATOM     12  O   UNL     1       6.458   6.963  16.420  0.00  0.00    +0.000 OA
BRANCH  11  13
ATOM     13  O   UNL     1       7.514   4.972  16.563  0.00  0.00    +0.000 OA
ATOM     14  H   UNL     1       8.345   5.409  16.303  0.00  0.00    +0.000 HD
ENDBRANCH  11  13
ENDBRANCH   8  11
BRANCH   1  15
ATOM     15  C   UNL     1       2.301   7.071  20.250  0.00  0.00    +0.000 C 
BRANCH  15  23
ATOM     16  C   UNL     1       2.640   8.552  17.439  0.00  0.00    +0.000 C 
ATOM     17  C   UNL     1       1.720   8.983  18.548  0.00  0.00    +0.000 A 
ATOM     18  C   UNL     1       1.069  10.214  18.317  0.00  0.00    +0.000 A 
ATOM     19  C   UNL     1       0.200  10.765  19.243  0.00  0.00    +0.000 A 
ATOM     20  C   UNL     1      -0.045  10.093  20.427  0.00  0.00    +0.000 A 
ATOM     21  C   UNL     1       0.597   8.873  20.709  0.00  0.00    +0.000 A 
ATOM     22  C   UNL     1       0.282   8.239  22.044  0.00  0.00    +0.000 C 
ATOM     23  C   UNL     1       1.510   8.289  19.772  0.00  0.00    +0.000 A 
ENDBRANCH  15  23
ENDBRANCH   1  15
TORSDOF 4
ENDMDL
