MODEL 1
REMARK VINA RESULT:      -7.1      0.000      0.000
REMARK  Name = 
REMARK  9 active torsions:
REMARK  status: ('A' for Active; 'I' for Inactive)
REMARK    1  A    between atoms: O_1  and  C_2
REMARK    2  A    between atoms: C_2  and  C_3
REMARK    3  A    between atoms: C_2  and  C_8
REMARK    4  A    between atoms: C_3  and  N_4
REMARK    5  A    between atoms: N_4  and  C_5
REMARK    6  A    between atoms: C_8  and  O_9
REMARK    7  A    between atoms: O_9  and  C_10
REMARK    8  A    between atoms: C_13  and  C_14
REMARK    9  A    between atoms: C_16  and  C_17
REMARK                            x       y       z     vdW  Elec       q    Type
REMARK                         _______ _______ _______ _____ _____    ______ ____
ROOT
ATOM      1  C   UNL     1       3.781   6.178  18.397  0.00  0.00    +0.000 A 
ATOM      2  C   UNL     1       3.629   7.265  17.533  0.00  0.00    +0.000 A 
ATOM      3  C   UNL     1       2.716   8.278  17.821  0.00  0.00    +0.000 A 
ATOM      4  C   UNL     1       1.940   8.236  18.980  0.00  0.00    +0.000 A 
ATOM      5  C   UNL     1       2.079   7.138  19.844  0.00  0.00    +0.000 A 
ATOM      6  C   UNL     1       2.993   6.117  19.550  0.00  0.00    +0.000 A 
ENDROOT
BRANCH   4   7
ATOM      7  C   UNL     1       1.010   9.331  19.236  0.00  0.00    +0.000 A 
ATOM      8  N   UNL     1       0.422  10.075  18.319  0.00  0.00    +0.000 NA
ATOM      9  C   UNL     1      -0.359  11.004  18.990  0.00  0.00    +0.000 A 
ATOM     10  C   UNL     1      -0.193  10.828  20.352  0.00  0.00    +0.000 A 
ATOM     11  N   UNL     1       0.668   9.776  20.490  0.00  0.00    +0.000 N 
ATOM     12  H   UNL     1       1.025   9.399  21.356  0.00  0.00    +0.000 HD
BRANCH   9  13
ATOM     13  C   UNL     1      -1.217  12.008  18.277  0.00  0.00    +0.000 C 
ATOM     14  F   UNL     1      -1.865  11.498  17.197  0.00  0.00    +0.000 F 
ATOM     15  F   UNL     1      -2.171  12.521  19.101  0.00  0.00    +0.000 F 
ATOM     16  F   UNL     1      -0.487  13.066  17.832  0.00  0.00    +0.000 F 
ENDBRANCH   9  13
ENDBRANCH   4   7
BRANCH   1  17
ATOM     17  O   UNL     1       4.661   5.140  18.213  0.00  0.00    +0.000 OA
BRANCH  17  18
ATOM     18  C   UNL     1       5.556   4.928  19.315  0.00  0.00    +0.000 C 
BRANCH  18  19
ATOM     19  C   UNL     1       6.925   5.567  19.065  0.00  0.00    +0.000 C 
BRANCH  19  20
ATOM     20  O   UNL     1       7.724   5.460  20.251  0.00  0.00    +0.000 OA
ATOM     21  H   UNL     1       7.337   4.761  20.803  0.00  0.00    +0.000 HD
ENDBRANCH  19  20
BRANCH  19  22
ATOM     22  C   UNL     1       7.651   4.834  17.912  0.00  0.00    +0.000 C 
BRANCH  22  23
ATOM     23  N   UNL     1       7.392   5.429  16.598  0.00  0.00    +0.000 NA
ATOM     24  H   UNL     1       8.243   5.854  16.230  0.00  0.00    +0.000 HD
BRANCH  23  25
ATOM     25  C   UNL     1       6.815   4.478  15.643  0.00  0.00    +0.000 C 
ATOM     26  C   UNL     1       5.576   4.881  14.889  0.00  0.00    +0.000 C 
ATOM     27  C   UNL     1       6.888   4.761  14.170  0.00  0.00    +0.000 C 
ENDBRANCH  23  25
ENDBRANCH  22  23
ENDBRANCH  19  22
ENDBRANCH  18  19
ENDBRANCH  17  18
ENDBRANCH   1  17
TORSDOF 9
ENDMDL
MODEL 2
REMARK VINA RESULT:      -7.0      5.810      7.753
REMARK  Name = 
REMARK  9 active torsions:
REMARK  status: ('A' for Active; 'I' for Inactive)
REMARK    1  A    between atoms: O_1  and  C_2
REMARK    2  A    between atoms: C_2  and  C_3
REMARK    3  A    between atoms: C_2  and  C_8
REMARK    4  A    between atoms: C_3  and  N_4
REMARK    5  A    between atoms: N_4  and  C_5
REMARK    6  A    between atoms: C_8  and  O_9
REMARK    7  A    between atoms: O_9  and  C_10
REMARK    8  A    between atoms: C_13  and  C_14
REMARK    9  A    between atoms: C_16  and  C_17
REMARK                            x       y       z     vdW  Elec       q    Type
REMARK                         _______ _______ _______ _____ _____    ______ ____
ROOT
ATOM      1  C   UNL     1       7.364   7.345  17.695  0.00  0.00    +0.000 A 
ATOM      2  C   UNL     1       6.080   7.155  17.181  0.00  0.00    +0.000 A 
ATOM      3  C   UNL     1       5.251   6.158  17.692  0.00  0.00    +0.000 A 
ATOM      4  C   UNL     1       5.680   5.333  18.733  0.00  0.00    +0.000 A 
ATOM      5  C   UNL     1       6.977   5.510  19.241  0.00  0.00    +0.000 A 
ATOM      6  C   UNL     1       7.811   6.509  18.722  0.00  0.00    +0.000 A 
ENDROOT
BRANCH   4   7
ATOM      7  C   UNL     1       4.766   4.314  19.237  0.00  0.00    +0.000 A 
ATOM      8  N   UNL     1       3.563   4.533  19.732  0.00  0.00    +0.000 NA
ATOM      9  C   UNL     1       3.049   3.301  20.110  0.00  0.00    +0.000 A 
ATOM     10  C   UNL     1       3.999   2.326  19.866  0.00  0.00    +0.000 A 
ATOM     11  N   UNL     1       5.070   2.977  19.319  0.00  0.00    +0.000 N 
ATOM     12  H   UNL     1       5.950   2.565  19.048  0.00  0.00    +0.000 HD
BRANCH   9  13
ATOM     13  C   UNL     1       1.672   3.139  20.685  0.00  0.00    +0.000 C 
ATOM     14  F   UNL     1       1.653   2.465  21.865  0.00  0.00    +0.000 F 
ATOM     15  F   UNL     1       1.083   4.344  20.912  0.00  0.00    +0.000 F 
ATOM     16  F   UNL     1       0.850   2.465  19.836  0.00  0.00    +0.000 F 
ENDBRANCH   9  13
ENDBRANCH   4   7
BRANCH   1  17
ATOM     17  O   UNL     1       8.249   8.307  17.272  0.00  0.00    +0.000 OA
BRANCH  17  18
ATOM     18  C   UNL     1       8.110   9.567  17.945  0.00  0.00    +0.000 C 
BRANCH  18  19
ATOM     19  C   UNL     1       9.442  10.052  18.523  0.00  0.00    +0.000 C 
BRANCH  19  20
ATOM     20  O   UNL     1       9.969  11.096  17.692  0.00  0.00    +0.000 OA
ATOM     21  H   UNL     1      10.725  11.489  18.159  0.00  0.00    +0.000 HD
ENDBRANCH  19  20
BRANCH  19  22
ATOM     22  C   UNL     1       9.230  10.613  19.949  0.00  0.00    +0.000 C 
BRANCH  22  23
ATOM     23  N   UNL     1       9.190  12.078  19.992  0.00  0.00    +0.000 NA
ATOM     24  H   UNL     1       8.251  12.397  20.230  0.00  0.00    +0.000 HD
BRANCH  23  25
ATOM     25  C   UNL     1      10.194  12.652  20.892  0.00  0.00    +0.000 C 
ATOM     26  C   UNL     1      10.872  13.933  20.488  0.00  0.00    +0.000 C 
ATOM     27  C   UNL     1       9.896  13.927  21.628  0.00  0.00    +0.000 C 
ENDBRANCH  23  25
ENDBRANCH  22  23
ENDBRANCH  19  22
ENDBRANCH  18  19
ENDBRANCH  17  18
ENDBRANCH   1  17
TORSDOF 9
ENDMDL
MODEL 3
REMARK VINA RESULT:      -6.9      7.594      9.628
REMARK  Name = 
REMARK  9 active torsions:
REMARK  status: ('A' for Active; 'I' for Inactive)
REMARK    1  A    between atoms: O_1  and  C_2
REMARK    2  A    between atoms: C_2  and  C_3
REMARK    3  A    between atoms: C_2  and  C_8
REMARK    4  A    between atoms: C_3  and  N_4
REMARK    5  A    between atoms: N_4  and  C_5
REMARK    6  A    between atoms: C_8  and  O_9
REMARK    7  A    between atoms: O_9  and  C_10
REMARK    8  A    between atoms: C_13  and  C_14
REMARK    9  A    between atoms: C_16  and  C_17
REMARK                            x       y       z     vdW  Elec       q    Type
REMARK                         _______ _______ _______ _____ _____    ______ ____
ROOT
ATOM      1  C   UNL     1       9.699  12.451  18.714  0.00  0.00    +0.000 A 
ATOM      2  C   UNL     1      10.084  11.398  19.547  0.00  0.00    +0.000 A 
ATOM      3  C   UNL     1       9.575  10.116  19.351  0.00  0.00    +0.000 A 
ATOM      4  C   UNL     1       8.678   9.851  18.316  0.00  0.00    +0.000 A 
ATOM      5  C   UNL     1       8.277  10.909  17.485  0.00  0.00    +0.000 A 
ATOM      6  C   UNL     1       8.785  12.200  17.687  0.00  0.00    +0.000 A 
ENDROOT
BRANCH   4   7
ATOM      7  C   UNL     1       8.188   8.487  18.150  0.00  0.00    +0.000 A 
ATOM      8  N   UNL     1       7.363   8.071  17.207  0.00  0.00    +0.000 NA
ATOM      9  C   UNL     1       7.141   6.721  17.428  0.00  0.00    +0.000 A 
ATOM     10  C   UNL     1       7.827   6.334  18.566  0.00  0.00    +0.000 A 
ATOM     11  N   UNL     1       8.477   7.453  19.007  0.00  0.00    +0.000 N 
ATOM     12  H   UNL     1       9.049   7.529  19.835  0.00  0.00    +0.000 HD
BRANCH   9  13
ATOM     13  C   UNL     1       6.280   5.882  16.529  0.00  0.00    +0.000 C 
ATOM     14  F   UNL     1       5.384   6.606  15.807  0.00  0.00    +0.000 F 
ATOM     15  F   UNL     1       7.028   5.181  15.636  0.00  0.00    +0.000 F 
ATOM     16  F   UNL     1       5.563   4.965  17.233  0.00  0.00    +0.000 F 
ENDBRANCH   9  13
ENDBRANCH   4   7
BRANCH   1  17
ATOM     17  O   UNL     1      10.154  13.743  18.813  0.00  0.00    +0.000 OA
BRANCH  17  18
ATOM     18  C   UNL     1      10.980  14.159  17.715  0.00  0.00    +0.000 C 
BRANCH  18  19
ATOM     19  C   UNL     1      10.825  15.654  17.423  0.00  0.00    +0.000 C 
BRANCH  19  20
ATOM     20  O   UNL     1      10.795  15.861  16.004  0.00  0.00    +0.000 OA
ATOM     21  H   UNL     1      11.641  15.548  15.644  0.00  0.00    +0.000 HD
ENDBRANCH  19  20
BRANCH  19  22
ATOM     22  C   UNL     1       9.502  16.179  18.027  0.00  0.00    +0.000 C 
BRANCH  22  23
ATOM     23  N   UNL     1       8.311  15.602  17.398  0.00  0.00    +0.000 NA
ATOM     24  H   UNL     1       8.467  14.616  17.189  0.00  0.00    +0.000 HD
BRANCH  23  25
ATOM     25  C   UNL     1       7.094  15.793  18.191  0.00  0.00    +0.000 C 
ATOM     26  C   UNL     1       5.977  14.795  18.045  0.00  0.00    +0.000 C 
ATOM     27  C   UNL     1       6.777  14.847  19.314  0.00  0.00    +0.000 C 
ENDBRANCH  23  25
ENDBRANCH  22  23
ENDBRANCH  19  22
ENDBRANCH  18  19
ENDBRANCH  17  18
ENDBRANCH   1  17
TORSDOF 9
ENDMDL
MODEL 4
REMARK VINA RESULT:      -6.9      5.180      8.765
REMARK  Name = 
REMARK  9 active torsions:
REMARK  status: ('A' for Active; 'I' for Inactive)
REMARK    1  A    between atoms: O_1  and  C_2
REMARK    2  A    between atoms: C_2  and  C_3
REMARK    3  A    between atoms: C_2  and  C_8
REMARK    4  A    between atoms: C_3  and  N_4
REMARK    5  A    between atoms: N_4  and  C_5
REMARK    6  A    between atoms: C_8  and  O_9
REMARK    7  A    between atoms: O_9  and  C_10
REMARK    8  A    between atoms: C_13  and  C_14
REMARK    9  A    between atoms: C_16  and  C_17
REMARK                            x       y       z     vdW  Elec       q    Type
REMARK                         _______ _______ _______ _____ _____    ______ ____
ROOT
ATOM      1  C   UNL     1       1.239   9.571  19.031  0.00  0.00    +0.000 A 
ATOM      2  C   UNL     1       1.257   8.729  20.146  0.00  0.00    +0.000 A 
ATOM      3  C   UNL     1       1.953   7.522  20.112  0.00  0.00    +0.000 A 
ATOM      4  C   UNL     1       2.655   7.131  18.971  0.00  0.00    +0.000 A 
ATOM      5  C   UNL     1       2.627   7.967  17.844  0.00  0.00    +0.000 A 
ATOM      6  C   UNL     1       1.921   9.177  17.877  0.00  0.00    +0.000 A 
ENDROOT
BRANCH   4   7
ATOM      7  C   UNL     1       3.377   5.863  18.997  0.00  0.00    +0.000 A 
ATOM      8  N   UNL     1       2.926   4.727  19.495  0.00  0.00    +0.000 NA
ATOM      9  C   UNL     1       3.931   3.786  19.335  0.00  0.00    +0.000 A 
ATOM     10  C   UNL     1       5.030   4.398  18.759  0.00  0.00    +0.000 A 
ATOM     11  N   UNL     1       4.667   5.700  18.554  0.00  0.00    +0.000 N 
ATOM     12  H   UNL     1       5.246   6.434  18.174  0.00  0.00    +0.000 HD
BRANCH   9  13
ATOM     13  C   UNL     1       3.773   2.352  19.749  0.00  0.00    +0.000 C 
ATOM     14  F   UNL     1       4.732   1.927  20.613  0.00  0.00    +0.000 F 
ATOM     15  F   UNL     1       2.575   2.140  20.358  0.00  0.00    +0.000 F 
ATOM     16  F   UNL     1       3.812   1.514  18.678  0.00  0.00    +0.000 F 
ENDBRANCH   9  13
ENDBRANCH   4   7
BRANCH   1  17
ATOM     17  O   UNL     1       0.598  10.784  18.969  0.00  0.00    +0.000 OA
BRANCH  17  18
ATOM     18  C   UNL     1      -0.080  11.150  20.181  0.00  0.00    +0.000 C 
BRANCH  18  19
ATOM     19  C   UNL     1      -1.466  11.739  19.899  0.00  0.00    +0.000 C 
BRANCH  19  20
ATOM     20  O   UNL     1      -1.989  12.320  21.102  0.00  0.00    +0.000 OA
ATOM     21  H   UNL     1      -2.794  12.808  20.865  0.00  0.00    +0.000 HD
ENDBRANCH  19  20
BRANCH  19  22
ATOM     22  C   UNL     1      -1.366  12.842  18.820  0.00  0.00    +0.000 C 
BRANCH  22  23
ATOM     23  N   UNL     1      -1.416  12.316  17.453  0.00  0.00    +0.000 NA
ATOM     24  H   UNL     1      -0.504  11.944  17.186  0.00  0.00    +0.000 HD
BRANCH  23  25
ATOM     25  C   UNL     1      -2.475  11.322  17.260  0.00  0.00    +0.000 C 
ATOM     26  C   UNL     1      -2.784  10.863  15.860  0.00  0.00    +0.000 C 
ATOM     27  C   UNL     1      -2.122   9.927  16.828  0.00  0.00    +0.000 C 
ENDBRANCH  23  25
ENDBRANCH  22  23
ENDBRANCH  19  22
ENDBRANCH  18  19
ENDBRANCH  17  18
ENDBRANCH   1  17
TORSDOF 9
ENDMDL
MODEL 5
REMARK VINA RESULT:      -6.8      5.701      7.721
REMARK  Name = 
REMARK  9 active torsions:
REMARK  status: ('A' for Active; 'I' for Inactive)
REMARK    1  A    between atoms: O_1  and  C_2
REMARK    2  A    between atoms: C_2  and  C_3
REMARK    3  A    between atoms: C_2  and  C_8
REMARK    4  A    between atoms: C_3  and  N_4
REMARK    5  A    between atoms: N_4  and  C_5
REMARK    6  A    between atoms: C_8  and  O_9
REMARK    7  A    between atoms: O_9  and  C_10
REMARK    8  A    between atoms: C_13  and  C_14
REMARK    9  A    between atoms: C_16  and  C_17
REMARK                            x       y       z     vdW  Elec       q    Type
REMARK                         _______ _______ _______ _____ _____    ______ ____
ROOT
ATOM      1  C   UNL     1       7.434   7.266  17.777  0.00  0.00    +0.000 A 
ATOM      2  C   UNL     1       7.797   6.390  18.802  0.00  0.00    +0.000 A 
ATOM      3  C   UNL     1       6.903   5.422  19.258  0.00  0.00    +0.000 A 
ATOM      4  C   UNL     1       5.631   5.300  18.696  0.00  0.00    +0.000 A 
ATOM      5  C   UNL     1       5.257   6.189  17.676  0.00  0.00    +0.000 A 
ATOM      6  C   UNL     1       6.155   7.166  17.223  0.00  0.00    +0.000 A 
ENDROOT
BRANCH   4   7
ATOM      7  C   UNL     1       4.742   4.261  19.204  0.00  0.00    +0.000 A 
ATOM      8  N   UNL     1       3.492   4.434  19.589  0.00  0.00    +0.000 NA
ATOM      9  C   UNL     1       3.024   3.201  20.017  0.00  0.00    +0.000 A 
ATOM     10  C   UNL     1       4.047   2.275  19.919  0.00  0.00    +0.000 A 
ATOM     11  N   UNL     1       5.118   2.955  19.408  0.00  0.00    +0.000 N 
ATOM     12  H   UNL     1       6.040   2.584  19.236  0.00  0.00    +0.000 HD
BRANCH   9  13
ATOM     13  C   UNL     1       1.617   2.989  20.496  0.00  0.00    +0.000 C 
ATOM     14  F   UNL     1       0.827   2.351  19.593  0.00  0.00    +0.000 F 
ATOM     15  F   UNL     1       1.588   2.247  21.636  0.00  0.00    +0.000 F 
ATOM     16  F   UNL     1       1.004   4.167  20.790  0.00  0.00    +0.000 F 
ENDBRANCH   9  13
ENDBRANCH   4   7
BRANCH   1  17
ATOM     17  O   UNL     1       8.245   8.241  17.248  0.00  0.00    +0.000 OA
BRANCH  17  18
ATOM     18  C   UNL     1       7.994   9.556  17.766  0.00  0.00    +0.000 C 
BRANCH  18  19
ATOM     19  C   UNL     1       9.272  10.212  18.294  0.00  0.00    +0.000 C 
BRANCH  19  20
ATOM     20  O   UNL     1       9.391  11.532  17.745  0.00  0.00    +0.000 OA
ATOM     21  H   UNL     1      10.234  11.903  18.055  0.00  0.00    +0.000 HD
ENDBRANCH  19  20
BRANCH  19  22
ATOM     22  C   UNL     1       9.217  10.320  19.836  0.00  0.00    +0.000 C 
BRANCH  22  23
ATOM     23  N   UNL     1       9.956  11.473  20.359  0.00  0.00    +0.000 NA
ATOM     24  H   UNL     1      10.529  11.887  19.623  0.00  0.00    +0.000 HD
BRANCH  23  25
ATOM     25  C   UNL     1       9.088  12.473  20.986  0.00  0.00    +0.000 C 
ATOM     26  C   UNL     1       9.177  12.668  22.476  0.00  0.00    +0.000 C 
ATOM     27  C   UNL     1       9.682  13.733  21.547  0.00  0.00    +0.000 C 
ENDBRANCH  23  25
ENDBRANCH  22  23
ENDBRANCH  19  22
ENDBRANCH  18  19
ENDBRANCH  17  18
ENDBRANCH   1  17
TORSDOF 9
ENDMDL
MODEL 6
REMARK VINA RESULT:      -6.8      2.828      4.041
REMARK  Name = 
REMARK  9 active torsions:
REMARK  status: ('A' for Active; 'I' for Inactive)
REMARK    1  A    between atoms: O_1  and  C_2
REMARK    2  A    between atoms: C_2  and  C_3
REMARK    3  A    between atoms: C_2  and  C_8
REMARK    4  A    between atoms: C_3  and  N_4
REMARK    5  A    between atoms: N_4  and  C_5
REMARK    6  A    between atoms: C_8  and  O_9
REMARK    7  A    between atoms: O_9  and  C_10
REMARK    8  A    between atoms: C_13  and  C_14
REMARK    9  A    between atoms: C_16  and  C_17
REMARK                            x       y       z     vdW  Elec       q    Type
REMARK                         _______ _______ _______ _____ _____    ______ ____
ROOT
ATOM      1  C   UNL     1       2.904   7.128  18.375  0.00  0.00    +0.000 A 
ATOM      2  C   UNL     1       2.527   8.266  17.659  0.00  0.00    +0.000 A 
ATOM      3  C   UNL     1       1.688   9.220  18.232  0.00  0.00    +0.000 A 
ATOM      4  C   UNL     1       1.212   9.065  19.535  0.00  0.00    +0.000 A 
ATOM      5  C   UNL     1       1.576   7.915  20.253  0.00  0.00    +0.000 A 
ATOM      6  C   UNL     1       2.416   6.954  19.673  0.00  0.00    +0.000 A 
ENDROOT
BRANCH   4   7
ATOM      7  C   UNL     1       0.346  10.101  20.089  0.00  0.00    +0.000 A 
ATOM      8  N   UNL     1      -0.110  10.147  21.326  0.00  0.00    +0.000 NA
ATOM      9  C   UNL     1      -0.906  11.277  21.423  0.00  0.00    +0.000 A 
ATOM     10  C   UNL     1      -0.955  11.899  20.189  0.00  0.00    +0.000 A 
ATOM     11  N   UNL     1      -0.165  11.149  19.362  0.00  0.00    +0.000 N 
ATOM     12  H   UNL     1      -0.002  11.307  18.379  0.00  0.00    +0.000 HD
BRANCH   9  13
ATOM     13  C   UNL     1      -1.575  11.691  22.702  0.00  0.00    +0.000 C 
ATOM     14  F   UNL     1      -2.878  12.045  22.544  0.00  0.00    +0.000 F 
ATOM     15  F   UNL     1      -1.550  10.689  23.622  0.00  0.00    +0.000 F 
ATOM     16  F   UNL     1      -0.948  12.753  23.276  0.00  0.00    +0.000 F 
ENDBRANCH   9  13
ENDBRANCH   4   7
BRANCH   1  17
ATOM     17  O   UNL     1       3.737   6.142  17.907  0.00  0.00    +0.000 OA
BRANCH  17  18
ATOM     18  C   UNL     1       4.457   5.445  18.936  0.00  0.00    +0.000 C 
BRANCH  18  19
ATOM     19  C   UNL     1       5.007   4.106  18.438  0.00  0.00    +0.000 C 
BRANCH  19  20
ATOM     20  O   UNL     1       6.418   4.049  18.688  0.00  0.00    +0.000 OA
ATOM     21  H   UNL     1       6.872   4.236  17.850  0.00  0.00    +0.000 HD
ENDBRANCH  19  20
BRANCH  19  22
ATOM     22  C   UNL     1       4.323   2.939  19.187  0.00  0.00    +0.000 C 
BRANCH  22  23
ATOM     23  N   UNL     1       3.472   3.384  20.294  0.00  0.00    +0.000 NA
ATOM     24  H   UNL     1       3.421   4.403  20.310  0.00  0.00    +0.000 HD
BRANCH  23  25
ATOM     25  C   UNL     1       2.136   2.782  20.267  0.00  0.00    +0.000 C 
ATOM     26  C   UNL     1       1.373   2.671  21.559  0.00  0.00    +0.000 C 
ATOM     27  C   UNL     1       0.925   3.639  20.504  0.00  0.00    +0.000 C 
ENDBRANCH  23  25
ENDBRANCH  22  23
ENDBRANCH  19  22
ENDBRANCH  18  19
ENDBRANCH  17  18
ENDBRANCH   1  17
TORSDOF 9
ENDMDL
MODEL 7
REMARK VINA RESULT:      -6.8      5.840      7.535
REMARK  Name = 
REMARK  9 active torsions:
REMARK  status: ('A' for Active; 'I' for Inactive)
REMARK    1  A    between atoms: O_1  and  C_2
REMARK    2  A    between atoms: C_2  and  C_3
REMARK    3  A    between atoms: C_2  and  C_8
REMARK    4  A    between atoms: C_3  and  N_4
REMARK    5  A    between atoms: N_4  and  C_5
REMARK    6  A    between atoms: C_8  and  O_9
REMARK    7  A    between atoms: O_9  and  C_10
REMARK    8  A    between atoms: C_13  and  C_14
REMARK    9  A    between atoms: C_16  and  C_17
REMARK                            x       y       z     vdW  Elec       q    Type
REMARK                         _______ _______ _______ _____ _____    ______ ____
ROOT
ATOM      1  C   UNL     1       7.520   7.082  18.145  0.00  0.00    +0.000 A 
ATOM      2  C   UNL     1       6.432   7.116  17.271  0.00  0.00    +0.000 A 
ATOM      3  C   UNL     1       5.431   6.148  17.345  0.00  0.00    +0.000 A 
ATOM      4  C   UNL     1       5.489   5.130  18.298  0.00  0.00    +0.000 A 
ATOM      5  C   UNL     1       6.590   5.084  19.169  0.00  0.00    +0.000 A 
ATOM      6  C   UNL     1       7.597   6.054  19.089  0.00  0.00    +0.000 A 
ENDROOT
BRANCH   4   7
ATOM      7  C   UNL     1       4.408   4.151  18.338  0.00  0.00    +0.000 A 
ATOM      8  N   UNL     1       3.329   4.222  19.096  0.00  0.00    +0.000 NA
ATOM      9  C   UNL     1       2.579   3.084  18.840  0.00  0.00    +0.000 A 
ATOM     10  C   UNL     1       3.257   2.294  17.930  0.00  0.00    +0.000 A 
ATOM     11  N   UNL     1       4.403   2.977  17.626  0.00  0.00    +0.000 N 
ATOM     12  H   UNL     1       5.141   2.669  17.010  0.00  0.00    +0.000 HD
BRANCH   9  13
ATOM     13  C   UNL     1       1.251   2.826  19.490  0.00  0.00    +0.000 C 
ATOM     14  F   UNL     1       1.334   2.063  20.611  0.00  0.00    +0.000 F 
ATOM     15  F   UNL     1       0.640   3.987  19.851  0.00  0.00    +0.000 F 
ATOM     16  F   UNL     1       0.394   2.190  18.646  0.00  0.00    +0.000 F 
ENDBRANCH   9  13
ENDBRANCH   4   7
BRANCH   1  17
ATOM     17  O   UNL     1       8.546   7.996  18.163  0.00  0.00    +0.000 OA
BRANCH  17  18
ATOM     18  C   UNL     1       8.152   9.326  17.793  0.00  0.00    +0.000 C 
BRANCH  18  19
ATOM     19  C   UNL     1       8.816  10.382  18.682  0.00  0.00    +0.000 C 
BRANCH  19  20
ATOM     20  O   UNL     1       9.432   9.738  19.806  0.00  0.00    +0.000 OA
ATOM     21  H   UNL     1       8.829   9.038  20.109  0.00  0.00    +0.000 HD
ENDBRANCH  19  20
BRANCH  19  22
ATOM     22  C   UNL     1       9.906  11.138  17.886  0.00  0.00    +0.000 C 
BRANCH  22  23
ATOM     23  N   UNL     1       9.860  12.589  18.084  0.00  0.00    +0.000 NA
ATOM     24  H   UNL     1      10.129  12.823  19.039  0.00  0.00    +0.000 HD
BRANCH  23  25
ATOM     25  C   UNL     1      10.667  13.325  17.107  0.00  0.00    +0.000 C 
ATOM     26  C   UNL     1      11.523  14.463  17.594  0.00  0.00    +0.000 C 
ATOM     27  C   UNL     1      12.164  13.191  17.121  0.00  0.00    +0.000 C 
ENDBRANCH  23  25
ENDBRANCH  22  23
ENDBRANCH  19  22
ENDBRANCH  18  19
ENDBRANCH  17  18
ENDBRANCH   1  17
TORSDOF 9
ENDMDL
MODEL 8
REMARK VINA RESULT:      -6.8      4.965      8.735
REMARK  Name = 
REMARK  9 active torsions:
REMARK  status: ('A' for Active; 'I' for Inactive)
REMARK    1  A    between atoms: O_1  and  C_2
REMARK    2  A    between atoms: C_2  and  C_3
REMARK    3  A    between atoms: C_2  and  C_8
REMARK    4  A    between atoms: C_3  and  N_4
REMARK    5  A    between atoms: N_4  and  C_5
REMARK    6  A    between atoms: C_8  and  O_9
REMARK    7  A    between atoms: O_9  and  C_10
REMARK    8  A    between atoms: C_13  and  C_14
REMARK    9  A    between atoms: C_16  and  C_17
REMARK                            x       y       z     vdW  Elec       q    Type
REMARK                         _______ _______ _______ _____ _____    ______ ____
ROOT
ATOM      1  C   UNL     1       0.765   9.518  19.363  0.00  0.00    +0.000 A 
ATOM      2  C   UNL     1       1.157   8.575  20.315  0.00  0.00    +0.000 A 
ATOM      3  C   UNL     1       2.072   7.575  19.989  0.00  0.00    +0.000 A 
ATOM      4  C   UNL     1       2.622   7.498  18.709  0.00  0.00    +0.000 A 
ATOM      5  C   UNL     1       2.219   8.435  17.744  0.00  0.00    +0.000 A 
ATOM      6  C   UNL     1       1.295   9.436  18.072  0.00  0.00    +0.000 A 
ENDROOT
BRANCH   4   7
ATOM      7  C   UNL     1       3.584   6.437  18.427  0.00  0.00    +0.000 A 
ATOM      8  N   UNL     1       4.206   6.244  17.280  0.00  0.00    +0.000 NA
ATOM      9  C   UNL     1       5.008   5.124  17.437  0.00  0.00    +0.000 A 
ATOM     10  C   UNL     1       4.823   4.615  18.710  0.00  0.00    +0.000 A 
ATOM     11  N   UNL     1       3.927   5.449  19.318  0.00  0.00    +0.000 N 
ATOM     12  H   UNL     1       3.549   5.351  20.249  0.00  0.00    +0.000 HD
BRANCH   9  13
ATOM     13  C   UNL     1       5.905   4.610  16.349  0.00  0.00    +0.000 C 
ATOM     14  F   UNL     1       7.188   4.410  16.752  0.00  0.00    +0.000 F 
ATOM     15  F   UNL     1       5.460   3.422  15.857  0.00  0.00    +0.000 F 
ATOM     16  F   UNL     1       5.956   5.467  15.294  0.00  0.00    +0.000 F 
ENDBRANCH   9  13
ENDBRANCH   4   7
BRANCH   1  17
ATOM     17  O   UNL     1      -0.115  10.549  19.589  0.00  0.00    +0.000 OA
BRANCH  17  18
ATOM     18  C   UNL     1       0.319  11.814  19.066  0.00  0.00    +0.000 C 
BRANCH  18  19
ATOM     19  C   UNL     1      -0.862  12.750  18.795  0.00  0.00    +0.000 C 
BRANCH  19  20
ATOM     20  O   UNL     1      -0.885  13.094  17.402  0.00  0.00    +0.000 OA
ATOM     21  H   UNL     1      -1.370  13.932  17.315  0.00  0.00    +0.000 HD
ENDBRANCH  19  20
BRANCH  19  22
ATOM     22  C   UNL     1      -2.192  12.047  19.153  0.00  0.00    +0.000 C 
BRANCH  22  23
ATOM     23  N   UNL     1      -3.111  11.939  18.017  0.00  0.00    +0.000 NA
ATOM     24  H   UNL     1      -2.801  12.543  17.256  0.00  0.00    +0.000 HD
BRANCH  23  25
ATOM     25  C   UNL     1      -3.297  10.558  17.561  0.00  0.00    +0.000 C 
ATOM     26  C   UNL     1      -3.456  10.305  16.086  0.00  0.00    +0.000 C 
ATOM     27  C   UNL     1      -2.205   9.871  16.793  0.00  0.00    +0.000 C 
ENDBRANCH  23  25
ENDBRANCH  22  23
ENDBRANCH  19  22
ENDBRANCH  18  19
ENDBRANCH  17  18
ENDBRANCH   1  17
TORSDOF 9
ENDMDL
MODEL 9
REMARK VINA RESULT:      -6.8      5.027      8.460
REMARK  Name = 
REMARK  9 active torsions:
REMARK  status: ('A' for Active; 'I' for Inactive)
REMARK    1  A    between atoms: O_1  and  C_2
REMARK    2  A    between atoms: C_2  and  C_3
REMARK    3  A    between atoms: C_2  and  C_8
REMARK    4  A    between atoms: C_3  and  N_4
REMARK    5  A    between atoms: N_4  and  C_5
REMARK    6  A    between atoms: C_8  and  O_9
REMARK    7  A    between atoms: O_9  and  C_10
REMARK    8  A    between atoms: C_13  and  C_14
REMARK    9  A    between atoms: C_16  and  C_17
REMARK                            x       y       z     vdW  Elec       q    Type
REMARK                         _______ _______ _______ _____ _____    ______ ____
ROOT
ATOM      1  C   UNL     1       1.007   9.851  19.602  0.00  0.00    +0.000 A 
ATOM      2  C   UNL     1       1.193   8.804  20.508  0.00  0.00    +0.000 A 
ATOM      3  C   UNL     1       1.793   7.612  20.102  0.00  0.00    +0.000 A 
ATOM      4  C   UNL     1       2.227   7.441  18.787  0.00  0.00    +0.000 A 
ATOM      5  C   UNL     1       2.027   8.485  17.869  0.00  0.00    +0.000 A 
ATOM      6  C   UNL     1       1.420   9.679  18.277  0.00  0.00    +0.000 A 
ENDROOT
BRANCH   4   7
ATOM      7  C   UNL     1       2.859   6.177  18.421  0.00  0.00    +0.000 A 
ATOM      8  N   UNL     1       2.386   4.973  18.682  0.00  0.00    +0.000 NA
ATOM      9  C   UNL     1       3.302   4.060  18.182  0.00  0.00    +0.000 A 
ATOM     10  C   UNL     1       4.372   4.750  17.641  0.00  0.00    +0.000 A 
ATOM     11  N   UNL     1       4.079   6.076  17.799  0.00  0.00    +0.000 N 
ATOM     12  H   UNL     1       4.664   6.857  17.539  0.00  0.00    +0.000 HD
BRANCH   9  13
ATOM     13  C   UNL     1       3.090   2.576  18.255  0.00  0.00    +0.000 C 
ATOM     14  F   UNL     1       3.133   2.084  19.522  0.00  0.00    +0.000 F 
ATOM     15  F   UNL     1       1.884   2.220  17.737  0.00  0.00    +0.000 F 
ATOM     16  F   UNL     1       4.030   1.899  17.541  0.00  0.00    +0.000 F 
ENDBRANCH   9  13
ENDBRANCH   4   7
BRANCH   1  17
ATOM     17  O   UNL     1       0.444  11.066  19.906  0.00  0.00    +0.000 OA
BRANCH  17  18
ATOM     18  C   UNL     1       1.366  12.166  19.865  0.00  0.00    +0.000 C 
BRANCH  18  19
ATOM     19  C   UNL     1       0.909  13.253  18.888  0.00  0.00    +0.000 C 
BRANCH  19  20
ATOM     20  O   UNL     1       1.524  13.034  17.611  0.00  0.00    +0.000 OA
ATOM     21  H   UNL     1       0.879  13.285  16.929  0.00  0.00    +0.000 HD
ENDBRANCH  19  20
BRANCH  19  22
ATOM     22  C   UNL     1      -0.627  13.200  18.714  0.00  0.00    +0.000 C 
BRANCH  22  23
ATOM     23  N   UNL     1      -1.043  12.554  17.467  0.00  0.00    +0.000 NA
ATOM     24  H   UNL     1      -0.238  12.136  17.001  0.00  0.00    +0.000 HD
BRANCH  23  25
ATOM     25  C   UNL     1      -2.116  11.575  17.659  0.00  0.00    +0.000 C 
ATOM     26  C   UNL     1      -2.858  11.075  16.449  0.00  0.00    +0.000 C 
ATOM     27  C   UNL     1      -1.930  10.159  17.192  0.00  0.00    +0.000 C 
ENDBRANCH  23  25
ENDBRANCH  22  23
ENDBRANCH  19  22
ENDBRANCH  18  19
ENDBRANCH  17  18
ENDBRANCH   1  17
TORSDOF 9
ENDMDL
