MODEL 1
REMARK VINA RESULT:      -6.6      0.000      0.000
REMARK  Name = 
REMARK  10 active torsions:
REMARK  status: ('A' for Active; 'I' for Inactive)
REMARK    1  A    between atoms: C_1  and  C_2
REMARK    2  A    between atoms: C_2  and  C_3
REMARK    3  A    between atoms: C_3  and  C_4
REMARK    4  A    between atoms: C_4  and  C_5
REMARK    5  A    between atoms: C_5  and  C_6
REMARK    6  A    between atoms: C_6  and  C_7
REMARK    7  A    between atoms: C_7  and  C_9
REMARK    8  A    between atoms: C_12  and  O_13
REMARK    9  A    between atoms: O_13  and  S_14
REMARK   10  A    between atoms: S_14  and  N_15
REMARK                            x       y       z     vdW  Elec       q    Type
REMARK                         _______ _______ _______ _____ _____    ______ ____
ROOT
ATOM      1  C   UNL     1       3.063   6.107  19.327  0.00  0.00    +0.000 A 
ATOM      2  C   UNL     1       4.211   5.377  19.643  0.00  0.00    +0.000 A 
ATOM      3  C   UNL     1       5.316   5.404  18.789  0.00  0.00    +0.000 A 
ATOM      4  C   UNL     1       5.275   6.146  17.603  0.00  0.00    +0.000 A 
ATOM      5  C   UNL     1       4.136   6.891  17.297  0.00  0.00    +0.000 A 
ATOM      6  C   UNL     1       3.027   6.864  18.151  0.00  0.00    +0.000 A 
ENDROOT
BRANCH   1   7
ATOM      7  C   UNL     1       1.902   6.065  20.255  0.00  0.00    +0.000 C 
ATOM      8  O   UNL     1       1.626   7.064  20.914  0.00  0.00    +0.000 OA
BRANCH   7   9
ATOM      9  C   UNL     1       1.109   4.774  20.344  0.00  0.00    +0.000 C 
BRANCH   9  10
ATOM     10  C   UNL     1       1.785   3.769  21.272  0.00  0.00    +0.000 C 
BRANCH  10  11
ATOM     11  C   UNL     1       1.836   2.377  20.643  0.00  0.00    +0.000 C 
BRANCH  11  12
ATOM     12  C   UNL     1       1.425   2.437  19.174  0.00  0.00    +0.000 C 
BRANCH  12  14
ATOM     13  C   UNL     1       2.642   3.190  17.111  0.00  0.00    +0.000 C 
ATOM     14  C   UNL     1       2.611   2.180  18.247  0.00  0.00    +0.000 C 
ENDBRANCH  12  14
ENDBRANCH  11  12
ENDBRANCH  10  11
ENDBRANCH   9  10
ENDBRANCH   7   9
ENDBRANCH   1   7
BRANCH   4  15
ATOM     15  O   UNL     1       6.415   6.116  16.838  0.00  0.00    +0.000 OA
BRANCH  15  16
ATOM     16  S   UNL     1       6.940   4.738  16.138  0.00  0.00    +0.000 S 
ATOM     17  O   UNL     1       8.032   4.200  16.921  0.00  0.00    +0.000 OA
ATOM     18  O   UNL     1       5.800   3.943  15.744  0.00  0.00    +0.000 OA
BRANCH  16  19
ATOM     19  N   UNL     1       7.619   5.282  14.706  0.00  0.00    +0.000 NA
ATOM     20  H   UNL     1       6.994   5.888  14.182  0.00  0.00    +0.000 HD
ATOM     21  H   UNL     1       8.051   4.523  14.182  0.00  0.00    +0.000 HD
ENDBRANCH  16  19
ENDBRANCH  15  16
ENDBRANCH   4  15
TORSDOF 9
ENDMDL
MODEL 2
REMARK VINA RESULT:      -6.6      0.816      1.014
REMARK  Name = 
REMARK  10 active torsions:
REMARK  status: ('A' for Active; 'I' for Inactive)
REMARK    1  A    between atoms: C_1  and  C_2
REMARK    2  A    between atoms: C_2  and  C_3
REMARK    3  A    between atoms: C_3  and  C_4
REMARK    4  A    between atoms: C_4  and  C_5
REMARK    5  A    between atoms: C_5  and  C_6
REMARK    6  A    between atoms: C_6  and  C_7
REMARK    7  A    between atoms: C_7  and  C_9
REMARK    8  A    between atoms: C_12  and  O_13
REMARK    9  A    between atoms: O_13  and  S_14
REMARK   10  A    between atoms: S_14  and  N_15
REMARK                            x       y       z     vdW  Elec       q    Type
REMARK                         _______ _______ _______ _____ _____    ______ ____
ROOT
ATOM      1  C   UNL     1       3.033   6.080  19.334  0.00  0.00    +0.000 A 
ATOM      2  C   UNL     1       4.202   5.383  19.648  0.00  0.00    +0.000 A 
ATOM      3  C   UNL     1       5.309   5.455  18.799  0.00  0.00    +0.000 A 
ATOM      4  C   UNL     1       5.250   6.208  17.621  0.00  0.00    +0.000 A 
ATOM      5  C   UNL     1       4.088   6.920  17.318  0.00  0.00    +0.000 A 
ATOM      6  C   UNL     1       2.977   6.848  18.167  0.00  0.00    +0.000 A 
ENDROOT
BRANCH   1   7
ATOM      7  C   UNL     1       1.869   5.991  20.257  0.00  0.00    +0.000 C 
ATOM      8  O   UNL     1       1.579   6.963  20.950  0.00  0.00    +0.000 OA
BRANCH   7   9
ATOM      9  C   UNL     1       1.093   4.688  20.297  0.00  0.00    +0.000 C 
BRANCH   9  10
ATOM     10  C   UNL     1       1.734   3.687  21.254  0.00  0.00    +0.000 C 
BRANCH  10  11
ATOM     11  C   UNL     1       1.911   2.321  20.595  0.00  0.00    +0.000 C 
BRANCH  11  12
ATOM     12  C   UNL     1       1.408   2.351  19.154  0.00  0.00    +0.000 C 
BRANCH  12  14
ATOM     13  C   UNL     1       2.590   3.241  17.125  0.00  0.00    +0.000 C 
ATOM     14  C   UNL     1       2.542   2.126  18.157  0.00  0.00    +0.000 C 
ENDBRANCH  12  14
ENDBRANCH  11  12
ENDBRANCH  10  11
ENDBRANCH   9  10
ENDBRANCH   7   9
ENDBRANCH   1   7
BRANCH   4  15
ATOM     15  O   UNL     1       6.393   6.223  16.861  0.00  0.00    +0.000 OA
BRANCH  15  16
ATOM     16  S   UNL     1       6.874   4.914  16.014  0.00  0.00    +0.000 S 
ATOM     17  O   UNL     1       5.757   4.004  15.879  0.00  0.00    +0.000 OA
ATOM     18  O   UNL     1       7.667   5.345  14.886  0.00  0.00    +0.000 OA
BRANCH  16  19
ATOM     19  N   UNL     1       7.954   4.171  17.057  0.00  0.00    +0.000 NA
ATOM     20  H   UNL     1       7.931   3.157  16.989  0.00  0.00    +0.000 HD
ATOM     21  H   UNL     1       7.897   4.557  17.997  0.00  0.00    +0.000 HD
ENDBRANCH  16  19
ENDBRANCH  15  16
ENDBRANCH   4  15
TORSDOF 9
ENDMDL
MODEL 3
REMARK VINA RESULT:      -6.5      1.048      1.418
REMARK  Name = 
REMARK  10 active torsions:
REMARK  status: ('A' for Active; 'I' for Inactive)
REMARK    1  A    between atoms: C_1  and  C_2
REMARK    2  A    between atoms: C_2  and  C_3
REMARK    3  A    between atoms: C_3  and  C_4
REMARK    4  A    between atoms: C_4  and  C_5
REMARK    5  A    between atoms: C_5  and  C_6
REMARK    6  A    between atoms: C_6  and  C_7
REMARK    7  A    between atoms: C_7  and  C_9
REMARK    8  A    between atoms: C_12  and  O_13
REMARK    9  A    between atoms: O_13  and  S_14
REMARK   10  A    between atoms: S_14  and  N_15
REMARK                            x       y       z     vdW  Elec       q    Type
REMARK                         _______ _______ _______ _____ _____    ______ ____
ROOT
ATOM      1  C   UNL     1       3.187   5.734  19.394  0.00  0.00    +0.000 A 
ATOM      2  C   UNL     1       4.465   5.274  19.722  0.00  0.00    +0.000 A 
ATOM      3  C   UNL     1       5.518   5.428  18.817  0.00  0.00    +0.000 A 
ATOM      4  C   UNL     1       5.298   6.024  17.570  0.00  0.00    +0.000 A 
ATOM      5  C   UNL     1       4.026   6.501  17.250  0.00  0.00    +0.000 A 
ATOM      6  C   UNL     1       2.969   6.347  18.156  0.00  0.00    +0.000 A 
ENDROOT
BRANCH   1   7
ATOM      7  C   UNL     1       2.084   5.563  20.377  0.00  0.00    +0.000 C 
ATOM      8  O   UNL     1       1.479   6.555  20.776  0.00  0.00    +0.000 OA
BRANCH   7   9
ATOM      9  C   UNL     1       1.760   4.156  20.844  0.00  0.00    +0.000 C 
BRANCH   9  10
ATOM     10  C   UNL     1       0.806   3.455  19.881  0.00  0.00    +0.000 C 
BRANCH  10  11
ATOM     11  C   UNL     1       1.433   2.190  19.298  0.00  0.00    +0.000 C 
BRANCH  11  12
ATOM     12  C   UNL     1       1.994   2.461  17.905  0.00  0.00    +0.000 C 
BRANCH  12  14
ATOM     13  C   UNL     1       4.022   1.673  19.159  0.00  0.00    +0.000 C 
ATOM     14  C   UNL     1       3.509   2.279  17.862  0.00  0.00    +0.000 C 
ENDBRANCH  12  14
ENDBRANCH  11  12
ENDBRANCH  10  11
ENDBRANCH   9  10
ENDBRANCH   7   9
ENDBRANCH   1   7
BRANCH   4  15
ATOM     15  O   UNL     1       6.398   6.137  16.757  0.00  0.00    +0.000 OA
BRANCH  15  16
ATOM     16  S   UNL     1       7.132   4.825  16.123  0.00  0.00    +0.000 S 
ATOM     17  O   UNL     1       7.579   5.138  14.782  0.00  0.00    +0.000 OA
ATOM     18  O   UNL     1       8.003   4.242  17.117  0.00  0.00    +0.000 OA
BRANCH  16  19
ATOM     19  N   UNL     1       5.868   3.738  15.948  0.00  0.00    +0.000 NA
ATOM     20  H   UNL     1       5.460   3.758  15.018  0.00  0.00    +0.000 HD
ATOM     21  H   UNL     1       5.214   3.794  16.726  0.00  0.00    +0.000 HD
ENDBRANCH  16  19
ENDBRANCH  15  16
ENDBRANCH   4  15
TORSDOF 9
ENDMDL
MODEL 4
REMARK VINA RESULT:      -6.3      0.477      1.245
REMARK  Name = 
REMARK  10 active torsions:
REMARK  status: ('A' for Active; 'I' for Inactive)
REMARK    1  A    between atoms: C_1  and  C_2
REMARK    2  A    between atoms: C_2  and  C_3
REMARK    3  A    between atoms: C_3  and  C_4
REMARK    4  A    between atoms: C_4  and  C_5
REMARK    5  A    between atoms: C_5  and  C_6
REMARK    6  A    between atoms: C_6  and  C_7
REMARK    7  A    between atoms: C_7  and  C_9
REMARK    8  A    between atoms: C_12  and  O_13
REMARK    9  A    between atoms: O_13  and  S_14
REMARK   10  A    between atoms: S_14  and  N_15
REMARK                            x       y       z     vdW  Elec       q    Type
REMARK                         _______ _______ _______ _____ _____    ______ ____
ROOT
ATOM      1  C   UNL     1       3.114   6.052  19.291  0.00  0.00    +0.000 A 
ATOM      2  C   UNL     1       2.982   6.714  18.068  0.00  0.00    +0.000 A 
ATOM      3  C   UNL     1       4.049   6.739  17.167  0.00  0.00    +0.000 A 
ATOM      4  C   UNL     1       5.262   6.120  17.489  0.00  0.00    +0.000 A 
ATOM      5  C   UNL     1       5.387   5.443  18.703  0.00  0.00    +0.000 A 
ATOM      6  C   UNL     1       4.319   5.417  19.608  0.00  0.00    +0.000 A 
ENDROOT
BRANCH   1   7
ATOM      7  C   UNL     1       1.961   6.036  20.231  0.00  0.00    +0.000 C 
ATOM      8  O   UNL     1       1.743   7.024  20.929  0.00  0.00    +0.000 OA
BRANCH   7   9
ATOM      9  C   UNL     1       1.104   4.784  20.284  0.00  0.00    +0.000 C 
BRANCH   9  10
ATOM     10  C   UNL     1       1.887   3.597  20.837  0.00  0.00    +0.000 C 
BRANCH  10  11
ATOM     11  C   UNL     1       1.910   2.435  19.845  0.00  0.00    +0.000 C 
BRANCH  11  12
ATOM     12  C   UNL     1       3.341   2.128  19.412  0.00  0.00    +0.000 C 
BRANCH  12  14
ATOM     13  C   UNL     1       2.498   3.100  17.256  0.00  0.00    +0.000 C 
ATOM     14  C   UNL     1       3.482   2.132  17.892  0.00  0.00    +0.000 C 
ENDBRANCH  12  14
ENDBRANCH  11  12
ENDBRANCH  10  11
ENDBRANCH   9  10
ENDBRANCH   7   9
ENDBRANCH   1   7
BRANCH   4  15
ATOM     15  O   UNL     1       6.245   6.193  16.533  0.00  0.00    +0.000 OA
BRANCH  15  16
ATOM     16  S   UNL     1       6.903   4.850  15.880  0.00  0.00    +0.000 S 
ATOM     17  O   UNL     1       8.007   4.417  16.709  0.00  0.00    +0.000 OA
ATOM     18  O   UNL     1       5.846   3.958  15.464  0.00  0.00    +0.000 OA
BRANCH  16  19
ATOM     19  N   UNL     1       7.585   5.422  14.460  0.00  0.00    +0.000 NA
ATOM     20  H   UNL     1       8.258   6.166  14.620  0.00  0.00    +0.000 HD
ATOM     21  H   UNL     1       6.879   5.603  13.749  0.00  0.00    +0.000 HD
ENDBRANCH  16  19
ENDBRANCH  15  16
ENDBRANCH   4  15
TORSDOF 9
ENDMDL
MODEL 5
REMARK VINA RESULT:      -6.2      4.573      6.548
REMARK  Name = 
REMARK  10 active torsions:
REMARK  status: ('A' for Active; 'I' for Inactive)
REMARK    1  A    between atoms: C_1  and  C_2
REMARK    2  A    between atoms: C_2  and  C_3
REMARK    3  A    between atoms: C_3  and  C_4
REMARK    4  A    between atoms: C_4  and  C_5
REMARK    5  A    between atoms: C_5  and  C_6
REMARK    6  A    between atoms: C_6  and  C_7
REMARK    7  A    between atoms: C_7  and  C_9
REMARK    8  A    between atoms: C_12  and  O_13
REMARK    9  A    between atoms: O_13  and  S_14
REMARK   10  A    between atoms: S_14  and  N_15
REMARK                            x       y       z     vdW  Elec       q    Type
REMARK                         _______ _______ _______ _____ _____    ______ ____
ROOT
ATOM      1  C   UNL     1       5.092   5.010  17.046  0.00  0.00    +0.000 A 
ATOM      2  C   UNL     1       4.307   3.875  16.830  0.00  0.00    +0.000 A 
ATOM      3  C   UNL     1       3.666   3.252  17.904  0.00  0.00    +0.000 A 
ATOM      4  C   UNL     1       3.820   3.748  19.204  0.00  0.00    +0.000 A 
ATOM      5  C   UNL     1       4.588   4.894  19.416  0.00  0.00    +0.000 A 
ATOM      6  C   UNL     1       5.232   5.518  18.341  0.00  0.00    +0.000 A 
ENDROOT
BRANCH   1   7
ATOM      7  C   UNL     1       5.760   5.657  15.885  0.00  0.00    +0.000 C 
ATOM      8  O   UNL     1       5.238   6.640  15.366  0.00  0.00    +0.000 OA
BRANCH   7   9
ATOM      9  C   UNL     1       7.065   5.060  15.393  0.00  0.00    +0.000 C 
BRANCH   9  10
ATOM     10  C   UNL     1       7.062   4.888  13.876  0.00  0.00    +0.000 C 
BRANCH  10  11
ATOM     11  C   UNL     1       6.127   3.759  13.446  0.00  0.00    +0.000 C 
BRANCH  11  12
ATOM     12  C   UNL     1       6.360   3.399  11.981  0.00  0.00    +0.000 C 
BRANCH  12  14
ATOM     13  C   UNL     1       6.343   1.037  11.129  0.00  0.00    +0.000 C 
ATOM     14  C   UNL     1       5.489   2.223  11.546  0.00  0.00    +0.000 C 
ENDBRANCH  12  14
ENDBRANCH  11  12
ENDBRANCH  10  11
ENDBRANCH   9  10
ENDBRANCH   7   9
ENDBRANCH   1   7
BRANCH   4  15
ATOM     15  O   UNL     1       3.142   3.072  20.188  0.00  0.00    +0.000 OA
BRANCH  15  16
ATOM     16  S   UNL     1       1.599   3.439  20.570  0.00  0.00    +0.000 S 
ATOM     17  O   UNL     1       1.511   4.852  20.867  0.00  0.00    +0.000 OA
ATOM     18  O   UNL     1       0.712   2.783  19.637  0.00  0.00    +0.000 OA
BRANCH  16  19
ATOM     19  N   UNL     1       1.376   2.643  22.028  0.00  0.00    +0.000 NA
ATOM     20  H   UNL     1       0.710   3.115  22.634  0.00  0.00    +0.000 HD
ATOM     21  H   UNL     1       2.262   2.383  22.454  0.00  0.00    +0.000 HD
ENDBRANCH  16  19
ENDBRANCH  15  16
ENDBRANCH   4  15
TORSDOF 9
ENDMDL
MODEL 6
REMARK VINA RESULT:      -6.2      4.469      6.595
REMARK  Name = 
REMARK  10 active torsions:
REMARK  status: ('A' for Active; 'I' for Inactive)
REMARK    1  A    between atoms: C_1  and  C_2
REMARK    2  A    between atoms: C_2  and  C_3
REMARK    3  A    between atoms: C_3  and  C_4
REMARK    4  A    between atoms: C_4  and  C_5
REMARK    5  A    between atoms: C_5  and  C_6
REMARK    6  A    between atoms: C_6  and  C_7
REMARK    7  A    between atoms: C_7  and  C_9
REMARK    8  A    between atoms: C_12  and  O_13
REMARK    9  A    between atoms: O_13  and  S_14
REMARK   10  A    between atoms: S_14  and  N_15
REMARK                            x       y       z     vdW  Elec       q    Type
REMARK                         _______ _______ _______ _____ _____    ______ ____
ROOT
ATOM      1  C   UNL     1       5.897   5.168  15.877  0.00  0.00    +0.000 A 
ATOM      2  C   UNL     1       5.962   4.282  16.955  0.00  0.00    +0.000 A 
ATOM      3  C   UNL     1       5.274   4.567  18.137  0.00  0.00    +0.000 A 
ATOM      4  C   UNL     1       4.533   5.747  18.258  0.00  0.00    +0.000 A 
ATOM      5  C   UNL     1       4.452   6.622  17.174  0.00  0.00    +0.000 A 
ATOM      6  C   UNL     1       5.141   6.339  15.989  0.00  0.00    +0.000 A 
ENDROOT
BRANCH   1   7
ATOM      7  C   UNL     1       6.634   4.840  14.627  0.00  0.00    +0.000 C 
ATOM      8  O   UNL     1       7.609   5.517  14.312  0.00  0.00    +0.000 OA
BRANCH   7   9
ATOM      9  C   UNL     1       6.136   3.673  13.794  0.00  0.00    +0.000 C 
BRANCH   9  10
ATOM     10  C   UNL     1       6.560   3.811  12.335  0.00  0.00    +0.000 C 
BRANCH  10  11
ATOM     11  C   UNL     1       5.631   3.027  11.409  0.00  0.00    +0.000 C 
BRANCH  11  12
ATOM     12  C   UNL     1       4.174   3.398  11.671  0.00  0.00    +0.000 C 
BRANCH  12  14
ATOM     13  C   UNL     1       3.021   4.219   9.597  0.00  0.00    +0.000 C 
ATOM     14  C   UNL     1       3.277   3.019  10.495  0.00  0.00    +0.000 C 
ENDBRANCH  12  14
ENDBRANCH  11  12
ENDBRANCH  10  11
ENDBRANCH   9  10
ENDBRANCH   7   9
ENDBRANCH   1   7
BRANCH   4  15
ATOM     15  O   UNL     1       3.886   5.929  19.455  0.00  0.00    +0.000 OA
BRANCH  15  16
ATOM     16  S   UNL     1       2.407   5.299  19.734  0.00  0.00    +0.000 S 
ATOM     17  O   UNL     1       1.701   6.151  20.666  0.00  0.00    +0.000 OA
ATOM     18  O   UNL     1       1.831   4.872  18.480  0.00  0.00    +0.000 OA
BRANCH  16  19
ATOM     19  N   UNL     1       2.754   3.886  20.566  0.00  0.00    +0.000 NA
ATOM     20  H   UNL     1       3.534   3.376  20.163  0.00  0.00    +0.000 HD
ATOM     21  H   UNL     1       1.913   3.344  20.755  0.00  0.00    +0.000 HD
ENDBRANCH  16  19
ENDBRANCH  15  16
ENDBRANCH   4  15
TORSDOF 9
ENDMDL
MODEL 7
REMARK VINA RESULT:      -6.2      4.538      6.634
REMARK  Name = 
REMARK  10 active torsions:
REMARK  status: ('A' for Active; 'I' for Inactive)
REMARK    1  A    between atoms: C_1  and  C_2
REMARK    2  A    between atoms: C_2  and  C_3
REMARK    3  A    between atoms: C_3  and  C_4
REMARK    4  A    between atoms: C_4  and  C_5
REMARK    5  A    between atoms: C_5  and  C_6
REMARK    6  A    between atoms: C_6  and  C_7
REMARK    7  A    between atoms: C_7  and  C_9
REMARK    8  A    between atoms: C_12  and  O_13
REMARK    9  A    between atoms: O_13  and  S_14
REMARK   10  A    between atoms: S_14  and  N_15
REMARK                            x       y       z     vdW  Elec       q    Type
REMARK                         _______ _______ _______ _____ _____    ______ ____
ROOT
ATOM      1  C   UNL     1       5.810   4.986  15.859  0.00  0.00    +0.000 A 
ATOM      2  C   UNL     1       5.308   3.843  16.485  0.00  0.00    +0.000 A 
ATOM      3  C   UNL     1       4.741   3.934  17.759  0.00  0.00    +0.000 A 
ATOM      4  C   UNL     1       4.690   5.165  18.424  0.00  0.00    +0.000 A 
ATOM      5  C   UNL     1       5.173   6.310  17.790  0.00  0.00    +0.000 A 
ATOM      6  C   UNL     1       5.743   6.220  16.513  0.00  0.00    +0.000 A 
ENDROOT
BRANCH   1   7
ATOM      7  C   UNL     1       6.403   4.863  14.500  0.00  0.00    +0.000 C 
ATOM      8  O   UNL     1       7.577   5.181  14.329  0.00  0.00    +0.000 OA
BRANCH   7   9
ATOM      9  C   UNL     1       5.517   4.348  13.381  0.00  0.00    +0.000 C 
BRANCH   9  10
ATOM     10  C   UNL     1       6.260   3.351  12.497  0.00  0.00    +0.000 C 
BRANCH  10  11
ATOM     11  C   UNL     1       5.304   2.623  11.553  0.00  0.00    +0.000 C 
BRANCH  11  12
ATOM     12  C   UNL     1       3.979   3.373  11.449  0.00  0.00    +0.000 C 
BRANCH  12  14
ATOM     13  C   UNL     1       2.781   4.440   9.517  0.00  0.00    +0.000 C 
ATOM     14  C   UNL     1       3.303   3.137  10.100  0.00  0.00    +0.000 C 
ENDBRANCH  12  14
ENDBRANCH  11  12
ENDBRANCH  10  11
ENDBRANCH   9  10
ENDBRANCH   7   9
ENDBRANCH   1   7
BRANCH   4  15
ATOM     15  O   UNL     1       4.105   5.151  19.666  0.00  0.00    +0.000 OA
BRANCH  15  16
ATOM     16  S   UNL     1       2.504   5.397  19.861  0.00  0.00    +0.000 S 
ATOM     17  O   UNL     1       1.827   5.093  18.619  0.00  0.00    +0.000 OA
ATOM     18  O   UNL     1       2.090   4.843  21.129  0.00  0.00    +0.000 OA
BRANCH  16  19
ATOM     19  N   UNL     1       2.403   7.060  20.050  0.00  0.00    +0.000 NA
ATOM     20  H   UNL     1       2.347   7.552  19.163  0.00  0.00    +0.000 HD
ATOM     21  H   UNL     1       3.094   7.406  20.712  0.00  0.00    +0.000 HD
ENDBRANCH  16  19
ENDBRANCH  15  16
ENDBRANCH   4  15
TORSDOF 9
ENDMDL
MODEL 8
REMARK VINA RESULT:      -6.2      1.971      3.205
REMARK  Name = 
REMARK  10 active torsions:
REMARK  status: ('A' for Active; 'I' for Inactive)
REMARK    1  A    between atoms: C_1  and  C_2
REMARK    2  A    between atoms: C_2  and  C_3
REMARK    3  A    between atoms: C_3  and  C_4
REMARK    4  A    between atoms: C_4  and  C_5
REMARK    5  A    between atoms: C_5  and  C_6
REMARK    6  A    between atoms: C_6  and  C_7
REMARK    7  A    between atoms: C_7  and  C_9
REMARK    8  A    between atoms: C_12  and  O_13
REMARK    9  A    between atoms: O_13  and  S_14
REMARK   10  A    between atoms: S_14  and  N_15
REMARK                            x       y       z     vdW  Elec       q    Type
REMARK                         _______ _______ _______ _____ _____    ______ ____
ROOT
ATOM      1  C   UNL     1       4.380   3.276  19.211  0.00  0.00    +0.000 A 
ATOM      2  C   UNL     1       3.824   2.917  17.980  0.00  0.00    +0.000 A 
ATOM      3  C   UNL     1       4.213   3.583  16.816  0.00  0.00    +0.000 A 
ATOM      4  C   UNL     1       5.146   4.625  16.874  0.00  0.00    +0.000 A 
ATOM      5  C   UNL     1       5.715   4.971  18.101  0.00  0.00    +0.000 A 
ATOM      6  C   UNL     1       5.325   4.305  19.269  0.00  0.00    +0.000 A 
ENDROOT
BRANCH   1   7
ATOM      7  C   UNL     1       3.952   2.548  20.436  0.00  0.00    +0.000 C 
ATOM      8  O   UNL     1       4.782   1.896  21.064  0.00  0.00    +0.000 OA
BRANCH   7   9
ATOM      9  C   UNL     1       2.495   2.647  20.849  0.00  0.00    +0.000 C 
BRANCH   9  10
ATOM     10  C   UNL     1       2.172   4.023  21.425  0.00  0.00    +0.000 C 
BRANCH  10  11
ATOM     11  C   UNL     1       1.366   4.865  20.437  0.00  0.00    +0.000 C 
BRANCH  11  12
ATOM     12  C   UNL     1       2.170   6.083  19.991  0.00  0.00    +0.000 C 
BRANCH  12  14
ATOM     13  C   UNL     1       2.923   7.482  18.047  0.00  0.00    +0.000 C 
ATOM     14  C   UNL     1       2.172   6.231  18.472  0.00  0.00    +0.000 C 
ENDBRANCH  12  14
ENDBRANCH  11  12
ENDBRANCH  10  11
ENDBRANCH   9  10
ENDBRANCH   7   9
ENDBRANCH   1   7
BRANCH   4  15
ATOM     15  O   UNL     1       5.469   5.209  15.674  0.00  0.00    +0.000 OA
BRANCH  15  16
ATOM     16  S   UNL     1       6.808   4.779  14.847  0.00  0.00    +0.000 S 
ATOM     17  O   UNL     1       7.036   5.740  13.790  0.00  0.00    +0.000 OA
ATOM     18  O   UNL     1       7.839   4.393  15.783  0.00  0.00    +0.000 OA
BRANCH  16  19
ATOM     19  N   UNL     1       6.341   3.359  14.091  0.00  0.00    +0.000 NA
ATOM     20  H   UNL     1       5.808   3.524  13.241  0.00  0.00    +0.000 HD
ATOM     21  H   UNL     1       5.938   2.696  14.750  0.00  0.00    +0.000 HD
ENDBRANCH  16  19
ENDBRANCH  15  16
ENDBRANCH   4  15
TORSDOF 9
ENDMDL
MODEL 9
REMARK VINA RESULT:      -6.1      4.521      7.191
REMARK  Name = 
REMARK  10 active torsions:
REMARK  status: ('A' for Active; 'I' for Inactive)
REMARK    1  A    between atoms: C_1  and  C_2
REMARK    2  A    between atoms: C_2  and  C_3
REMARK    3  A    between atoms: C_3  and  C_4
REMARK    4  A    between atoms: C_4  and  C_5
REMARK    5  A    between atoms: C_5  and  C_6
REMARK    6  A    between atoms: C_6  and  C_7
REMARK    7  A    between atoms: C_7  and  C_9
REMARK    8  A    between atoms: C_12  and  O_13
REMARK    9  A    between atoms: O_13  and  S_14
REMARK   10  A    between atoms: S_14  and  N_15
REMARK                            x       y       z     vdW  Elec       q    Type
REMARK                         _______ _______ _______ _____ _____    ______ ____
ROOT
ATOM      1  C   UNL     1       5.795   4.929  17.887  0.00  0.00    +0.000 A 
ATOM      2  C   UNL     1       5.114   4.197  16.911  0.00  0.00    +0.000 A 
ATOM      3  C   UNL     1       3.760   3.897  17.079  0.00  0.00    +0.000 A 
ATOM      4  C   UNL     1       3.081   4.309  18.231  0.00  0.00    +0.000 A 
ATOM      5  C   UNL     1       3.756   5.058  19.196  0.00  0.00    +0.000 A 
ATOM      6  C   UNL     1       5.114   5.358  19.030  0.00  0.00    +0.000 A 
ENDROOT
BRANCH   1   7
ATOM      7  C   UNL     1       7.235   5.240  17.683  0.00  0.00    +0.000 C 
ATOM      8  O   UNL     1       7.878   4.586  16.865  0.00  0.00    +0.000 OA
BRANCH   7   9
ATOM      9  C   UNL     1       7.845   6.359  18.506  0.00  0.00    +0.000 C 
BRANCH   9  10
ATOM     10  C   UNL     1       7.807   7.687  17.756  0.00  0.00    +0.000 C 
BRANCH  10  11
ATOM     11  C   UNL     1       8.579   8.772  18.504  0.00  0.00    +0.000 C 
BRANCH  11  12
ATOM     12  C   UNL     1       8.432  10.118  17.799  0.00  0.00    +0.000 C 
BRANCH  12  14
ATOM     13  C   UNL     1       9.257  12.489  17.734  0.00  0.00    +0.000 C 
ATOM     14  C   UNL     1       9.583  11.061  18.140  0.00  0.00    +0.000 C 
ENDBRANCH  12  14
ENDBRANCH  11  12
ENDBRANCH  10  11
ENDBRANCH   9  10
ENDBRANCH   7   9
ENDBRANCH   1   7
BRANCH   4  15
ATOM     15  O   UNL     1       1.752   3.974  18.295  0.00  0.00    +0.000 OA
BRANCH  15  16
ATOM     16  S   UNL     1       1.247   2.619  19.053  0.00  0.00    +0.000 S 
ATOM     17  O   UNL     1       0.166   2.030  18.292  0.00  0.00    +0.000 OA
ATOM     18  O   UNL     1       2.399   1.861  19.484  0.00  0.00    +0.000 OA
BRANCH  16  19
ATOM     19  N   UNL     1       0.556   3.213  20.459  0.00  0.00    +0.000 NA
ATOM     20  H   UNL     1       0.033   2.506  20.968  0.00  0.00    +0.000 HD
ATOM     21  H   UNL     1       0.075   4.096  20.299  0.00  0.00    +0.000 HD
ENDBRANCH  16  19
ENDBRANCH  15  16
ENDBRANCH   4  15
TORSDOF 9
ENDMDL
