MODEL 1
REMARK VINA RESULT:      -8.2      0.000      0.000
REMARK  Name = 
REMARK  7 active torsions:
REMARK  status: ('A' for Active; 'I' for Inactive)
REMARK    1  A    between atoms: C_2  and  C_3
REMARK    2  A    between atoms: C_2  and  O_14
REMARK    3  A    between atoms: C_3  and  C_4
REMARK    4  A    between atoms: C_4  and  C_5
REMARK    5  A    between atoms: O_14  and  C_15
REMARK    6  A    between atoms: C_15  and  C_16
REMARK    7  A    between atoms: C_20  and  C_21
REMARK                            x       y       z     vdW  Elec       q    Type
REMARK                         _______ _______ _______ _____ _____    ______ ____
ROOT
ATOM      1  O   UNL     1       5.127   7.105  15.226  0.00  0.00    +0.000 OA
ATOM      2  C   UNL     1       4.974   6.457  16.245  0.00  0.00    +0.000 C 
ENDROOT
BRANCH   2   3
ATOM      3  C   UNL     1       4.578   7.088  17.572  0.00  0.00    +0.000 C 
BRANCH   3   4
ATOM      4  C   UNL     1       3.065   7.237  17.697  0.00  0.00    +0.000 C 
BRANCH   4   5
ATOM      5  C   UNL     1       2.492   6.460  18.837  0.00  0.00    +0.000 A 
ATOM      6  C   UNL     1       2.303   6.922  20.127  0.00  0.00    +0.000 A 
ATOM      7  N   UNL     1       1.789   5.900  20.879  0.00  0.00    +0.000 N 
ATOM      8  C   UNL     1       1.648   4.767  20.111  0.00  0.00    +0.000 A 
ATOM      9  C   UNL     1       1.204   3.487  20.462  0.00  0.00    +0.000 A 
ATOM     10  C   UNL     1       1.177   2.511  19.462  0.00  0.00    +0.000 A 
ATOM     11  C   UNL     1       1.566   2.809  18.159  0.00  0.00    +0.000 A 
ATOM     12  C   UNL     1       2.008   4.094  17.825  0.00  0.00    +0.000 A 
ATOM     13  C   UNL     1       2.060   5.094  18.818  0.00  0.00    +0.000 A 
ATOM     14  H   UNL     1       1.575   5.954  21.865  0.00  0.00    +0.000 HD
ENDBRANCH   4   5
ENDBRANCH   3   4
ENDBRANCH   2   3
BRANCH   2  15
ATOM     15  O   UNL     1       5.085   5.094  16.307  0.00  0.00    +0.000 OA
BRANCH  15  16
ATOM     16  C   UNL     1       6.392   4.494  16.158  0.00  0.00    +0.000 C 
BRANCH  16  17
ATOM     17  C   UNL     1       6.634   4.361  14.674  0.00  0.00    +0.000 A 
ATOM     18  C   UNL     1       7.726   4.997  14.066  0.00  0.00    +0.000 A 
ATOM     19  C   UNL     1       7.833   5.038  12.676  0.00  0.00    +0.000 A 
ATOM     20  C   UNL     1       6.865   4.425  11.882  0.00  0.00    +0.000 A 
ATOM     21  C   UNL     1       5.778   3.760  12.470  0.00  0.00    +0.000 A 
ATOM     22  C   UNL     1       5.678   3.724  13.868  0.00  0.00    +0.000 A 
BRANCH  21  23
ATOM     23  C   UNL     1       4.709   3.142  11.605  0.00  0.00    +0.000 C 
ATOM     24  F   UNL     1       5.067   1.923  11.115  0.00  0.00    +0.000 F 
ATOM     25  F   UNL     1       3.536   2.948  12.270  0.00  0.00    +0.000 F 
ATOM     26  F   UNL     1       4.400   3.901  10.517  0.00  0.00    +0.000 F 
ENDBRANCH  21  23
ENDBRANCH  16  17
ENDBRANCH  15  16
ENDBRANCH   2  15
TORSDOF 7
ENDMDL
MODEL 2
REMARK VINA RESULT:      -8.2      4.816      6.406
REMARK  Name = 
REMARK  7 active torsions:
REMARK  status: ('A' for Active; 'I' for Inactive)
REMARK    1  A    between atoms: C_2  and  C_3
REMARK    2  A    between atoms: C_2  and  O_14
REMARK    3  A    between atoms: C_3  and  C_4
REMARK    4  A    between atoms: C_4  and  C_5
REMARK    5  A    between atoms: O_14  and  C_15
REMARK    6  A    between atoms: C_15  and  C_16
REMARK    7  A    between atoms: C_20  and  C_21
REMARK                            x       y       z     vdW  Elec       q    Type
REMARK                         _______ _______ _______ _____ _____    ______ ____
ROOT
ATOM      1  O   UNL     1       6.228   7.383  17.064  0.00  0.00    +0.000 OA
ATOM      2  C   UNL     1       5.363   6.706  17.589  0.00  0.00    +0.000 C 
ENDROOT
BRANCH   2   3
ATOM      3  C   UNL     1       3.883   6.868  17.273  0.00  0.00    +0.000 C 
BRANCH   3   4
ATOM      4  C   UNL     1       3.040   6.938  18.543  0.00  0.00    +0.000 C 
BRANCH   4   5
ATOM      5  C   UNL     1       2.196   8.168  18.618  0.00  0.00    +0.000 A 
ATOM      6  C   UNL     1       2.009   9.095  17.608  0.00  0.00    +0.000 A 
ATOM      7  N   UNL     1       1.197  10.090  18.081  0.00  0.00    +0.000 N 
ATOM      8  C   UNL     1       0.855   9.844  19.390  0.00  0.00    +0.000 A 
ATOM      9  C   UNL     1       0.083  10.600  20.280  0.00  0.00    +0.000 A 
ATOM     10  C   UNL     1      -0.090  10.103  21.575  0.00  0.00    +0.000 A 
ATOM     11  C   UNL     1       0.475   8.890  21.960  0.00  0.00    +0.000 A 
ATOM     12  C   UNL     1       1.244   8.147  21.057  0.00  0.00    +0.000 A 
ATOM     13  C   UNL     1       1.448   8.632  19.749  0.00  0.00    +0.000 A 
ATOM     14  H   UNL     1       0.915  10.908  17.560  0.00  0.00    +0.000 HD
ENDBRANCH   4   5
ENDBRANCH   3   4
ENDBRANCH   2   3
BRANCH   2  15
ATOM     15  O   UNL     1       5.618   5.695  18.476  0.00  0.00    +0.000 OA
BRANCH  15  16
ATOM     16  C   UNL     1       5.784   4.350  17.970  0.00  0.00    +0.000 C 
BRANCH  16  17
ATOM     17  C   UNL     1       4.501   3.617  18.278  0.00  0.00    +0.000 A 
ATOM     18  C   UNL     1       3.740   3.043  17.250  0.00  0.00    +0.000 A 
ATOM     19  C   UNL     1       2.463   2.544  17.512  0.00  0.00    +0.000 A 
ATOM     20  C   UNL     1       1.946   2.593  18.805  0.00  0.00    +0.000 A 
ATOM     21  C   UNL     1       2.701   3.140  19.854  0.00  0.00    +0.000 A 
ATOM     22  C   UNL     1       3.983   3.638  19.581  0.00  0.00    +0.000 A 
BRANCH  21  23
ATOM     23  C   UNL     1       2.117   3.234  21.241  0.00  0.00    +0.000 C 
ATOM     24  F   UNL     1       2.716   2.389  22.125  0.00  0.00    +0.000 F 
ATOM     25  F   UNL     1       2.230   4.480  21.780  0.00  0.00    +0.000 F 
ATOM     26  F   UNL     1       0.789   2.929  21.280  0.00  0.00    +0.000 F 
ENDBRANCH  21  23
ENDBRANCH  16  17
ENDBRANCH  15  16
ENDBRANCH   2  15
TORSDOF 7
ENDMDL
MODEL 3
REMARK VINA RESULT:      -8.2      4.580      6.450
REMARK  Name = 
REMARK  7 active torsions:
REMARK  status: ('A' for Active; 'I' for Inactive)
REMARK    1  A    between atoms: C_2  and  C_3
REMARK    2  A    between atoms: C_2  and  O_14
REMARK    3  A    between atoms: C_3  and  C_4
REMARK    4  A    between atoms: C_4  and  C_5
REMARK    5  A    between atoms: O_14  and  C_15
REMARK    6  A    between atoms: C_15  and  C_16
REMARK    7  A    between atoms: C_20  and  C_21
REMARK                            x       y       z     vdW  Elec       q    Type
REMARK                         _______ _______ _______ _____ _____    ______ ____
ROOT
ATOM      1  O   UNL     1       5.257   6.469  15.616  0.00  0.00    +0.000 OA
ATOM      2  C   UNL     1       4.956   6.488  16.796  0.00  0.00    +0.000 C 
ENDROOT
BRANCH   2   3
ATOM      3  C   UNL     1       4.128   7.603  17.417  0.00  0.00    +0.000 C 
BRANCH   3   4
ATOM      4  C   UNL     1       2.691   7.160  17.676  0.00  0.00    +0.000 C 
BRANCH   4   5
ATOM      5  C   UNL     1       2.159   7.639  18.988  0.00  0.00    +0.000 A 
ATOM      6  C   UNL     1       2.227   6.963  20.192  0.00  0.00    +0.000 A 
ATOM      7  N   UNL     1       1.596   7.718  21.145  0.00  0.00    +0.000 N 
ATOM      8  C   UNL     1       1.102   8.874  20.587  0.00  0.00    +0.000 A 
ATOM      9  C   UNL     1       0.362   9.912  21.166  0.00  0.00    +0.000 A 
ATOM     10  C   UNL     1      -0.023  10.973  20.342  0.00  0.00    +0.000 A 
ATOM     11  C   UNL     1       0.331  11.001  18.996  0.00  0.00    +0.000 A 
ATOM     12  C   UNL     1       1.071   9.955  18.433  0.00  0.00    +0.000 A 
ATOM     13  C   UNL     1       1.460   8.864  19.238  0.00  0.00    +0.000 A 
ATOM     14  H   UNL     1       1.478   7.452  22.113  0.00  0.00    +0.000 HD
ENDBRANCH   4   5
ENDBRANCH   3   4
ENDBRANCH   2   3
BRANCH   2  15
ATOM     15  O   UNL     1       5.277   5.495  17.682  0.00  0.00    +0.000 OA
BRANCH  15  16
ATOM     16  C   UNL     1       5.039   4.120  17.304  0.00  0.00    +0.000 C 
BRANCH  16  17
ATOM     17  C   UNL     1       3.711   3.734  17.908  0.00  0.00    +0.000 A 
ATOM     18  C   UNL     1       2.537   3.770  17.142  0.00  0.00    +0.000 A 
ATOM     19  C   UNL     1       1.292   3.608  17.751  0.00  0.00    +0.000 A 
ATOM     20  C   UNL     1       1.210   3.387  19.125  0.00  0.00    +0.000 A 
ATOM     21  C   UNL     1       2.373   3.322  19.907  0.00  0.00    +0.000 A 
ATOM     22  C   UNL     1       3.620   3.485  19.286  0.00  0.00    +0.000 A 
BRANCH  21  23
ATOM     23  C   UNL     1       2.275   3.131  21.400  0.00  0.00    +0.000 C 
ATOM     24  F   UNL     1       3.186   2.239  21.878  0.00  0.00    +0.000 F 
ATOM     25  F   UNL     1       2.479   4.284  22.096  0.00  0.00    +0.000 F 
ATOM     26  F   UNL     1       1.058   2.665  21.796  0.00  0.00    +0.000 F 
ENDBRANCH  21  23
ENDBRANCH  16  17
ENDBRANCH  15  16
ENDBRANCH   2  15
TORSDOF 7
ENDMDL
MODEL 4
REMARK VINA RESULT:      -8.1      6.171      8.867
REMARK  Name = 
REMARK  7 active torsions:
REMARK  status: ('A' for Active; 'I' for Inactive)
REMARK    1  A    between atoms: C_2  and  C_3
REMARK    2  A    between atoms: C_2  and  O_14
REMARK    3  A    between atoms: C_3  and  C_4
REMARK    4  A    between atoms: C_4  and  C_5
REMARK    5  A    between atoms: O_14  and  C_15
REMARK    6  A    between atoms: C_15  and  C_16
REMARK    7  A    between atoms: C_20  and  C_21
REMARK                            x       y       z     vdW  Elec       q    Type
REMARK                         _______ _______ _______ _____ _____    ______ ____
ROOT
ATOM      1  O   UNL     1       7.820   6.891  16.436  0.00  0.00    +0.000 OA
ATOM      2  C   UNL     1       7.387   7.320  17.490  0.00  0.00    +0.000 C 
ENDROOT
BRANCH   2   3
ATOM      3  C   UNL     1       8.244   8.097  18.478  0.00  0.00    +0.000 C 
BRANCH   3   4
ATOM      4  C   UNL     1       8.441   9.544  18.036  0.00  0.00    +0.000 C 
BRANCH   4   5
ATOM      5  C   UNL     1       9.222  10.355  19.018  0.00  0.00    +0.000 A 
ATOM      6  C   UNL     1       9.050  10.366  20.389  0.00  0.00    +0.000 A 
ATOM      7  N   UNL     1       9.934  11.263  20.928  0.00  0.00    +0.000 N 
ATOM      8  C   UNL     1      10.678  11.853  19.934  0.00  0.00    +0.000 A 
ATOM      9  C   UNL     1      11.663  12.845  20.011  0.00  0.00    +0.000 A 
ATOM     10  C   UNL     1      12.251  13.271  18.816  0.00  0.00    +0.000 A 
ATOM     11  C   UNL     1      11.878  12.716  17.595  0.00  0.00    +0.000 A 
ATOM     12  C   UNL     1      10.892  11.725  17.536  0.00  0.00    +0.000 A 
ATOM     13  C   UNL     1      10.270  11.287  18.724  0.00  0.00    +0.000 A 
ATOM     14  H   UNL     1      10.008  11.487  21.910  0.00  0.00    +0.000 HD
ENDBRANCH   4   5
ENDBRANCH   3   4
ENDBRANCH   2   3
BRANCH   2  15
ATOM     15  O   UNL     1       6.081   7.202  17.884  0.00  0.00    +0.000 OA
BRANCH  15  16
ATOM     16  C   UNL     1       5.106   6.723  16.929  0.00  0.00    +0.000 C 
BRANCH  16  17
ATOM     17  C   UNL     1       4.375   5.586  17.600  0.00  0.00    +0.000 A 
ATOM     18  C   UNL     1       4.295   4.326  16.990  0.00  0.00    +0.000 A 
ATOM     19  C   UNL     1       3.455   3.342  17.512  0.00  0.00    +0.000 A 
ATOM     20  C   UNL     1       2.708   3.598  18.660  0.00  0.00    +0.000 A 
ATOM     21  C   UNL     1       2.792   4.843  19.302  0.00  0.00    +0.000 A 
ATOM     22  C   UNL     1       3.639   5.827  18.770  0.00  0.00    +0.000 A 
BRANCH  21  23
ATOM     23  C   UNL     1       1.944   5.131  20.515  0.00  0.00    +0.000 C 
ATOM     24  F   UNL     1       1.781   6.465  20.740  0.00  0.00    +0.000 F 
ATOM     25  F   UNL     1       0.688   4.613  20.419  0.00  0.00    +0.000 F 
ATOM     26  F   UNL     1       2.471   4.624  21.664  0.00  0.00    +0.000 F 
ENDBRANCH  21  23
ENDBRANCH  16  17
ENDBRANCH  15  16
ENDBRANCH   2  15
TORSDOF 7
ENDMDL
MODEL 5
REMARK VINA RESULT:      -8.1      4.121      5.887
REMARK  Name = 
REMARK  7 active torsions:
REMARK  status: ('A' for Active; 'I' for Inactive)
REMARK    1  A    between atoms: C_2  and  C_3
REMARK    2  A    between atoms: C_2  and  O_14
REMARK    3  A    between atoms: C_3  and  C_4
REMARK    4  A    between atoms: C_4  and  C_5
REMARK    5  A    between atoms: O_14  and  C_15
REMARK    6  A    between atoms: C_15  and  C_16
REMARK    7  A    between atoms: C_20  and  C_21
REMARK                            x       y       z     vdW  Elec       q    Type
REMARK                         _______ _______ _______ _____ _____    ______ ____
ROOT
ATOM      1  O   UNL     1       0.735   2.407  19.103  0.00  0.00    +0.000 OA
ATOM      2  C   UNL     1       1.497   3.048  19.804  0.00  0.00    +0.000 C 
ENDROOT
BRANCH   2   3
ATOM      3  C   UNL     1       1.085   4.333  20.509  0.00  0.00    +0.000 C 
BRANCH   3   4
ATOM      4  C   UNL     1       2.263   5.288  20.674  0.00  0.00    +0.000 C 
BRANCH   4   5
ATOM      5  C   UNL     1       2.153   6.508  19.819  0.00  0.00    +0.000 A 
ATOM      6  C   UNL     1       2.608   6.638  18.520  0.00  0.00    +0.000 A 
ATOM      7  N   UNL     1       2.350   7.915  18.099  0.00  0.00    +0.000 N 
ATOM      8  C   UNL     1       1.744   8.634  19.103  0.00  0.00    +0.000 A 
ATOM      9  C   UNL     1       1.338   9.973  19.137  0.00  0.00    +0.000 A 
ATOM     10  C   UNL     1       0.752  10.445  20.315  0.00  0.00    +0.000 A 
ATOM     11  C   UNL     1       0.566   9.605  21.410  0.00  0.00    +0.000 A 
ATOM     12  C   UNL     1       0.977   8.269  21.359  0.00  0.00    +0.000 A 
ATOM     13  C   UNL     1       1.586   7.770  20.189  0.00  0.00    +0.000 A 
ATOM     14  H   UNL     1       2.598   8.291  17.195  0.00  0.00    +0.000 HD
ENDBRANCH   4   5
ENDBRANCH   3   4
ENDBRANCH   2   3
BRANCH   2  15
ATOM     15  O   UNL     1       2.782   2.669  20.081  0.00  0.00    +0.000 OA
BRANCH  15  16
ATOM     16  C   UNL     1       3.573   2.068  19.030  0.00  0.00    +0.000 C 
BRANCH  16  17
ATOM     17  C   UNL     1       4.207   3.206  18.268  0.00  0.00    +0.000 A 
ATOM     18  C   UNL     1       3.788   3.519  16.967  0.00  0.00    +0.000 A 
ATOM     19  C   UNL     1       4.505   4.433  16.196  0.00  0.00    +0.000 A 
ATOM     20  C   UNL     1       5.632   5.060  16.725  0.00  0.00    +0.000 A 
ATOM     21  C   UNL     1       6.054   4.782  18.033  0.00  0.00    +0.000 A 
ATOM     22  C   UNL     1       5.327   3.861  18.801  0.00  0.00    +0.000 A 
BRANCH  21  23
ATOM     23  C   UNL     1       7.302   5.427  18.582  0.00  0.00    +0.000 C 
ATOM     24  F   UNL     1       7.619   6.588  17.945  0.00  0.00    +0.000 F 
ATOM     25  F   UNL     1       7.199   5.741  19.903  0.00  0.00    +0.000 F 
ATOM     26  F   UNL     1       8.403   4.632  18.472  0.00  0.00    +0.000 F 
ENDBRANCH  21  23
ENDBRANCH  16  17
ENDBRANCH  15  16
ENDBRANCH   2  15
TORSDOF 7
ENDMDL
MODEL 6
REMARK VINA RESULT:      -8.1      5.341      7.949
REMARK  Name = 
REMARK  7 active torsions:
REMARK  status: ('A' for Active; 'I' for Inactive)
REMARK    1  A    between atoms: C_2  and  C_3
REMARK    2  A    between atoms: C_2  and  O_14
REMARK    3  A    between atoms: C_3  and  C_4
REMARK    4  A    between atoms: C_4  and  C_5
REMARK    5  A    between atoms: O_14  and  C_15
REMARK    6  A    between atoms: C_15  and  C_16
REMARK    7  A    between atoms: C_20  and  C_21
REMARK                            x       y       z     vdW  Elec       q    Type
REMARK                         _______ _______ _______ _____ _____    ______ ____
ROOT
ATOM      1  O   UNL     1       1.856   2.768  17.512  0.00  0.00    +0.000 OA
ATOM      2  C   UNL     1       2.617   3.231  18.342  0.00  0.00    +0.000 C 
ENDROOT
BRANCH   2   3
ATOM      3  C   UNL     1       4.130   3.178  18.193  0.00  0.00    +0.000 C 
BRANCH   3   4
ATOM      4  C   UNL     1       4.567   3.495  16.766  0.00  0.00    +0.000 C 
BRANCH   4   5
ATOM      5  C   UNL     1       5.202   4.841  16.633  0.00  0.00    +0.000 A 
ATOM      6  C   UNL     1       4.963   5.762  15.631  0.00  0.00    +0.000 A 
ATOM      7  N   UNL     1       5.764   6.852  15.846  0.00  0.00    +0.000 N 
ATOM      8  C   UNL     1       6.538   6.659  16.966  0.00  0.00    +0.000 A 
ATOM      9  C   UNL     1       7.518   7.479  17.538  0.00  0.00    +0.000 A 
ATOM     10  C   UNL     1       8.163   7.014  18.688  0.00  0.00    +0.000 A 
ATOM     11  C   UNL     1       7.830   5.785  19.251  0.00  0.00    +0.000 A 
ATOM     12  C   UNL     1       6.848   4.978  18.666  0.00  0.00    +0.000 A 
ATOM     13  C   UNL     1       6.192   5.415  17.496  0.00  0.00    +0.000 A 
ATOM     14  H   UNL     1       5.809   7.667  15.251  0.00  0.00    +0.000 HD
ENDBRANCH   4   5
ENDBRANCH   3   4
ENDBRANCH   2   3
BRANCH   2  15
ATOM     15  O   UNL     1       2.208   3.892  19.469  0.00  0.00    +0.000 OA
BRANCH  15  16
ATOM     16  C   UNL     1       3.071   4.906  20.033  0.00  0.00    +0.000 C 
BRANCH  16  17
ATOM     17  C   UNL     1       2.469   6.237  19.656  0.00  0.00    +0.000 A 
ATOM     18  C   UNL     1       2.766   6.835  18.423  0.00  0.00    +0.000 A 
ATOM     19  C   UNL     1       2.372   8.148  18.163  0.00  0.00    +0.000 A 
ATOM     20  C   UNL     1       1.658   8.866  19.121  0.00  0.00    +0.000 A 
ATOM     21  C   UNL     1       1.327   8.279  20.352  0.00  0.00    +0.000 A 
ATOM     22  C   UNL     1       1.728   6.959  20.605  0.00  0.00    +0.000 A 
BRANCH  21  23
ATOM     23  C   UNL     1       0.598   9.077  21.403  0.00  0.00    +0.000 C 
ATOM     24  F   UNL     1       1.334   9.255  22.535  0.00  0.00    +0.000 F 
ATOM     25  F   UNL     1       0.257  10.325  20.978  0.00  0.00    +0.000 F 
ATOM     26  F   UNL     1      -0.563   8.489  21.805  0.00  0.00    +0.000 F 
ENDBRANCH  21  23
ENDBRANCH  16  17
ENDBRANCH  15  16
ENDBRANCH   2  15
TORSDOF 7
ENDMDL
MODEL 7
REMARK VINA RESULT:      -8.0      6.256      8.946
REMARK  Name = 
REMARK  7 active torsions:
REMARK  status: ('A' for Active; 'I' for Inactive)
REMARK    1  A    between atoms: C_2  and  C_3
REMARK    2  A    between atoms: C_2  and  O_14
REMARK    3  A    between atoms: C_3  and  C_4
REMARK    4  A    between atoms: C_4  and  C_5
REMARK    5  A    between atoms: O_14  and  C_15
REMARK    6  A    between atoms: C_15  and  C_16
REMARK    7  A    between atoms: C_20  and  C_21
REMARK                            x       y       z     vdW  Elec       q    Type
REMARK                         _______ _______ _______ _____ _____    ______ ____
ROOT
ATOM      1  O   UNL     1       8.075   6.758  18.685  0.00  0.00    +0.000 OA
ATOM      2  C   UNL     1       7.557   7.372  17.769  0.00  0.00    +0.000 C 
ENDROOT
BRANCH   2   3
ATOM      3  C   UNL     1       7.912   8.815  17.441  0.00  0.00    +0.000 C 
BRANCH   3   4
ATOM      4  C   UNL     1       8.733   9.461  18.553  0.00  0.00    +0.000 C 
BRANCH   4   5
ATOM      5  C   UNL     1       9.046  10.898  18.291  0.00  0.00    +0.000 A 
ATOM      6  C   UNL     1       8.290  11.774  17.534  0.00  0.00    +0.000 A 
ATOM      7  N   UNL     1       8.930  12.984  17.508  0.00  0.00    +0.000 N 
ATOM      8  C   UNL     1      10.102  12.918  18.225  0.00  0.00    +0.000 A 
ATOM      9  C   UNL     1      11.086  13.891  18.437  0.00  0.00    +0.000 A 
ATOM     10  C   UNL     1      12.196  13.534  19.210  0.00  0.00    +0.000 A 
ATOM     11  C   UNL     1      12.307  12.260  19.759  0.00  0.00    +0.000 A 
ATOM     12  C   UNL     1      11.314  11.300  19.537  0.00  0.00    +0.000 A 
ATOM     13  C   UNL     1      10.191  11.627  18.748  0.00  0.00    +0.000 A 
ATOM     14  H   UNL     1       8.609  13.801  17.007  0.00  0.00    +0.000 HD
ENDBRANCH   4   5
ENDBRANCH   3   4
ENDBRANCH   2   3
BRANCH   2  15
ATOM     15  O   UNL     1       6.647   6.830  16.904  0.00  0.00    +0.000 OA
BRANCH  15  16
ATOM     16  C   UNL     1       5.245   7.141  17.082  0.00  0.00    +0.000 C 
BRANCH  16  17
ATOM     17  C   UNL     1       4.595   5.889  17.619  0.00  0.00    +0.000 A 
ATOM     18  C   UNL     1       4.674   4.681  16.912  0.00  0.00    +0.000 A 
ATOM     19  C   UNL     1       3.909   3.583  17.305  0.00  0.00    +0.000 A 
ATOM     20  C   UNL     1       3.078   3.674  18.421  0.00  0.00    +0.000 A 
ATOM     21  C   UNL     1       3.003   4.865  19.158  0.00  0.00    +0.000 A 
ATOM     22  C   UNL     1       3.775   5.964  18.755  0.00  0.00    +0.000 A 
BRANCH  21  23
ATOM     23  C   UNL     1       2.065   4.973  20.334  0.00  0.00    +0.000 C 
ATOM     24  F   UNL     1       0.857   4.388  20.101  0.00  0.00    +0.000 F 
ATOM     25  F   UNL     1       2.556   4.382  21.459  0.00  0.00    +0.000 F 
ATOM     26  F   UNL     1       1.791   6.262  20.678  0.00  0.00    +0.000 F 
ENDBRANCH  21  23
ENDBRANCH  16  17
ENDBRANCH  15  16
ENDBRANCH   2  15
TORSDOF 7
ENDMDL
MODEL 8
REMARK VINA RESULT:      -8.0      5.175      8.339
REMARK  Name = 
REMARK  7 active torsions:
REMARK  status: ('A' for Active; 'I' for Inactive)
REMARK    1  A    between atoms: C_2  and  C_3
REMARK    2  A    between atoms: C_2  and  O_14
REMARK    3  A    between atoms: C_3  and  C_4
REMARK    4  A    between atoms: C_4  and  C_5
REMARK    5  A    between atoms: O_14  and  C_15
REMARK    6  A    between atoms: C_15  and  C_16
REMARK    7  A    between atoms: C_20  and  C_21
REMARK                            x       y       z     vdW  Elec       q    Type
REMARK                         _______ _______ _______ _____ _____    ______ ____
ROOT
ATOM      1  O   UNL     1       6.196   4.255  19.405  0.00  0.00    +0.000 OA
ATOM      2  C   UNL     1       5.168   4.573  18.837  0.00  0.00    +0.000 C 
ENDROOT
BRANCH   2   3
ATOM      3  C   UNL     1       4.530   3.722  17.748  0.00  0.00    +0.000 C 
BRANCH   3   4
ATOM      4  C   UNL     1       4.284   4.527  16.476  0.00  0.00    +0.000 C 
BRANCH   4   5
ATOM      5  C   UNL     1       5.538   4.831  15.723  0.00  0.00    +0.000 A 
ATOM      6  C   UNL     1       6.588   5.613  16.167  0.00  0.00    +0.000 A 
ATOM      7  N   UNL     1       7.529   5.676  15.175  0.00  0.00    +0.000 N 
ATOM      8  C   UNL     1       7.112   4.959  14.078  0.00  0.00    +0.000 A 
ATOM      9  C   UNL     1       7.724   4.776  12.832  0.00  0.00    +0.000 A 
ATOM     10  C   UNL     1       7.053   3.995  11.886  0.00  0.00    +0.000 A 
ATOM     11  C   UNL     1       5.825   3.408  12.182  0.00  0.00    +0.000 A 
ATOM     12  C   UNL     1       5.227   3.601  13.432  0.00  0.00    +0.000 A 
ATOM     13  C   UNL     1       5.875   4.398  14.400  0.00  0.00    +0.000 A 
ATOM     14  H   UNL     1       8.391   6.200  15.223  0.00  0.00    +0.000 HD
ENDBRANCH   4   5
ENDBRANCH   3   4
ENDBRANCH   2   3
BRANCH   2  15
ATOM     15  O   UNL     1       4.442   5.692  19.141  0.00  0.00    +0.000 OA
BRANCH  15  16
ATOM     16  C   UNL     1       3.107   5.534  19.675  0.00  0.00    +0.000 C 
BRANCH  16  17
ATOM     17  C   UNL     1       2.376   6.822  19.388  0.00  0.00    +0.000 A 
ATOM     18  C   UNL     1       2.417   7.400  18.111  0.00  0.00    +0.000 A 
ATOM     19  C   UNL     1       1.912   8.684  17.902  0.00  0.00    +0.000 A 
ATOM     20  C   UNL     1       1.341   9.391  18.958  0.00  0.00    +0.000 A 
ATOM     21  C   UNL     1       1.266   8.822  20.239  0.00  0.00    +0.000 A 
ATOM     22  C   UNL     1       1.777   7.531  20.440  0.00  0.00    +0.000 A 
BRANCH  21  23
ATOM     23  C   UNL     1       0.692   9.611  21.388  0.00  0.00    +0.000 C 
ATOM     24  F   UNL     1       0.795  10.957  21.207  0.00  0.00    +0.000 F 
ATOM     25  F   UNL     1      -0.631   9.361  21.595  0.00  0.00    +0.000 F 
ATOM     26  F   UNL     1       1.311   9.350  22.573  0.00  0.00    +0.000 F 
ENDBRANCH  21  23
ENDBRANCH  16  17
ENDBRANCH  15  16
ENDBRANCH   2  15
TORSDOF 7
ENDMDL
MODEL 9
REMARK VINA RESULT:      -7.9      3.921      5.699
REMARK  Name = 
REMARK  7 active torsions:
REMARK  status: ('A' for Active; 'I' for Inactive)
REMARK    1  A    between atoms: C_2  and  C_3
REMARK    2  A    between atoms: C_2  and  O_14
REMARK    3  A    between atoms: C_3  and  C_4
REMARK    4  A    between atoms: C_4  and  C_5
REMARK    5  A    between atoms: O_14  and  C_15
REMARK    6  A    between atoms: C_15  and  C_16
REMARK    7  A    between atoms: C_20  and  C_21
REMARK                            x       y       z     vdW  Elec       q    Type
REMARK                         _______ _______ _______ _____ _____    ______ ____
ROOT
ATOM      1  O   UNL     1       1.351   2.198  19.169  0.00  0.00    +0.000 OA
ATOM      2  C   UNL     1       1.737   3.337  18.980  0.00  0.00    +0.000 C 
ENDROOT
BRANCH   2   3
ATOM      3  C   UNL     1       1.502   4.463  19.977  0.00  0.00    +0.000 C 
BRANCH   3   4
ATOM      4  C   UNL     1       2.687   5.422  20.034  0.00  0.00    +0.000 C 
BRANCH   4   5
ATOM      5  C   UNL     1       2.411   6.733  19.373  0.00  0.00    +0.000 A 
ATOM      6  C   UNL     1       2.805   7.106  18.101  0.00  0.00    +0.000 A 
ATOM      7  N   UNL     1       2.389   8.392  17.881  0.00  0.00    +0.000 N 
ATOM      8  C   UNL     1       1.740   8.879  18.991  0.00  0.00    +0.000 A 
ATOM      9  C   UNL     1       1.188  10.142  19.233  0.00  0.00    +0.000 A 
ATOM     10  C   UNL     1       0.592  10.364  20.478  0.00  0.00    +0.000 A 
ATOM     11  C   UNL     1       0.539   9.356  21.437  0.00  0.00    +0.000 A 
ATOM     12  C   UNL     1       1.096   8.099  21.179  0.00  0.00    +0.000 A 
ATOM     13  C   UNL     1       1.718   7.852  19.937  0.00  0.00    +0.000 A 
ATOM     14  H   UNL     1       2.563   8.923  17.039  0.00  0.00    +0.000 HD
ENDBRANCH   4   5
ENDBRANCH   3   4
ENDBRANCH   2   3
BRANCH   2  15
ATOM     15  O   UNL     1       2.464   3.727  17.888  0.00  0.00    +0.000 OA
BRANCH  15  16
ATOM     16  C   UNL     1       3.657   2.984  17.545  0.00  0.00    +0.000 C 
BRANCH  16  17
ATOM     17  C   UNL     1       4.704   4.006  17.174  0.00  0.00    +0.000 A 
ATOM     18  C   UNL     1       4.894   4.386  15.838  0.00  0.00    +0.000 A 
ATOM     19  C   UNL     1       5.987   5.174  15.478  0.00  0.00    +0.000 A 
ATOM     20  C   UNL     1       6.886   5.609  16.450  0.00  0.00    +0.000 A 
ATOM     21  C   UNL     1       6.700   5.263  17.798  0.00  0.00    +0.000 A 
ATOM     22  C   UNL     1       5.598   4.470  18.150  0.00  0.00    +0.000 A 
BRANCH  21  23
ATOM     23  C   UNL     1       7.703   5.696  18.838  0.00  0.00    +0.000 C 
ATOM     24  F   UNL     1       7.160   5.799  20.083  0.00  0.00    +0.000 F 
ATOM     25  F   UNL     1       8.749   4.832  18.956  0.00  0.00    +0.000 F 
ATOM     26  F   UNL     1       8.251   6.914  18.572  0.00  0.00    +0.000 F 
ENDBRANCH  21  23
ENDBRANCH  16  17
ENDBRANCH  15  16
ENDBRANCH   2  15
TORSDOF 7
ENDMDL
