MODEL 1
REMARK VINA RESULT:      -8.7      0.000      0.000
REMARK  Name = 
REMARK  4 active torsions:
REMARK  status: ('A' for Active; 'I' for Inactive)
REMARK    1  A    between atoms: C_1  and  C_2
REMARK    2  A    between atoms: C_2  and  O_3
REMARK    3  A    between atoms: C_2  and  C_4
REMARK    4  A    between atoms: C_8  and  N_9
REMARK                            x       y       z     vdW  Elec       q    Type
REMARK                         _______ _______ _______ _____ _____    ______ ____
ROOT
ATOM      1  N   UNL     1       5.587   4.227  16.312  0.00  0.00    +0.000 N 
ATOM      2  C   UNL     1       4.643   4.927  17.063  0.00  0.00    +0.000 A 
ATOM      3  N   UNL     1       4.178   4.213  18.094  0.00  0.00    +0.000 NA
ATOM      4  C   UNL     1       3.323   4.809  18.944  0.00  0.00    +0.000 A 
ATOM      5  N   UNL     1       2.515   4.006  19.799  0.00  0.00    +0.000 N 
ATOM      6  C   UNL     1       3.058   2.685  20.141  0.00  0.00    +0.000 C 
ATOM      7  C   UNL     1       2.217   1.688  19.353  0.00  0.00    +0.000 C 
ATOM      8  C   UNL     1       0.855   2.356  19.316  0.00  0.00    +0.000 C 
ATOM      9  C   UNL     1       1.214   3.819  19.102  0.00  0.00    +0.000 C 
ATOM     10  C   UNL     1       3.026   6.170  18.854  0.00  0.00    +0.000 A 
ATOM     11  C   UNL     1       2.278   6.870  19.838  0.00  0.00    +0.000 A 
ATOM     12  C   UNL     1       1.886   8.182  19.627  0.00  0.00    +0.000 A 
ATOM     13  C   UNL     1       2.231   8.791  18.431  0.00  0.00    +0.000 A 
ATOM     14  C   UNL     1       3.023   8.105  17.490  0.00  0.00    +0.000 A 
ATOM     15  C   UNL     1       3.472   6.801  17.695  0.00  0.00    +0.000 A 
ATOM     16  N   UNL     1       4.263   6.184  16.790  0.00  0.00    +0.000 NA
ATOM     17  H   UNL     1       5.752   3.353  16.794  0.00  0.00    +0.000 HD
ENDROOT
BRANCH   1  22
ATOM     18  C   UNL     1       6.042   3.714  12.617  0.00  0.00    +0.000 A 
ATOM     19  C   UNL     1       7.200   4.483  12.425  0.00  0.00    +0.000 A 
ATOM     20  C   UNL     1       7.790   5.147  13.494  0.00  0.00    +0.000 A 
ATOM     21  C   UNL     1       7.231   5.040  14.767  0.00  0.00    +0.000 A 
ATOM     22  C   UNL     1       6.074   4.275  15.004  0.00  0.00    +0.000 A 
ATOM     23  C   UNL     1       5.471   3.648  13.908  0.00  0.00    +0.000 A 
BRANCH  18  25
ATOM     24  C   UNL     1       5.926   1.492  11.422  0.00  0.00    +0.000 C 
ATOM     25  C   UNL     1       5.474   2.947  11.438  0.00  0.00    +0.000 C 
BRANCH  25  26
ATOM     26  O   UNL     1       4.051   2.985  11.426  0.00  0.00    +0.000 OA
ATOM     27  H   UNL     1       3.764   3.514  12.187  0.00  0.00    +0.000 HD
ENDBRANCH  25  26
ENDBRANCH  18  25
ENDBRANCH   1  22
TORSDOF 3
ENDMDL
MODEL 2
REMARK VINA RESULT:      -8.6      1.079      1.177
REMARK  Name = 
REMARK  4 active torsions:
REMARK  status: ('A' for Active; 'I' for Inactive)
REMARK    1  A    between atoms: C_1  and  C_2
REMARK    2  A    between atoms: C_2  and  O_3
REMARK    3  A    between atoms: C_2  and  C_4
REMARK    4  A    between atoms: C_8  and  N_9
REMARK                            x       y       z     vdW  Elec       q    Type
REMARK                         _______ _______ _______ _____ _____    ______ ____
ROOT
ATOM      1  N   UNL     1       5.363   4.730  17.119  0.00  0.00    +0.000 N 
ATOM      2  C   UNL     1       4.357   5.454  17.759  0.00  0.00    +0.000 A 
ATOM      3  N   UNL     1       3.944   4.867  18.888  0.00  0.00    +0.000 NA
ATOM      4  C   UNL     1       3.034   5.510  19.641  0.00  0.00    +0.000 A 
ATOM      5  N   UNL     1       2.289   4.780  20.611  0.00  0.00    +0.000 N 
ATOM      6  C   UNL     1       2.938   3.577  21.147  0.00  0.00    +0.000 C 
ATOM      7  C   UNL     1       2.191   2.405  20.523  0.00  0.00    +0.000 C 
ATOM      8  C   UNL     1       0.778   2.942  20.390  0.00  0.00    +0.000 C 
ATOM      9  C   UNL     1       1.014   4.380  19.956  0.00  0.00    +0.000 C 
ATOM     10  C   UNL     1       2.624   6.812  19.347  0.00  0.00    +0.000 A 
ATOM     11  C   UNL     1       1.811   7.587  20.216  0.00  0.00    +0.000 A 
ATOM     12  C   UNL     1       1.312   8.814  19.810  0.00  0.00    +0.000 A 
ATOM     13  C   UNL     1       1.616   9.262  18.534  0.00  0.00    +0.000 A 
ATOM     14  C   UNL     1       2.471   8.511  17.705  0.00  0.00    +0.000 A 
ATOM     15  C   UNL     1       3.026   7.295  18.104  0.00  0.00    +0.000 A 
ATOM     16  N   UNL     1       3.874   6.618  17.300  0.00  0.00    +0.000 NA
ATOM     17  H   UNL     1       5.596   3.956  17.728  0.00  0.00    +0.000 HD
ENDROOT
BRANCH   1  22
ATOM     18  C   UNL     1       5.853   3.752  13.524  0.00  0.00    +0.000 A 
ATOM     19  C   UNL     1       6.991   4.521  13.236  0.00  0.00    +0.000 A 
ATOM     20  C   UNL     1       7.557   5.336  14.210  0.00  0.00    +0.000 A 
ATOM     21  C   UNL     1       6.993   5.380  15.485  0.00  0.00    +0.000 A 
ATOM     22  C   UNL     1       5.857   4.620  15.817  0.00  0.00    +0.000 A 
ATOM     23  C   UNL     1       5.278   3.839  14.812  0.00  0.00    +0.000 A 
BRANCH  18  25
ATOM     24  C   UNL     1       4.411   3.545  11.461  0.00  0.00    +0.000 C 
ATOM     25  C   UNL     1       5.314   2.822  12.454  0.00  0.00    +0.000 C 
BRANCH  25  26
ATOM     26  O   UNL     1       6.367   2.186  11.737  0.00  0.00    +0.000 OA
ATOM     27  H   UNL     1       6.611   2.763  10.997  0.00  0.00    +0.000 HD
ENDBRANCH  25  26
ENDBRANCH  18  25
ENDBRANCH   1  22
TORSDOF 3
ENDMDL
MODEL 3
REMARK VINA RESULT:      -8.6      3.420      7.650
REMARK  Name = 
REMARK  4 active torsions:
REMARK  status: ('A' for Active; 'I' for Inactive)
REMARK    1  A    between atoms: C_1  and  C_2
REMARK    2  A    between atoms: C_2  and  O_3
REMARK    3  A    between atoms: C_2  and  C_4
REMARK    4  A    between atoms: C_8  and  N_9
REMARK                            x       y       z     vdW  Elec       q    Type
REMARK                         _______ _______ _______ _____ _____    ______ ____
ROOT
ATOM      1  N   UNL     1       2.271   8.498  18.886  0.00  0.00    +0.000 N 
ATOM      2  C   UNL     1       2.563   7.150  19.089  0.00  0.00    +0.000 A 
ATOM      3  N   UNL     1       3.690   6.773  18.475  0.00  0.00    +0.000 NA
ATOM      4  C   UNL     1       4.126   5.514  18.664  0.00  0.00    +0.000 A 
ATOM      5  N   UNL     1       5.066   4.956  17.751  0.00  0.00    +0.000 N 
ATOM      6  C   UNL     1       5.935   5.917  17.058  0.00  0.00    +0.000 C 
ATOM      7  C   UNL     1       5.425   5.957  15.623  0.00  0.00    +0.000 C 
ATOM      8  C   UNL     1       4.935   4.539  15.402  0.00  0.00    +0.000 C 
ATOM      9  C   UNL     1       4.280   4.207  16.735  0.00  0.00    +0.000 C 
ATOM     10  C   UNL     1       3.514   4.654  19.579  0.00  0.00    +0.000 A 
ATOM     11  C   UNL     1       4.053   3.391  19.939  0.00  0.00    +0.000 A 
ATOM     12  C   UNL     1       3.333   2.516  20.736  0.00  0.00    +0.000 A 
ATOM     13  C   UNL     1       2.072   2.899  21.164  0.00  0.00    +0.000 A 
ATOM     14  C   UNL     1       1.574   4.178  20.848  0.00  0.00    +0.000 A 
ATOM     15  C   UNL     1       2.295   5.098  20.088  0.00  0.00    +0.000 A 
ATOM     16  N   UNL     1       1.807   6.331  19.835  0.00  0.00    +0.000 NA
ATOM     17  H   UNL     1       3.050   8.891  18.374  0.00  0.00    +0.000 HD
ENDROOT
BRANCH   1  22
ATOM     18  C   UNL     1      -0.954  10.207  17.992  0.00  0.00    +0.000 A 
ATOM     19  C   UNL     1      -1.128  10.979  19.150  0.00  0.00    +0.000 A 
ATOM     20  C   UNL     1      -0.202  10.916  20.184  0.00  0.00    +0.000 A 
ATOM     21  C   UNL     1       0.912  10.085  20.064  0.00  0.00    +0.000 A 
ATOM     22  C   UNL     1       1.127   9.299  18.917  0.00  0.00    +0.000 A 
ATOM     23  C   UNL     1       0.163   9.345  17.905  0.00  0.00    +0.000 A 
BRANCH  18  25
ATOM     24  C   UNL     1      -3.340   9.865  17.236  0.00  0.00    +0.000 C 
ATOM     25  C   UNL     1      -1.950  10.363  16.858  0.00  0.00    +0.000 C 
BRANCH  25  26
ATOM     26  O   UNL     1      -2.049  11.718  16.432  0.00  0.00    +0.000 OA
ATOM     27  H   UNL     1      -2.172  11.717  15.471  0.00  0.00    +0.000 HD
ENDBRANCH  25  26
ENDBRANCH  18  25
ENDBRANCH   1  22
TORSDOF 3
ENDMDL
MODEL 4
REMARK VINA RESULT:      -8.3      4.016      7.414
REMARK  Name = 
REMARK  4 active torsions:
REMARK  status: ('A' for Active; 'I' for Inactive)
REMARK    1  A    between atoms: C_1  and  C_2
REMARK    2  A    between atoms: C_2  and  O_3
REMARK    3  A    between atoms: C_2  and  C_4
REMARK    4  A    between atoms: C_8  and  N_9
REMARK                            x       y       z     vdW  Elec       q    Type
REMARK                         _______ _______ _______ _____ _____    ______ ____
ROOT
ATOM      1  N   UNL     1       2.021   8.557  18.090  0.00  0.00    +0.000 N 
ATOM      2  C   UNL     1       1.481   9.324  19.122  0.00  0.00    +0.000 A 
ATOM      3  N   UNL     1       1.415  10.624  18.813  0.00  0.00    +0.000 NA
ATOM      4  C   UNL     1       0.836  11.458  19.695  0.00  0.00    +0.000 A 
ATOM      5  N   UNL     1       1.086  12.857  19.602  0.00  0.00    +0.000 N 
ATOM      6  C   UNL     1       1.434  13.359  18.266  0.00  0.00    +0.000 C 
ATOM      7  C   UNL     1       2.924  13.674  18.331  0.00  0.00    +0.000 C 
ATOM      8  C   UNL     1       3.109  14.117  19.769  0.00  0.00    +0.000 C 
ATOM      9  C   UNL     1       2.213  13.150  20.528  0.00  0.00    +0.000 C 
ATOM     10  C   UNL     1       0.191  10.984  20.839  0.00  0.00    +0.000 A 
ATOM     11  C   UNL     1      -0.587  11.811  21.692  0.00  0.00    +0.000 A 
ATOM     12  C   UNL     1      -1.081  11.324  22.891  0.00  0.00    +0.000 A 
ATOM     13  C   UNL     1      -0.790  10.016  23.242  0.00  0.00    +0.000 A 
ATOM     14  C   UNL     1      -0.067   9.190  22.361  0.00  0.00    +0.000 A 
ATOM     15  C   UNL     1       0.402   9.638  21.126  0.00  0.00    +0.000 A 
ATOM     16  N   UNL     1       1.058   8.809  20.285  0.00  0.00    +0.000 NA
ATOM     17  H   UNL     1       2.160   9.181  17.305  0.00  0.00    +0.000 HD
ENDROOT
BRANCH   1  22
ATOM     18  C   UNL     1       2.837   4.891  18.220  0.00  0.00    +0.000 A 
ATOM     19  C   UNL     1       4.133   4.931  17.686  0.00  0.00    +0.000 A 
ATOM     20  C   UNL     1       4.698   6.140  17.295  0.00  0.00    +0.000 A 
ATOM     21  C   UNL     1       3.971   7.321  17.443  0.00  0.00    +0.000 A 
ATOM     22  C   UNL     1       2.671   7.325  17.980  0.00  0.00    +0.000 A 
ATOM     23  C   UNL     1       2.105   6.095  18.329  0.00  0.00    +0.000 A 
BRANCH  18  25
ATOM     24  C   UNL     1       1.216   3.730  19.770  0.00  0.00    +0.000 C 
ATOM     25  C   UNL     1       2.289   3.561  18.702  0.00  0.00    +0.000 C 
BRANCH  25  26
ATOM     26  O   UNL     1       1.751   2.798  17.628  0.00  0.00    +0.000 OA
ATOM     27  H   UNL     1       1.667   1.881  17.931  0.00  0.00    +0.000 HD
ENDBRANCH  25  26
ENDBRANCH  18  25
ENDBRANCH   1  22
TORSDOF 3
ENDMDL
MODEL 5
REMARK VINA RESULT:      -8.3      3.968      8.199
REMARK  Name = 
REMARK  4 active torsions:
REMARK  status: ('A' for Active; 'I' for Inactive)
REMARK    1  A    between atoms: C_1  and  C_2
REMARK    2  A    between atoms: C_2  and  O_3
REMARK    3  A    between atoms: C_2  and  C_4
REMARK    4  A    between atoms: C_8  and  N_9
REMARK                            x       y       z     vdW  Elec       q    Type
REMARK                         _______ _______ _______ _____ _____    ______ ____
ROOT
ATOM      1  N   UNL     1       2.714   7.631  19.900  0.00  0.00    +0.000 N 
ATOM      2  C   UNL     1       2.917   6.322  19.463  0.00  0.00    +0.000 A 
ATOM      3  N   UNL     1       4.213   6.014  19.353  0.00  0.00    +0.000 NA
ATOM      4  C   UNL     1       4.541   4.753  19.020  0.00  0.00    +0.000 A 
ATOM      5  N   UNL     1       5.844   4.479  18.516  0.00  0.00    +0.000 N 
ATOM      6  C   UNL     1       6.904   5.404  18.941  0.00  0.00    +0.000 C 
ATOM      7  C   UNL     1       7.223   6.243  17.709  0.00  0.00    +0.000 C 
ATOM      8  C   UNL     1       6.986   5.268  16.571  0.00  0.00    +0.000 C 
ATOM      9  C   UNL     1       5.745   4.521  17.032  0.00  0.00    +0.000 C 
ATOM     10  C   UNL     1       3.579   3.745  18.926  0.00  0.00    +0.000 A 
ATOM     11  C   UNL     1       3.904   2.373  18.760  0.00  0.00    +0.000 A 
ATOM     12  C   UNL     1       2.912   1.435  18.523  0.00  0.00    +0.000 A 
ATOM     13  C   UNL     1       1.599   1.868  18.442  0.00  0.00    +0.000 A 
ATOM     14  C   UNL     1       1.285   3.222  18.666  0.00  0.00    +0.000 A 
ATOM     15  C   UNL     1       2.256   4.181  18.953  0.00  0.00    +0.000 A 
ATOM     16  N   UNL     1       1.919   5.465  19.203  0.00  0.00    +0.000 NA
ATOM     17  H   UNL     1       3.628   8.013  20.109  0.00  0.00    +0.000 HD
ENDROOT
BRANCH   1  22
ATOM     18  C   UNL     1       0.036  10.126  20.750  0.00  0.00    +0.000 A 
ATOM     19  C   UNL     1      -0.366  10.474  19.451  0.00  0.00    +0.000 A 
ATOM     20  C   UNL     1       0.246   9.897  18.345  0.00  0.00    +0.000 A 
ATOM     21  C   UNL     1       1.262   8.959  18.530  0.00  0.00    +0.000 A 
ATOM     22  C   UNL     1       1.690   8.578  19.814  0.00  0.00    +0.000 A 
ATOM     23  C   UNL     1       1.091   9.200  20.914  0.00  0.00    +0.000 A 
BRANCH  18  25
ATOM     24  C   UNL     1      -0.619   9.853  23.174  0.00  0.00    +0.000 C 
ATOM     25  C   UNL     1      -0.710  10.725  21.927  0.00  0.00    +0.000 C 
BRANCH  25  26
ATOM     26  O   UNL     1      -0.228  12.027  22.243  0.00  0.00    +0.000 OA
ATOM     27  H   UNL     1      -0.937  12.499  22.707  0.00  0.00    +0.000 HD
ENDBRANCH  25  26
ENDBRANCH  18  25
ENDBRANCH   1  22
TORSDOF 3
ENDMDL
MODEL 6
REMARK VINA RESULT:      -8.2      3.462      7.383
REMARK  Name = 
REMARK  4 active torsions:
REMARK  status: ('A' for Active; 'I' for Inactive)
REMARK    1  A    between atoms: C_1  and  C_2
REMARK    2  A    between atoms: C_2  and  O_3
REMARK    3  A    between atoms: C_2  and  C_4
REMARK    4  A    between atoms: C_8  and  N_9
REMARK                            x       y       z     vdW  Elec       q    Type
REMARK                         _______ _______ _______ _____ _____    ______ ____
ROOT
ATOM      1  N   UNL     1       1.555   8.066  18.344  0.00  0.00    +0.000 N 
ATOM      2  C   UNL     1       2.587   7.166  18.078  0.00  0.00    +0.000 A 
ATOM      3  N   UNL     1       2.174   5.894  18.100  0.00  0.00    +0.000 NA
ATOM      4  C   UNL     1       3.059   4.934  17.776  0.00  0.00    +0.000 A 
ATOM      5  N   UNL     1       2.797   3.586  18.156  0.00  0.00    +0.000 N 
ATOM      6  C   UNL     1       1.381   3.228  18.318  0.00  0.00    +0.000 C 
ATOM      7  C   UNL     1       1.171   3.094  19.821  0.00  0.00    +0.000 C 
ATOM      8  C   UNL     1       2.512   2.574  20.301  0.00  0.00    +0.000 C 
ATOM      9  C   UNL     1       3.494   3.365  19.451  0.00  0.00    +0.000 C 
ATOM     10  C   UNL     1       4.332   5.240  17.293  0.00  0.00    +0.000 A 
ATOM     11  C   UNL     1       5.222   4.265  16.770  0.00  0.00    +0.000 A 
ATOM     12  C   UNL     1       6.526   4.600  16.443  0.00  0.00    +0.000 A 
ATOM     13  C   UNL     1       6.943   5.905  16.648  0.00  0.00    +0.000 A 
ATOM     14  C   UNL     1       6.035   6.875  17.112  0.00  0.00    +0.000 A 
ATOM     15  C   UNL     1       4.704   6.578  17.405  0.00  0.00    +0.000 A 
ATOM     16  N   UNL     1       3.847   7.539  17.811  0.00  0.00    +0.000 NA
ATOM     17  H   UNL     1       0.705   7.522  18.411  0.00  0.00    +0.000 HD
ENDROOT
BRANCH   1  22
ATOM     18  C   UNL     1       1.708  11.806  18.674  0.00  0.00    +0.000 A 
ATOM     19  C   UNL     1       1.179  11.939  19.967  0.00  0.00    +0.000 A 
ATOM     20  C   UNL     1       0.783  10.816  20.685  0.00  0.00    +0.000 A 
ATOM     21  C   UNL     1       0.923   9.549  20.118  0.00  0.00    +0.000 A 
ATOM     22  C   UNL     1       1.454   9.373  18.828  0.00  0.00    +0.000 A 
ATOM     23  C   UNL     1       1.808  10.517  18.105  0.00  0.00    +0.000 A 
BRANCH  18  25
ATOM     24  C   UNL     1       1.792  14.331  18.680  0.00  0.00    +0.000 C 
ATOM     25  C   UNL     1       2.194  13.051  17.957  0.00  0.00    +0.000 C 
BRANCH  25  26
ATOM     26  O   UNL     1       3.609  13.041  17.795  0.00  0.00    +0.000 OA
ATOM     27  H   UNL     1       3.852  12.204  17.372  0.00  0.00    +0.000 HD
ENDBRANCH  25  26
ENDBRANCH  18  25
ENDBRANCH   1  22
TORSDOF 3
ENDMDL
MODEL 7
REMARK VINA RESULT:      -8.2      3.899      7.658
REMARK  Name = 
REMARK  4 active torsions:
REMARK  status: ('A' for Active; 'I' for Inactive)
REMARK    1  A    between atoms: C_1  and  C_2
REMARK    2  A    between atoms: C_2  and  O_3
REMARK    3  A    between atoms: C_2  and  C_4
REMARK    4  A    between atoms: C_8  and  N_9
REMARK                            x       y       z     vdW  Elec       q    Type
REMARK                         _______ _______ _______ _____ _____    ______ ____
ROOT
ATOM      1  N   UNL     1       1.536   8.022  18.252  0.00  0.00    +0.000 N 
ATOM      2  C   UNL     1       2.568   7.111  18.024  0.00  0.00    +0.000 A 
ATOM      3  N   UNL     1       2.155   5.842  18.098  0.00  0.00    +0.000 NA
ATOM      4  C   UNL     1       3.039   4.869  17.815  0.00  0.00    +0.000 A 
ATOM      5  N   UNL     1       2.777   3.538  18.250  0.00  0.00    +0.000 N 
ATOM      6  C   UNL     1       1.361   3.188  18.426  0.00  0.00    +0.000 C 
ATOM      7  C   UNL     1       1.150   3.115  19.934  0.00  0.00    +0.000 C 
ATOM      8  C   UNL     1       2.491   2.615  20.435  0.00  0.00    +0.000 C 
ATOM      9  C   UNL     1       3.474   3.371  19.553  0.00  0.00    +0.000 C 
ATOM     10  C   UNL     1       4.313   5.155  17.320  0.00  0.00    +0.000 A 
ATOM     11  C   UNL     1       5.202   4.159  16.837  0.00  0.00    +0.000 A 
ATOM     12  C   UNL     1       6.506   4.479  16.497  0.00  0.00    +0.000 A 
ATOM     13  C   UNL     1       6.924   5.792  16.648  0.00  0.00    +0.000 A 
ATOM     14  C   UNL     1       6.016   6.780  17.071  0.00  0.00    +0.000 A 
ATOM     15  C   UNL     1       4.685   6.496  17.376  0.00  0.00    +0.000 A 
ATOM     16  N   UNL     1       3.828   7.473  17.742  0.00  0.00    +0.000 NA
ATOM     17  H   UNL     1       0.685   7.482  18.341  0.00  0.00    +0.000 HD
ENDROOT
BRANCH   1  22
ATOM     18  C   UNL     1       0.661  11.126  20.180  0.00  0.00    +0.000 A 
ATOM     19  C   UNL     1       1.340  12.074  19.400  0.00  0.00    +0.000 A 
ATOM     20  C   UNL     1       2.064  11.678  18.281  0.00  0.00    +0.000 A 
ATOM     21  C   UNL     1       2.107  10.328  17.930  0.00  0.00    +0.000 A 
ATOM     22  C   UNL     1       1.435   9.348  18.682  0.00  0.00    +0.000 A 
ATOM     23  C   UNL     1       0.746   9.761  19.826  0.00  0.00    +0.000 A 
BRANCH  18  25
ATOM     24  C   UNL     1      -0.344  10.546  22.423  0.00  0.00    +0.000 C 
ATOM     25  C   UNL     1      -0.177  11.612  21.348  0.00  0.00    +0.000 C 
BRANCH  25  26
ATOM     26  O   UNL     1       0.382  12.779  21.942  0.00  0.00    +0.000 OA
ATOM     27  H   UNL     1      -0.257  13.500  21.836  0.00  0.00    +0.000 HD
ENDBRANCH  25  26
ENDBRANCH  18  25
ENDBRANCH   1  22
TORSDOF 3
ENDMDL
MODEL 8
REMARK VINA RESULT:      -8.2      3.487      8.024
REMARK  Name = 
REMARK  4 active torsions:
REMARK  status: ('A' for Active; 'I' for Inactive)
REMARK    1  A    between atoms: C_1  and  C_2
REMARK    2  A    between atoms: C_2  and  O_3
REMARK    3  A    between atoms: C_2  and  C_4
REMARK    4  A    between atoms: C_8  and  N_9
REMARK                            x       y       z     vdW  Elec       q    Type
REMARK                         _______ _______ _______ _____ _____    ______ ____
ROOT
ATOM      1  N   UNL     1       2.561   7.576  20.237  0.00  0.00    +0.000 N 
ATOM      2  C   UNL     1       2.737   6.301  19.700  0.00  0.00    +0.000 A 
ATOM      3  N   UNL     1       4.004   6.066  19.344  0.00  0.00    +0.000 NA
ATOM      4  C   UNL     1       4.320   4.841  18.889  0.00  0.00    +0.000 A 
ATOM      5  N   UNL     1       5.521   4.659  18.147  0.00  0.00    +0.000 N 
ATOM      6  C   UNL     1       6.600   5.616  18.428  0.00  0.00    +0.000 C 
ATOM      7  C   UNL     1       6.656   6.528  17.207  0.00  0.00    +0.000 C 
ATOM      8  C   UNL     1       6.260   5.597  16.077  0.00  0.00    +0.000 C 
ATOM      9  C   UNL     1       5.155   4.765  16.709  0.00  0.00    +0.000 C 
ATOM     10  C   UNL     1       3.401   3.790  18.912  0.00  0.00    +0.000 A 
ATOM     11  C   UNL     1       3.749   2.446  18.615  0.00  0.00    +0.000 A 
ATOM     12  C   UNL     1       2.772   1.469  18.506  0.00  0.00    +0.000 A 
ATOM     13  C   UNL     1       1.448   1.838  18.685  0.00  0.00    +0.000 A 
ATOM     14  C   UNL     1       1.122   3.161  19.036  0.00  0.00    +0.000 A 
ATOM     15  C   UNL     1       2.087   4.155  19.198  0.00  0.00    +0.000 A 
ATOM     16  N   UNL     1       1.746   5.406  19.574  0.00  0.00    +0.000 NA
ATOM     17  H   UNL     1       3.480   7.994  20.302  0.00  0.00    +0.000 HD
ENDROOT
BRANCH   1  22
ATOM     18  C   UNL     1      -0.067  10.187  19.602  0.00  0.00    +0.000 A 
ATOM     19  C   UNL     1      -0.659  10.223  20.873  0.00  0.00    +0.000 A 
ATOM     20  C   UNL     1      -0.195   9.397  21.891  0.00  0.00    +0.000 A 
ATOM     21  C   UNL     1       0.873   8.533  21.646  0.00  0.00    +0.000 A 
ATOM     22  C   UNL     1       1.499   8.471  20.388  0.00  0.00    +0.000 A 
ATOM     23  C   UNL     1       0.991   9.280  19.366  0.00  0.00    +0.000 A 
BRANCH  18  25
ATOM     24  C   UNL     1      -1.824  11.888  18.971  0.00  0.00    +0.000 C 
ATOM     25  C   UNL     1      -0.556  11.157  18.544  0.00  0.00    +0.000 C 
BRANCH  25  26
ATOM     26  O   UNL     1       0.440  12.121  18.218  0.00  0.00    +0.000 OA
ATOM     27  H   UNL     1       1.008  11.737  17.532  0.00  0.00    +0.000 HD
ENDBRANCH  25  26
ENDBRANCH  18  25
ENDBRANCH   1  22
TORSDOF 3
ENDMDL
MODEL 9
REMARK VINA RESULT:      -8.2      3.796      8.278
REMARK  Name = 
REMARK  4 active torsions:
REMARK  status: ('A' for Active; 'I' for Inactive)
REMARK    1  A    between atoms: C_1  and  C_2
REMARK    2  A    between atoms: C_2  and  O_3
REMARK    3  A    between atoms: C_2  and  C_4
REMARK    4  A    between atoms: C_8  and  N_9
REMARK                            x       y       z     vdW  Elec       q    Type
REMARK                         _______ _______ _______ _____ _____    ______ ____
ROOT
ATOM      1  N   UNL     1       2.365   8.292  19.308  0.00  0.00    +0.000 N 
ATOM      2  C   UNL     1       2.592   6.920  19.427  0.00  0.00    +0.000 A 
ATOM      3  N   UNL     1       3.696   6.527  18.783  0.00  0.00    +0.000 NA
ATOM      4  C   UNL     1       4.070   5.240  18.893  0.00  0.00    +0.000 A 
ATOM      5  N   UNL     1       4.977   4.693  17.941  0.00  0.00    +0.000 N 
ATOM      6  C   UNL     1       5.890   5.649  17.301  0.00  0.00    +0.000 C 
ATOM      7  C   UNL     1       5.376   5.802  15.874  0.00  0.00    +0.000 C 
ATOM      8  C   UNL     1       4.816   4.425  15.572  0.00  0.00    +0.000 C 
ATOM      9  C   UNL     1       4.151   4.046  16.887  0.00  0.00    +0.000 C 
ATOM     10  C   UNL     1       3.421   4.357  19.758  0.00  0.00    +0.000 A 
ATOM     11  C   UNL     1       3.898   3.049  20.038  0.00  0.00    +0.000 A 
ATOM     12  C   UNL     1       3.139   2.164  20.786  0.00  0.00    +0.000 A 
ATOM     13  C   UNL     1       1.900   2.581  21.245  0.00  0.00    +0.000 A 
ATOM     14  C   UNL     1       1.465   3.899  21.011  0.00  0.00    +0.000 A 
ATOM     15  C   UNL     1       2.227   4.827  20.302  0.00  0.00    +0.000 A 
ATOM     16  N   UNL     1       1.799   6.096  20.127  0.00  0.00    +0.000 NA
ATOM     17  H   UNL     1       3.160   8.676  18.815  0.00  0.00    +0.000 HD
ENDROOT
BRANCH   1  22
ATOM     18  C   UNL     1      -0.322  10.586  20.588  0.00  0.00    +0.000 A 
ATOM     19  C   UNL     1      -0.990  10.844  19.382  0.00  0.00    +0.000 A 
ATOM     20  C   UNL     1      -0.545  10.275  18.194  0.00  0.00    +0.000 A 
ATOM     21  C   UNL     1       0.568   9.434  18.206  0.00  0.00    +0.000 A 
ATOM     22  C   UNL     1       1.262   9.144  19.395  0.00  0.00    +0.000 A 
ATOM     23  C   UNL     1       0.824   9.759  20.572  0.00  0.00    +0.000 A 
BRANCH  18  25
ATOM     24  C   UNL     1      -0.802  10.190  23.036  0.00  0.00    +0.000 C 
ATOM     25  C   UNL     1      -0.886  11.169  21.871  0.00  0.00    +0.000 C 
BRANCH  25  26
ATOM     26  O   UNL     1      -0.219  12.372  22.234  0.00  0.00    +0.000 OA
ATOM     27  H   UNL     1      -0.671  12.737  23.011  0.00  0.00    +0.000 HD
ENDBRANCH  25  26
ENDBRANCH  18  25
ENDBRANCH   1  22
TORSDOF 3
ENDMDL
