MODEL 1
REMARK VINA RESULT:      -9.1      0.000      0.000
REMARK  Name = 
REMARK  5 active torsions:
REMARK  status: ('A' for Active; 'I' for Inactive)
REMARK    1  A    between atoms: N_3  and  C_4
REMARK    2  A    between atoms: C_7  and  C_8
REMARK    3  A    between atoms: C_18  and  C_19
REMARK    4  A    between atoms: N_23  and  C_24
REMARK    5  A    between atoms: C_24  and  C_25
REMARK                            x       y       z     vdW  Elec       q    Type
REMARK                         _______ _______ _______ _____ _____    ______ ____
ROOT
ATOM      1  O   UNL     1       3.388   7.029  18.303  0.00  0.00    +0.000 OA
ATOM      2  C   UNL     1       2.973   6.296  19.195  0.00  0.00    +0.000 C 
ATOM      3  N   UNL     1       2.173   6.716  20.236  0.00  0.00    +0.000 N 
ATOM      4  N   UNL     1       3.305   4.957  19.196  0.00  0.00    +0.000 N 
ATOM      5  C   UNL     1       2.677   3.928  20.016  0.00  0.00    +0.000 C 
ATOM      6  C   UNL     1       3.506   2.691  19.753  0.00  0.00    +0.000 C 
ATOM      7  C   UNL     1       3.821   2.827  18.267  0.00  0.00    +0.000 C 
ATOM      8  C   UNL     1       4.020   4.350  18.055  0.00  0.00    +0.000 C 
ATOM      9  H   UNL     1       2.070   6.079  21.009  0.00  0.00    +0.000 HD
ENDROOT
BRANCH   3  10
ATOM     10  C   UNL     1       1.639   8.012  20.451  0.00  0.00    +0.000 A 
ATOM     11  C   UNL     1       1.334   8.527  21.711  0.00  0.00    +0.000 A 
ATOM     12  C   UNL     1       0.749   9.792  21.852  0.00  0.00    +0.000 A 
ATOM     13  C   UNL     1       0.466  10.580  20.731  0.00  0.00    +0.000 A 
ATOM     14  C   UNL     1       0.823  10.090  19.467  0.00  0.00    +0.000 A 
ATOM     15  C   UNL     1       1.404   8.821  19.330  0.00  0.00    +0.000 A 
BRANCH  13  16
ATOM     16  C   UNL     1      -0.223  11.917  20.870  0.00  0.00    +0.000 C 
ATOM     17  F   UNL     1       0.354  12.909  20.134  0.00  0.00    +0.000 F 
ATOM     18  F   UNL     1      -1.528  11.878  20.485  0.00  0.00    +0.000 F 
ATOM     19  F   UNL     1      -0.226  12.366  22.157  0.00  0.00    +0.000 F 
ENDBRANCH  13  16
ENDBRANCH   3  10
BRANCH   8  20
ATOM     20  C   UNL     1       5.487   4.679  18.016  0.00  0.00    +0.000 A 
ATOM     21  N   UNL     1       6.360   4.376  18.964  0.00  0.00    +0.000 NA
ATOM     22  N   UNL     1       7.599   4.690  18.484  0.00  0.00    +0.000 NA
ATOM     23  N   UNL     1       7.519   5.204  17.270  0.00  0.00    +0.000 NA
ATOM     24  N   UNL     1       6.206   5.189  16.952  0.00  0.00    +0.000 N 
BRANCH  24  25
ATOM     25  C   UNL     1       5.781   5.794  15.699  0.00  0.00    +0.000 C 
BRANCH  25  26
ATOM     26  C   UNL     1       6.147   5.061  14.413  0.00  0.00    +0.000 A 
ATOM     27  C   UNL     1       7.342   5.245  13.705  0.00  0.00    +0.000 A 
ATOM     28  C   UNL     1       7.664   4.422  12.617  0.00  0.00    +0.000 A 
ATOM     29  C   UNL     1       6.794   3.409  12.222  0.00  0.00    +0.000 A 
ATOM     30 CL   UNL     1       7.242   2.339  10.952  0.00  0.00    +0.000 Cl
ATOM     31  C   UNL     1       5.576   3.244  12.871  0.00  0.00    +0.000 A 
ATOM     32  C   UNL     1       5.254   4.068  13.954  0.00  0.00    +0.000 A 
ENDBRANCH  25  26
ENDBRANCH  24  25
ENDBRANCH   8  20
TORSDOF 5
ENDMDL
MODEL 2
REMARK VINA RESULT:      -8.8      0.813      1.653
REMARK  Name = 
REMARK  5 active torsions:
REMARK  status: ('A' for Active; 'I' for Inactive)
REMARK    1  A    between atoms: N_3  and  C_4
REMARK    2  A    between atoms: C_7  and  C_8
REMARK    3  A    between atoms: C_18  and  C_19
REMARK    4  A    between atoms: N_23  and  C_24
REMARK    5  A    between atoms: C_24  and  C_25
REMARK                            x       y       z     vdW  Elec       q    Type
REMARK                         _______ _______ _______ _____ _____    ______ ____
ROOT
ATOM      1  O   UNL     1       3.335   7.428  18.817  0.00  0.00    +0.000 OA
ATOM      2  C   UNL     1       2.840   6.651  19.627  0.00  0.00    +0.000 C 
ATOM      3  N   UNL     1       1.882   7.003  20.555  0.00  0.00    +0.000 N 
ATOM      4  N   UNL     1       3.239   5.331  19.648  0.00  0.00    +0.000 N 
ATOM      5  C   UNL     1       2.558   4.251  20.351  0.00  0.00    +0.000 C 
ATOM      6  C   UNL     1       3.480   3.064  20.182  0.00  0.00    +0.000 C 
ATOM      7  C   UNL     1       3.991   3.255  18.757  0.00  0.00    +0.000 C 
ATOM      8  C   UNL     1       4.137   4.792  18.606  0.00  0.00    +0.000 C 
ATOM      9  H   UNL     1       1.706   6.341  21.292  0.00  0.00    +0.000 HD
ENDROOT
BRANCH   3  10
ATOM     10  C   UNL     1       1.256   8.264  20.718  0.00  0.00    +0.000 A 
ATOM     11  C   UNL     1       0.994   9.143  19.666  0.00  0.00    +0.000 A 
ATOM     12  C   UNL     1       0.430  10.403  19.901  0.00  0.00    +0.000 A 
ATOM     13  C   UNL     1       0.100  10.811  21.199  0.00  0.00    +0.000 A 
ATOM     14  C   UNL     1       0.308   9.909  22.251  0.00  0.00    +0.000 A 
ATOM     15  C   UNL     1       0.879   8.650  22.012  0.00  0.00    +0.000 A 
BRANCH  13  16
ATOM     16  C   UNL     1      -0.449  12.192  21.468  0.00  0.00    +0.000 C 
ATOM     17  F   UNL     1      -0.850  12.379  22.758  0.00  0.00    +0.000 F 
ATOM     18  F   UNL     1       0.456  13.176  21.213  0.00  0.00    +0.000 F 
ATOM     19  F   UNL     1      -1.537  12.475  20.698  0.00  0.00    +0.000 F 
ENDBRANCH  13  16
ENDBRANCH   3  10
BRANCH   8  20
ATOM     20  C   UNL     1       5.575   5.194  18.781  0.00  0.00    +0.000 A 
ATOM     21  N   UNL     1       6.300   4.978  19.867  0.00  0.00    +0.000 NA
ATOM     22  N   UNL     1       7.584   5.334  19.571  0.00  0.00    +0.000 NA
ATOM     23  N   UNL     1       7.675   5.791  18.335  0.00  0.00    +0.000 NA
ATOM     24  N   UNL     1       6.431   5.695  17.817  0.00  0.00    +0.000 N 
BRANCH  24  25
ATOM     25  C   UNL     1       6.183   6.223  16.484  0.00  0.00    +0.000 C 
BRANCH  25  26
ATOM     26  C   UNL     1       6.166   5.224  15.332  0.00  0.00    +0.000 A 
ATOM     27  C   UNL     1       5.105   4.351  15.052  0.00  0.00    +0.000 A 
ATOM     28  C   UNL     1       5.107   3.573  13.886  0.00  0.00    +0.000 A 
ATOM     29  C   UNL     1       6.171   3.655  12.990  0.00  0.00    +0.000 A 
ATOM     30 CL   UNL     1       6.119   2.773  11.514  0.00  0.00    +0.000 Cl
ATOM     31  C   UNL     1       7.261   4.468  13.274  0.00  0.00    +0.000 A 
ATOM     32  C   UNL     1       7.260   5.242  14.440  0.00  0.00    +0.000 A 
ENDBRANCH  25  26
ENDBRANCH  24  25
ENDBRANCH   8  20
TORSDOF 5
ENDMDL
MODEL 3
REMARK VINA RESULT:      -8.7      5.982     10.771
REMARK  Name = 
REMARK  5 active torsions:
REMARK  status: ('A' for Active; 'I' for Inactive)
REMARK    1  A    between atoms: N_3  and  C_4
REMARK    2  A    between atoms: C_7  and  C_8
REMARK    3  A    between atoms: C_18  and  C_19
REMARK    4  A    between atoms: N_23  and  C_24
REMARK    5  A    between atoms: C_24  and  C_25
REMARK                            x       y       z     vdW  Elec       q    Type
REMARK                         _______ _______ _______ _____ _____    ______ ____
ROOT
ATOM      1  O   UNL     1       2.309   9.160  17.627  0.00  0.00    +0.000 OA
ATOM      2  C   UNL     1       2.118   8.414  18.582  0.00  0.00    +0.000 C 
ATOM      3  N   UNL     1       2.643   7.144  18.693  0.00  0.00    +0.000 N 
ATOM      4  N   UNL     1       1.333   8.833  19.636  0.00  0.00    +0.000 N 
ATOM      5  C   UNL     1       1.242   8.180  20.937  0.00  0.00    +0.000 C 
ATOM      6  C   UNL     1       0.143   8.935  21.651  0.00  0.00    +0.000 C 
ATOM      7  C   UNL     1       0.388  10.369  21.190  0.00  0.00    +0.000 C 
ATOM      8  C   UNL     1       0.844  10.224  19.715  0.00  0.00    +0.000 C 
ATOM      9  H   UNL     1       2.253   6.558  19.412  0.00  0.00    +0.000 HD
ENDROOT
BRANCH   3  10
ATOM     10  C   UNL     1       3.521   6.488  17.793  0.00  0.00    +0.000 A 
ATOM     11  C   UNL     1       4.526   7.138  17.076  0.00  0.00    +0.000 A 
ATOM     12  C   UNL     1       5.319   6.444  16.154  0.00  0.00    +0.000 A 
ATOM     13  C   UNL     1       5.134   5.074  15.936  0.00  0.00    +0.000 A 
ATOM     14  C   UNL     1       4.164   4.406  16.696  0.00  0.00    +0.000 A 
ATOM     15  C   UNL     1       3.367   5.106  17.614  0.00  0.00    +0.000 A 
BRANCH  13  16
ATOM     16  C   UNL     1       5.942   4.332  14.898  0.00  0.00    +0.000 C 
ATOM     17  F   UNL     1       7.000   5.044  14.417  0.00  0.00    +0.000 F 
ATOM     18  F   UNL     1       6.461   3.166  15.371  0.00  0.00    +0.000 F 
ATOM     19  F   UNL     1       5.197   3.994  13.807  0.00  0.00    +0.000 F 
ENDBRANCH  13  16
ENDBRANCH   3  10
BRANCH   8  20
ATOM     20  C   UNL     1      -0.303  10.516  18.789  0.00  0.00    +0.000 A 
ATOM     21  N   UNL     1      -0.730   9.711  17.829  0.00  0.00    +0.000 NA
ATOM     22  N   UNL     1      -1.880  10.253  17.331  0.00  0.00    +0.000 NA
ATOM     23  N   UNL     1      -2.169  11.389  17.940  0.00  0.00    +0.000 NA
ATOM     24  N   UNL     1      -1.203  11.563  18.868  0.00  0.00    +0.000 N 
BRANCH  24  25
ATOM     25  C   UNL     1      -1.187  12.795  19.643  0.00  0.00    +0.000 C 
BRANCH  25  26
ATOM     26  C   UNL     1      -2.073  12.848  20.882  0.00  0.00    +0.000 A 
ATOM     27  C   UNL     1      -3.474  12.825  20.860  0.00  0.00    +0.000 A 
ATOM     28  C   UNL     1      -4.208  12.725  22.049  0.00  0.00    +0.000 A 
ATOM     29  C   UNL     1      -3.551  12.651  23.275  0.00  0.00    +0.000 A 
ATOM     30 CL   UNL     1      -4.454  12.426  24.722  0.00  0.00    +0.000 Cl
ATOM     31  C   UNL     1      -2.164  12.731  23.328  0.00  0.00    +0.000 A 
ATOM     32  C   UNL     1      -1.433  12.834  22.140  0.00  0.00    +0.000 A 
ENDBRANCH  25  26
ENDBRANCH  24  25
ENDBRANCH   8  20
TORSDOF 5
ENDMDL
MODEL 4
REMARK VINA RESULT:      -8.7      5.926     10.604
REMARK  Name = 
REMARK  5 active torsions:
REMARK  status: ('A' for Active; 'I' for Inactive)
REMARK    1  A    between atoms: N_3  and  C_4
REMARK    2  A    between atoms: C_7  and  C_8
REMARK    3  A    between atoms: C_18  and  C_19
REMARK    4  A    between atoms: N_23  and  C_24
REMARK    5  A    between atoms: C_24  and  C_25
REMARK                            x       y       z     vdW  Elec       q    Type
REMARK                         _______ _______ _______ _____ _____    ______ ____
ROOT
ATOM      1  O   UNL     1       2.260   9.275  17.576  0.00  0.00    +0.000 OA
ATOM      2  C   UNL     1       2.034   8.562  18.549  0.00  0.00    +0.000 C 
ATOM      3  N   UNL     1       2.533   7.287  18.710  0.00  0.00    +0.000 N 
ATOM      4  N   UNL     1       1.234   9.028  19.572  0.00  0.00    +0.000 N 
ATOM      5  C   UNL     1       1.103   8.418  20.890  0.00  0.00    +0.000 C 
ATOM      6  C   UNL     1       0.003   9.215  21.556  0.00  0.00    +0.000 C 
ATOM      7  C   UNL     1       0.285  10.629  21.056  0.00  0.00    +0.000 C 
ATOM      8  C   UNL     1       0.770  10.430  19.597  0.00  0.00    +0.000 C 
ATOM      9  H   UNL     1       2.117   6.731  19.439  0.00  0.00    +0.000 HD
ENDROOT
BRANCH   3  10
ATOM     10  C   UNL     1       3.418   6.588  17.851  0.00  0.00    +0.000 A 
ATOM     11  C   UNL     1       4.428   7.202  17.111  0.00  0.00    +0.000 A 
ATOM     12  C   UNL     1       5.229   6.463  16.231  0.00  0.00    +0.000 A 
ATOM     13  C   UNL     1       5.045   5.084  16.079  0.00  0.00    +0.000 A 
ATOM     14  C   UNL     1       4.069   4.454  16.863  0.00  0.00    +0.000 A 
ATOM     15  C   UNL     1       3.266   5.198  17.740  0.00  0.00    +0.000 A 
BRANCH  13  16
ATOM     16  C   UNL     1       5.861   4.292  15.085  0.00  0.00    +0.000 C 
ATOM     17  F   UNL     1       6.087   3.003  15.467  0.00  0.00    +0.000 F 
ATOM     18  F   UNL     1       5.273   4.221  13.860  0.00  0.00    +0.000 F 
ATOM     19  F   UNL     1       7.094   4.836  14.877  0.00  0.00    +0.000 F 
ENDBRANCH  13  16
ENDBRANCH   3  10
BRANCH   8  20
ATOM     20  C   UNL     1      -0.351  10.713  18.637  0.00  0.00    +0.000 A 
ATOM     21  N   UNL     1      -1.086   9.793  18.032  0.00  0.00    +0.000 NA
ATOM     22  N   UNL     1      -2.094  10.446  17.383  0.00  0.00    +0.000 NA
ATOM     23  N   UNL     1      -1.992  11.753  17.546  0.00  0.00    +0.000 NA
ATOM     24  N   UNL     1      -0.918  11.940  18.343  0.00  0.00    +0.000 N 
BRANCH  24  25
ATOM     25  C   UNL     1      -0.480  13.298  18.625  0.00  0.00    +0.000 C 
BRANCH  25  26
ATOM     26  C   UNL     1      -0.756  13.842  20.022  0.00  0.00    +0.000 A 
ATOM     27  C   UNL     1      -2.016  13.858  20.636  0.00  0.00    +0.000 A 
ATOM     28  C   UNL     1      -2.155  14.236  21.978  0.00  0.00    +0.000 A 
ATOM     29  C   UNL     1      -1.037  14.605  22.722  0.00  0.00    +0.000 A 
ATOM     30 CL   UNL     1      -1.200  14.969  24.395  0.00  0.00    +0.000 Cl
ATOM     31  C   UNL     1       0.216  14.653  22.121  0.00  0.00    +0.000 A 
ATOM     32  C   UNL     1       0.352  14.279  20.780  0.00  0.00    +0.000 A 
ENDBRANCH  25  26
ENDBRANCH  24  25
ENDBRANCH   8  20
TORSDOF 5
ENDMDL
MODEL 5
REMARK VINA RESULT:      -8.7      0.800      1.376
REMARK  Name = 
REMARK  5 active torsions:
REMARK  status: ('A' for Active; 'I' for Inactive)
REMARK    1  A    between atoms: N_3  and  C_4
REMARK    2  A    between atoms: C_7  and  C_8
REMARK    3  A    between atoms: C_18  and  C_19
REMARK    4  A    between atoms: N_23  and  C_24
REMARK    5  A    between atoms: C_24  and  C_25
REMARK                            x       y       z     vdW  Elec       q    Type
REMARK                         _______ _______ _______ _____ _____    ______ ____
ROOT
ATOM      1  O   UNL     1       3.361   7.444  18.818  0.00  0.00    +0.000 OA
ATOM      2  C   UNL     1       2.866   6.661  19.622  0.00  0.00    +0.000 C 
ATOM      3  N   UNL     1       1.900   7.003  20.545  0.00  0.00    +0.000 N 
ATOM      4  N   UNL     1       3.271   5.343  19.638  0.00  0.00    +0.000 N 
ATOM      5  C   UNL     1       2.593   4.255  20.332  0.00  0.00    +0.000 C 
ATOM      6  C   UNL     1       3.522   3.074  20.163  0.00  0.00    +0.000 C 
ATOM      7  C   UNL     1       4.040   3.275  18.741  0.00  0.00    +0.000 C 
ATOM      8  C   UNL     1       4.178   4.814  18.599  0.00  0.00    +0.000 C 
ATOM      9  H   UNL     1       1.724   6.336  21.278  0.00  0.00    +0.000 HD
ENDROOT
BRANCH   3  10
ATOM     10  C   UNL     1       1.266   8.260  20.711  0.00  0.00    +0.000 A 
ATOM     11  C   UNL     1       0.909   8.791  21.951  0.00  0.00    +0.000 A 
ATOM     12  C   UNL     1       0.227  10.011  22.044  0.00  0.00    +0.000 A 
ATOM     13  C   UNL     1      -0.104  10.738  20.894  0.00  0.00    +0.000 A 
ATOM     14  C   UNL     1       0.304  10.236  19.651  0.00  0.00    +0.000 A 
ATOM     15  C   UNL     1       0.983   9.011  19.562  0.00  0.00    +0.000 A 
BRANCH  13  16
ATOM     16  C   UNL     1      -0.895  12.022  20.982  0.00  0.00    +0.000 C 
ATOM     17  F   UNL     1      -2.178  11.905  20.538  0.00  0.00    +0.000 F 
ATOM     18  F   UNL     1      -0.982  12.498  22.254  0.00  0.00    +0.000 F 
ATOM     19  F   UNL     1      -0.338  13.024  20.245  0.00  0.00    +0.000 F 
ENDBRANCH  13  16
ENDBRANCH   3  10
BRANCH   8  20
ATOM     20  C   UNL     1       5.613   5.222  18.783  0.00  0.00    +0.000 A 
ATOM     21  N   UNL     1       6.328   5.019  19.878  0.00  0.00    +0.000 NA
ATOM     22  N   UNL     1       7.614   5.378  19.591  0.00  0.00    +0.000 NA
ATOM     23  N   UNL     1       7.715   5.822  18.352  0.00  0.00    +0.000 NA
ATOM     24  N   UNL     1       6.477   5.717  17.823  0.00  0.00    +0.000 N 
BRANCH  24  25
ATOM     25  C   UNL     1       6.240   6.231  16.482  0.00  0.00    +0.000 C 
BRANCH  25  26
ATOM     26  C   UNL     1       6.217   5.219  15.343  0.00  0.00    +0.000 A 
ATOM     27  C   UNL     1       5.180   4.304  15.112  0.00  0.00    +0.000 A 
ATOM     28  C   UNL     1       5.168   3.512  13.956  0.00  0.00    +0.000 A 
ATOM     29  C   UNL     1       6.192   3.623  13.019  0.00  0.00    +0.000 A 
ATOM     30 CL   UNL     1       6.118   2.722  11.555  0.00  0.00    +0.000 Cl
ATOM     31  C   UNL     1       7.262   4.480  13.253  0.00  0.00    +0.000 A 
ATOM     32  C   UNL     1       7.275   5.267  14.409  0.00  0.00    +0.000 A 
ENDBRANCH  25  26
ENDBRANCH  24  25
ENDBRANCH   8  20
TORSDOF 5
ENDMDL
MODEL 6
REMARK VINA RESULT:      -8.7      6.117     10.876
REMARK  Name = 
REMARK  5 active torsions:
REMARK  status: ('A' for Active; 'I' for Inactive)
REMARK    1  A    between atoms: N_3  and  C_4
REMARK    2  A    between atoms: C_7  and  C_8
REMARK    3  A    between atoms: C_18  and  C_19
REMARK    4  A    between atoms: N_23  and  C_24
REMARK    5  A    between atoms: C_24  and  C_25
REMARK                            x       y       z     vdW  Elec       q    Type
REMARK                         _______ _______ _______ _____ _____    ______ ____
ROOT
ATOM      1  O   UNL     1       2.226   9.154  17.561  0.00  0.00    +0.000 OA
ATOM      2  C   UNL     1       2.070   8.441  18.547  0.00  0.00    +0.000 C 
ATOM      3  N   UNL     1       2.634   7.193  18.700  0.00  0.00    +0.000 N 
ATOM      4  N   UNL     1       1.286   8.878  19.595  0.00  0.00    +0.000 N 
ATOM      5  C   UNL     1       1.232   8.276  20.921  0.00  0.00    +0.000 C 
ATOM      6  C   UNL     1       0.120   9.026  21.621  0.00  0.00    +0.000 C 
ATOM      7  C   UNL     1       0.316  10.447  21.100  0.00  0.00    +0.000 C 
ATOM      8  C   UNL     1       0.757  10.257  19.625  0.00  0.00    +0.000 C 
ATOM      9  H   UNL     1       2.272   6.624  19.448  0.00  0.00    +0.000 HD
ENDROOT
BRANCH   3  10
ATOM     10  C   UNL     1       3.520   6.528  17.815  0.00  0.00    +0.000 A 
ATOM     11  C   UNL     1       4.443   7.185  17.001  0.00  0.00    +0.000 A 
ATOM     12  C   UNL     1       5.246   6.475  16.100  0.00  0.00    +0.000 A 
ATOM     13  C   UNL     1       5.154   5.082  16.001  0.00  0.00    +0.000 A 
ATOM     14  C   UNL     1       4.269   4.412  16.858  0.00  0.00    +0.000 A 
ATOM     15  C   UNL     1       3.462   5.128  17.755  0.00  0.00    +0.000 A 
BRANCH  13  16
ATOM     16  C   UNL     1       5.970   4.315  14.988  0.00  0.00    +0.000 C 
ATOM     17  F   UNL     1       5.392   4.252  13.755  0.00  0.00    +0.000 F 
ATOM     18  F   UNL     1       7.206   4.851  14.794  0.00  0.00    +0.000 F 
ATOM     19  F   UNL     1       6.179   3.021  15.364  0.00  0.00    +0.000 F 
ENDBRANCH  13  16
ENDBRANCH   3  10
BRANCH   8  20
ATOM     20  C   UNL     1      -0.411  10.477  18.705  0.00  0.00    +0.000 A 
ATOM     21  N   UNL     1      -0.749   9.683  17.701  0.00  0.00    +0.000 NA
ATOM     22  N   UNL     1      -1.947  10.130  17.222  0.00  0.00    +0.000 NA
ATOM     23  N   UNL     1      -2.353  11.197  17.885  0.00  0.00    +0.000 NA
ATOM     24  N   UNL     1      -1.414  11.421  18.830  0.00  0.00    +0.000 N 
BRANCH  24  25
ATOM     25  C   UNL     1      -1.528  12.605  19.666  0.00  0.00    +0.000 C 
BRANCH  25  26
ATOM     26  C   UNL     1      -2.572  12.575  20.776  0.00  0.00    +0.000 A 
ATOM     27  C   UNL     1      -2.286  12.362  22.132  0.00  0.00    +0.000 A 
ATOM     28  C   UNL     1      -3.286  12.500  23.105  0.00  0.00    +0.000 A 
ATOM     29  C   UNL     1      -4.582  12.848  22.734  0.00  0.00    +0.000 A 
ATOM     30 CL   UNL     1      -5.778  13.114  23.942  0.00  0.00    +0.000 Cl
ATOM     31  C   UNL     1      -4.905  13.007  21.392  0.00  0.00    +0.000 A 
ATOM     32  C   UNL     1      -3.908  12.865  20.421  0.00  0.00    +0.000 A 
ENDBRANCH  25  26
ENDBRANCH  24  25
ENDBRANCH   8  20
TORSDOF 5
ENDMDL
MODEL 7
REMARK VINA RESULT:      -8.6      5.561      9.615
REMARK  Name = 
REMARK  5 active torsions:
REMARK  status: ('A' for Active; 'I' for Inactive)
REMARK    1  A    between atoms: N_3  and  C_4
REMARK    2  A    between atoms: C_7  and  C_8
REMARK    3  A    between atoms: C_18  and  C_19
REMARK    4  A    between atoms: N_23  and  C_24
REMARK    5  A    between atoms: C_24  and  C_25
REMARK                            x       y       z     vdW  Elec       q    Type
REMARK                         _______ _______ _______ _____ _____    ______ ____
ROOT
ATOM      1  O   UNL     1       2.342   9.281  17.692  0.00  0.00    +0.000 OA
ATOM      2  C   UNL     1       2.063   8.532  18.623  0.00  0.00    +0.000 C 
ATOM      3  N   UNL     1       2.518   7.236  18.740  0.00  0.00    +0.000 N 
ATOM      4  N   UNL     1       1.243   8.974  19.640  0.00  0.00    +0.000 N 
ATOM      5  C   UNL     1       1.049   8.309  20.922  0.00  0.00    +0.000 C 
ATOM      6  C   UNL     1      -0.049   9.107  21.589  0.00  0.00    +0.000 C 
ATOM      7  C   UNL     1       0.291  10.534  21.166  0.00  0.00    +0.000 C 
ATOM      8  C   UNL     1       0.819  10.387  19.715  0.00  0.00    +0.000 C 
ATOM      9  H   UNL     1       2.062   6.660  19.427  0.00  0.00    +0.000 HD
ENDROOT
BRANCH   3  10
ATOM     10  C   UNL     1       3.411   6.550  17.878  0.00  0.00    +0.000 A 
ATOM     11  C   UNL     1       4.422   7.177  17.149  0.00  0.00    +0.000 A 
ATOM     12  C   UNL     1       5.231   6.452  16.265  0.00  0.00    +0.000 A 
ATOM     13  C   UNL     1       5.055   5.073  16.099  0.00  0.00    +0.000 A 
ATOM     14  C   UNL     1       4.079   4.430  16.871  0.00  0.00    +0.000 A 
ATOM     15  C   UNL     1       3.267   5.161  17.752  0.00  0.00    +0.000 A 
BRANCH  13  16
ATOM     16  C   UNL     1       5.880   4.295  15.100  0.00  0.00    +0.000 C 
ATOM     17  F   UNL     1       5.313   4.219  13.863  0.00  0.00    +0.000 F 
ATOM     18  F   UNL     1       7.117   4.830  14.911  0.00  0.00    +0.000 F 
ATOM     19  F   UNL     1       6.086   3.006  15.493  0.00  0.00    +0.000 F 
ENDBRANCH  13  16
ENDBRANCH   3  10
BRANCH   8  20
ATOM     20  C   UNL     1      -0.261  10.748  18.733  0.00  0.00    +0.000 A 
ATOM     21  N   UNL     1      -0.935   9.884  17.991  0.00  0.00    +0.000 NA
ATOM     22  N   UNL     1      -1.929  10.581  17.366  0.00  0.00    +0.000 NA
ATOM     23  N   UNL     1      -1.876  11.863  17.679  0.00  0.00    +0.000 NA
ATOM     24  N   UNL     1      -0.850  11.985  18.548  0.00  0.00    +0.000 N 
BRANCH  24  25
ATOM     25  C   UNL     1      -0.470  13.314  19.003  0.00  0.00    +0.000 C 
BRANCH  25  26
ATOM     26  C   UNL     1       1.020  13.600  19.149  0.00  0.00    +0.000 A 
ATOM     27  C   UNL     1       1.944  13.567  18.095  0.00  0.00    +0.000 A 
ATOM     28  C   UNL     1       3.266  13.989  18.287  0.00  0.00    +0.000 A 
ATOM     29  C   UNL     1       3.681  14.446  19.535  0.00  0.00    +0.000 A 
ATOM     30 CL   UNL     1       5.276  15.059  19.738  0.00  0.00    +0.000 Cl
ATOM     31  C   UNL     1       2.801  14.434  20.611  0.00  0.00    +0.000 A 
ATOM     32  C   UNL     1       1.483  14.009  20.419  0.00  0.00    +0.000 A 
ENDBRANCH  25  26
ENDBRANCH  24  25
ENDBRANCH   8  20
TORSDOF 5
ENDMDL
MODEL 8
REMARK VINA RESULT:      -8.5      6.016     10.781
REMARK  Name = 
REMARK  5 active torsions:
REMARK  status: ('A' for Active; 'I' for Inactive)
REMARK    1  A    between atoms: N_3  and  C_4
REMARK    2  A    between atoms: C_7  and  C_8
REMARK    3  A    between atoms: C_18  and  C_19
REMARK    4  A    between atoms: N_23  and  C_24
REMARK    5  A    between atoms: C_24  and  C_25
REMARK                            x       y       z     vdW  Elec       q    Type
REMARK                         _______ _______ _______ _____ _____    ______ ____
ROOT
ATOM      1  O   UNL     1       2.280   9.231  17.530  0.00  0.00    +0.000 OA
ATOM      2  C   UNL     1       2.060   8.528  18.511  0.00  0.00    +0.000 C 
ATOM      3  N   UNL     1       2.570   7.259  18.687  0.00  0.00    +0.000 N 
ATOM      4  N   UNL     1       1.255   8.998  19.527  0.00  0.00    +0.000 N 
ATOM      5  C   UNL     1       1.128   8.402  20.852  0.00  0.00    +0.000 C 
ATOM      6  C   UNL     1       0.020   9.196  21.508  0.00  0.00    +0.000 C 
ATOM      7  C   UNL     1       0.290  10.607  20.993  0.00  0.00    +0.000 C 
ATOM      8  C   UNL     1       0.778  10.396  19.536  0.00  0.00    +0.000 C 
ATOM      9  H   UNL     1       2.158   6.707  19.421  0.00  0.00    +0.000 HD
ENDROOT
BRANCH   3  10
ATOM     10  C   UNL     1       3.462   6.558  17.836  0.00  0.00    +0.000 A 
ATOM     11  C   UNL     1       4.486   7.169  17.112  0.00  0.00    +0.000 A 
ATOM     12  C   UNL     1       5.294   6.429  16.239  0.00  0.00    +0.000 A 
ATOM     13  C   UNL     1       5.103   5.052  16.079  0.00  0.00    +0.000 A 
ATOM     14  C   UNL     1       4.114   4.424  16.847  0.00  0.00    +0.000 A 
ATOM     15  C   UNL     1       3.303   5.170  17.717  0.00  0.00    +0.000 A 
BRANCH  13  16
ATOM     16  C   UNL     1       5.928   4.259  15.092  0.00  0.00    +0.000 C 
ATOM     17  F   UNL     1       5.384   4.206  13.843  0.00  0.00    +0.000 F 
ATOM     18  F   UNL     1       7.182   4.762  14.932  0.00  0.00    +0.000 F 
ATOM     19  F   UNL     1       6.092   2.962  15.479  0.00  0.00    +0.000 F 
ENDBRANCH  13  16
ENDBRANCH   3  10
BRANCH   8  20
ATOM     20  C   UNL     1      -0.344  10.658  18.572  0.00  0.00    +0.000 A 
ATOM     21  N   UNL     1      -0.895   9.751  17.780  0.00  0.00    +0.000 NA
ATOM     22  N   UNL     1      -1.978  10.338  17.190  0.00  0.00    +0.000 NA
ATOM     23  N   UNL     1      -2.102  11.595  17.575  0.00  0.00    +0.000 NA
ATOM     24  N   UNL     1      -1.099  11.810  18.454  0.00  0.00    +0.000 N 
BRANCH  24  25
ATOM     25  C   UNL     1      -0.906  13.151  18.983  0.00  0.00    +0.000 C 
BRANCH  25  26
ATOM     26  C   UNL     1      -1.604  13.488  20.296  0.00  0.00    +0.000 A 
ATOM     27  C   UNL     1      -2.570  12.682  20.913  0.00  0.00    +0.000 A 
ATOM     28  C   UNL     1      -3.050  12.991  22.193  0.00  0.00    +0.000 A 
ATOM     29  C   UNL     1      -2.574  14.112  22.868  0.00  0.00    +0.000 A 
ATOM     30 CL   UNL     1      -3.092  14.429  24.478  0.00  0.00    +0.000 Cl
ATOM     31  C   UNL     1      -1.659  14.960  22.255  0.00  0.00    +0.000 A 
ATOM     32  C   UNL     1      -1.183  14.652  20.976  0.00  0.00    +0.000 A 
ENDBRANCH  25  26
ENDBRANCH  24  25
ENDBRANCH   8  20
TORSDOF 5
ENDMDL
MODEL 9
REMARK VINA RESULT:      -8.5      6.022     10.797
REMARK  Name = 
REMARK  5 active torsions:
REMARK  status: ('A' for Active; 'I' for Inactive)
REMARK    1  A    between atoms: N_3  and  C_4
REMARK    2  A    between atoms: C_7  and  C_8
REMARK    3  A    between atoms: C_18  and  C_19
REMARK    4  A    between atoms: N_23  and  C_24
REMARK    5  A    between atoms: C_24  and  C_25
REMARK                            x       y       z     vdW  Elec       q    Type
REMARK                         _______ _______ _______ _____ _____    ______ ____
ROOT
ATOM      1  O   UNL     1       2.303   9.110  17.661  0.00  0.00    +0.000 OA
ATOM      2  C   UNL     1       2.101   8.382  18.628  0.00  0.00    +0.000 C 
ATOM      3  N   UNL     1       2.612   7.108  18.761  0.00  0.00    +0.000 N 
ATOM      4  N   UNL     1       1.319   8.827  19.673  0.00  0.00    +0.000 N 
ATOM      5  C   UNL     1       1.218   8.197  20.984  0.00  0.00    +0.000 C 
ATOM      6  C   UNL     1       0.125   8.976  21.683  0.00  0.00    +0.000 C 
ATOM      7  C   UNL     1       0.387  10.399  21.199  0.00  0.00    +0.000 C 
ATOM      8  C   UNL     1       0.845  10.225  19.727  0.00  0.00    +0.000 C 
ATOM      9  H   UNL     1       2.214   6.538  19.489  0.00  0.00    +0.000 HD
ENDROOT
BRANCH   3  10
ATOM     10  C   UNL     1       3.485   6.428  17.874  0.00  0.00    +0.000 A 
ATOM     11  C   UNL     1       3.403   5.062  17.602  0.00  0.00    +0.000 A 
ATOM     12  C   UNL     1       4.335   4.436  16.765  0.00  0.00    +0.000 A 
ATOM     13  C   UNL     1       5.368   5.167  16.168  0.00  0.00    +0.000 A 
ATOM     14  C   UNL     1       5.420   6.550  16.393  0.00  0.00    +0.000 A 
ATOM     15  C   UNL     1       4.487   7.172  17.237  0.00  0.00    +0.000 A 
BRANCH  13  16
ATOM     16  C   UNL     1       6.415   4.489  15.315  0.00  0.00    +0.000 C 
ATOM     17  F   UNL     1       6.076   3.223  14.938  0.00  0.00    +0.000 F 
ATOM     18  F   UNL     1       6.673   5.165  14.163  0.00  0.00    +0.000 F 
ATOM     19  F   UNL     1       7.612   4.375  15.958  0.00  0.00    +0.000 F 
ENDBRANCH  13  16
ENDBRANCH   3  10
BRANCH   8  20
ATOM     20  C   UNL     1      -0.297  10.514  18.793  0.00  0.00    +0.000 A 
ATOM     21  N   UNL     1      -0.709   9.711  17.825  0.00  0.00    +0.000 NA
ATOM     22  N   UNL     1      -1.860  10.248  17.322  0.00  0.00    +0.000 NA
ATOM     23  N   UNL     1      -2.162  11.378  17.935  0.00  0.00    +0.000 NA
ATOM     24  N   UNL     1      -1.206  11.553  18.872  0.00  0.00    +0.000 N 
BRANCH  24  25
ATOM     25  C   UNL     1      -1.206  12.779  19.655  0.00  0.00    +0.000 C 
BRANCH  25  26
ATOM     26  C   UNL     1      -2.265  12.909  20.744  0.00  0.00    +0.000 A 
ATOM     27  C   UNL     1      -3.630  13.117  20.505  0.00  0.00    +0.000 A 
ATOM     28  C   UNL     1      -4.557  13.073  21.556  0.00  0.00    +0.000 A 
ATOM     29  C   UNL     1      -4.128  12.825  22.858  0.00  0.00    +0.000 A 
ATOM     30 CL   UNL     1      -5.281  12.672  24.126  0.00  0.00    +0.000 Cl
ATOM     31  C   UNL     1      -2.774  12.674  23.130  0.00  0.00    +0.000 A 
ATOM     32  C   UNL     1      -1.850  12.721  22.080  0.00  0.00    +0.000 A 
ENDBRANCH  25  26
ENDBRANCH  24  25
ENDBRANCH   8  20
TORSDOF 5
ENDMDL
