MODEL 1
REMARK VINA RESULT:      -8.0      0.000      0.000
REMARK  Name = 
REMARK  5 active torsions:
REMARK  status: ('A' for Active; 'I' for Inactive)
REMARK    1  A    between atoms: C_6  and  N_7
REMARK    2  A    between atoms: C_8  and  C_9
REMARK    3  A    between atoms: C_15  and  C_16
REMARK    4  A    between atoms: N_24  and  N_25
REMARK    5  A    between atoms: C_26  and  C_27
REMARK                            x       y       z     vdW  Elec       q    Type
REMARK                         _______ _______ _______ _____ _____    ______ ____
ROOT
ATOM      1  N   UNL     1      -2.724  12.801  20.936  0.00  0.00    +0.000 N 
ATOM      2  C   UNL     1      -3.369  12.317  19.778  0.00  0.00    +0.000 A 
ATOM      3  C   UNL     1      -2.360  11.796  18.936  0.00  0.00    +0.000 A 
ATOM      4  C   UNL     1      -1.084  12.005  19.576  0.00  0.00    +0.000 A 
ATOM      5  C   UNL     1       0.284  11.737  19.301  0.00  0.00    +0.000 A 
ATOM      6  N   UNL     1       0.758  11.239  18.073  0.00  0.00    +0.000 N 
ATOM      7  N   UNL     1       1.198  12.010  20.270  0.00  0.00    +0.000 NA
ATOM      8  C   UNL     1       0.800  12.556  21.418  0.00  0.00    +0.000 A 
ATOM      9  N   UNL     1      -0.441  12.891  21.758  0.00  0.00    +0.000 NA
ATOM     10  C   UNL     1      -1.351  12.601  20.804  0.00  0.00    +0.000 A 
ATOM     11  H   UNL     1       0.057  11.163  17.343  0.00  0.00    +0.000 HD
ENDROOT
BRANCH   1  17
ATOM     12 CL   UNL     1      -4.260  17.019  23.493  0.00  0.00    +0.000 Cl
ATOM     13  C   UNL     1      -4.065  15.313  23.370  0.00  0.00    +0.000 A 
ATOM     14  C   UNL     1      -4.397  14.503  24.448  0.00  0.00    +0.000 A 
ATOM     15  C   UNL     1      -4.220  13.122  24.358  0.00  0.00    +0.000 A 
ATOM     16  C   UNL     1      -3.688  12.562  23.191  0.00  0.00    +0.000 A 
ATOM     17  C   UNL     1      -3.333  13.382  22.106  0.00  0.00    +0.000 A 
ATOM     18  C   UNL     1      -3.559  14.762  22.191  0.00  0.00    +0.000 A 
ENDBRANCH   1  17
BRANCH   2  19
ATOM     19  C   UNL     1      -4.833  12.426  19.547  0.00  0.00    +0.000 A 
ATOM     20  C   UNL     1      -5.677  11.306  19.649  0.00  0.00    +0.000 A 
ATOM     21  C   UNL     1      -7.043  11.404  19.368  0.00  0.00    +0.000 A 
ATOM     22  C   UNL     1      -7.606  12.640  19.066  0.00  0.00    +0.000 A 
ATOM     23  C   UNL     1      -6.798  13.771  19.016  0.00  0.00    +0.000 A 
ATOM     24  C   UNL     1      -5.419  13.659  19.219  0.00  0.00    +0.000 A 
ENDBRANCH   2  19
BRANCH   3  25
ATOM     25  C   UNL     1      -2.635  11.125  17.652  0.00  0.00    +0.000 A 
ATOM     26  C   UNL     1      -3.484  11.687  16.687  0.00  0.00    +0.000 A 
ATOM     27  C   UNL     1      -3.831  10.977  15.532  0.00  0.00    +0.000 A 
ATOM     28  C   UNL     1      -3.255   9.737  15.275  0.00  0.00    +0.000 A 
ATOM     29  C   UNL     1      -2.358   9.191  16.189  0.00  0.00    +0.000 A 
ATOM     30  C   UNL     1      -2.085   9.861  17.386  0.00  0.00    +0.000 A 
ENDBRANCH   3  25
BRANCH   6  31
ATOM     31  N   UNL     1       1.766  10.316  18.130  0.00  0.00    +0.000 NA
ATOM     32  C   UNL     1       1.376   9.106  18.380  0.00  0.00    +0.000 C 
BRANCH  32  33
ATOM     33  C   UNL     1       2.320   7.974  18.456  0.00  0.00    +0.000 A 
ATOM     34  C   UNL     1       3.279   7.757  17.462  0.00  0.00    +0.000 A 
ATOM     35  C   UNL     1       4.142   6.662  17.556  0.00  0.00    +0.000 A 
ATOM     36  C   UNL     1       4.045   5.786  18.638  0.00  0.00    +0.000 A 
ATOM     37  C   UNL     1       3.090   6.004  19.631  0.00  0.00    +0.000 A 
ATOM     38  C   UNL     1       2.229   7.100  19.545  0.00  0.00    +0.000 A 
ENDBRANCH  32  33
ENDBRANCH   6  31
TORSDOF 5
ENDMDL
MODEL 2
REMARK VINA RESULT:      -8.0      0.175      1.131
REMARK  Name = 
REMARK  5 active torsions:
REMARK  status: ('A' for Active; 'I' for Inactive)
REMARK    1  A    between atoms: C_6  and  N_7
REMARK    2  A    between atoms: C_8  and  C_9
REMARK    3  A    between atoms: C_15  and  C_16
REMARK    4  A    between atoms: N_24  and  N_25
REMARK    5  A    between atoms: C_26  and  C_27
REMARK                            x       y       z     vdW  Elec       q    Type
REMARK                         _______ _______ _______ _____ _____    ______ ____
ROOT
ATOM      1  N   UNL     1      -2.826  12.936  20.882  0.00  0.00    +0.000 N 
ATOM      2  C   UNL     1      -3.465  12.385  19.751  0.00  0.00    +0.000 A 
ATOM      3  C   UNL     1      -2.449  11.835  18.937  0.00  0.00    +0.000 A 
ATOM      4  C   UNL     1      -1.176  12.093  19.565  0.00  0.00    +0.000 A 
ATOM      5  C   UNL     1       0.196  11.830  19.303  0.00  0.00    +0.000 A 
ATOM      6  N   UNL     1       0.676  11.275  18.102  0.00  0.00    +0.000 N 
ATOM      7  N   UNL     1       1.106  12.164  20.256  0.00  0.00    +0.000 NA
ATOM      8  C   UNL     1       0.700  12.762  21.375  0.00  0.00    +0.000 A 
ATOM      9  N   UNL     1      -0.545  13.098  21.698  0.00  0.00    +0.000 NA
ATOM     10  C   UNL     1      -1.451  12.748  20.760  0.00  0.00    +0.000 A 
ATOM     11  H   UNL     1      -0.024  11.153  17.377  0.00  0.00    +0.000 HD
ENDROOT
BRANCH   1  17
ATOM     12 CL   UNL     1      -4.314  17.268  23.272  0.00  0.00    +0.000 Cl
ATOM     13  C   UNL     1      -4.155  15.556  23.208  0.00  0.00    +0.000 A 
ATOM     14  C   UNL     1      -4.524  14.789  24.305  0.00  0.00    +0.000 A 
ATOM     15  C   UNL     1      -4.376  13.402  24.264  0.00  0.00    +0.000 A 
ATOM     16  C   UNL     1      -3.836  12.793  23.126  0.00  0.00    +0.000 A 
ATOM     17  C   UNL     1      -3.443  13.569  22.021  0.00  0.00    +0.000 A 
ATOM     18  C   UNL     1      -3.640  14.955  22.057  0.00  0.00    +0.000 A 
ENDBRANCH   1  17
BRANCH   2  19
ATOM     19  C   UNL     1      -4.930  12.463  19.515  0.00  0.00    +0.000 A 
ATOM     20  C   UNL     1      -5.542  13.655  19.089  0.00  0.00    +0.000 A 
ATOM     21  C   UNL     1      -6.929  13.738  18.931  0.00  0.00    +0.000 A 
ATOM     22  C   UNL     1      -7.720  12.607  19.110  0.00  0.00    +0.000 A 
ATOM     23  C   UNL     1      -7.126  11.402  19.475  0.00  0.00    +0.000 A 
ATOM     24  C   UNL     1      -5.750  11.341  19.711  0.00  0.00    +0.000 A 
ENDBRANCH   2  19
BRANCH   3  25
ATOM     25  C   UNL     1      -2.715  11.095  17.689  0.00  0.00    +0.000 A 
ATOM     26  C   UNL     1      -2.120   9.854  17.419  0.00  0.00    +0.000 A 
ATOM     27  C   UNL     1      -2.287   9.229  16.178  0.00  0.00    +0.000 A 
ATOM     28  C   UNL     1      -3.134   9.787  15.224  0.00  0.00    +0.000 A 
ATOM     29  C   UNL     1      -3.786  10.985  15.498  0.00  0.00    +0.000 A 
ATOM     30  C   UNL     1      -3.544  11.654  16.703  0.00  0.00    +0.000 A 
ENDBRANCH   3  25
BRANCH   6  31
ATOM     31  N   UNL     1       1.696  10.370  18.206  0.00  0.00    +0.000 NA
ATOM     32  C   UNL     1       1.315   9.136  18.308  0.00  0.00    +0.000 C 
BRANCH  32  33
ATOM     33  C   UNL     1       2.275   8.019  18.407  0.00  0.00    +0.000 A 
ATOM     34  C   UNL     1       3.233   7.793  17.414  0.00  0.00    +0.000 A 
ATOM     35  C   UNL     1       4.111   6.713  17.530  0.00  0.00    +0.000 A 
ATOM     36  C   UNL     1       4.031   5.860  18.632  0.00  0.00    +0.000 A 
ATOM     37  C   UNL     1       3.076   6.087  19.623  0.00  0.00    +0.000 A 
ATOM     38  C   UNL     1       2.199   7.169  19.515  0.00  0.00    +0.000 A 
ENDBRANCH  32  33
ENDBRANCH   6  31
TORSDOF 5
ENDMDL
MODEL 3
REMARK VINA RESULT:      -8.0      0.873      1.418
REMARK  Name = 
REMARK  5 active torsions:
REMARK  status: ('A' for Active; 'I' for Inactive)
REMARK    1  A    between atoms: C_6  and  N_7
REMARK    2  A    between atoms: C_8  and  C_9
REMARK    3  A    between atoms: C_15  and  C_16
REMARK    4  A    between atoms: N_24  and  N_25
REMARK    5  A    between atoms: C_26  and  C_27
REMARK                            x       y       z     vdW  Elec       q    Type
REMARK                         _______ _______ _______ _____ _____    ______ ____
ROOT
ATOM      1  N   UNL     1      -2.696  12.802  20.753  0.00  0.00    +0.000 N 
ATOM      2  C   UNL     1      -3.333  12.277  19.608  0.00  0.00    +0.000 A 
ATOM      3  C   UNL     1      -2.317  11.730  18.791  0.00  0.00    +0.000 A 
ATOM      4  C   UNL     1      -1.046  11.965  19.432  0.00  0.00    +0.000 A 
ATOM      5  C   UNL     1       0.325  11.692  19.174  0.00  0.00    +0.000 A 
ATOM      6  N   UNL     1       0.807  11.153  17.966  0.00  0.00    +0.000 N 
ATOM      7  N   UNL     1       1.232  12.001  20.138  0.00  0.00    +0.000 NA
ATOM      8  C   UNL     1       0.825  12.585  21.264  0.00  0.00    +0.000 A 
ATOM      9  N   UNL     1      -0.419  12.928  21.585  0.00  0.00    +0.000 NA
ATOM     10  C   UNL     1      -1.322  12.602  20.636  0.00  0.00    +0.000 A 
ATOM     11  H   UNL     1       0.111  11.051  17.236  0.00  0.00    +0.000 HD
ENDROOT
BRANCH   1  17
ATOM     12 CL   UNL     1      -5.149  12.298  25.272  0.00  0.00    +0.000 Cl
ATOM     13  C   UNL     1      -4.479  13.264  24.015  0.00  0.00    +0.000 A 
ATOM     14  C   UNL     1      -4.631  14.645  24.054  0.00  0.00    +0.000 A 
ATOM     15  C   UNL     1      -4.107  15.429  23.025  0.00  0.00    +0.000 A 
ATOM     16  C   UNL     1      -3.452  14.819  21.950  0.00  0.00    +0.000 A 
ATOM     17  C   UNL     1      -3.314  13.422  21.899  0.00  0.00    +0.000 A 
ATOM     18  C   UNL     1      -3.803  12.649  22.960  0.00  0.00    +0.000 A 
ENDBRANCH   1  17
BRANCH   2  19
ATOM     19  C   UNL     1      -4.796  12.374  19.364  0.00  0.00    +0.000 A 
ATOM     20  C   UNL     1      -5.604  11.225  19.292  0.00  0.00    +0.000 A 
ATOM     21  C   UNL     1      -6.968  11.320  18.999  0.00  0.00    +0.000 A 
ATOM     22  C   UNL     1      -7.566  12.570  18.861  0.00  0.00    +0.000 A 
ATOM     23  C   UNL     1      -6.794  13.720  18.987  0.00  0.00    +0.000 A 
ATOM     24  C   UNL     1      -5.416  13.622  19.201  0.00  0.00    +0.000 A 
ENDBRANCH   2  19
BRANCH   3  25
ATOM     25  C   UNL     1      -2.583  11.015  17.529  0.00  0.00    +0.000 A 
ATOM     26  C   UNL     1      -2.122   9.710  17.304  0.00  0.00    +0.000 A 
ATOM     27  C   UNL     1      -2.276   9.096  16.055  0.00  0.00    +0.000 A 
ATOM     28  C   UNL     1      -2.983   9.740  15.044  0.00  0.00    +0.000 A 
ATOM     29  C   UNL     1      -3.505  11.010  15.269  0.00  0.00    +0.000 A 
ATOM     30  C   UNL     1      -3.269  11.658  16.487  0.00  0.00    +0.000 A 
ENDBRANCH   3  25
BRANCH   6  31
ATOM     31  N   UNL     1       1.818  10.236  18.061  0.00  0.00    +0.000 NA
ATOM     32  C   UNL     1       1.427   9.028  18.319  0.00  0.00    +0.000 C 
BRANCH  32  33
ATOM     33  C   UNL     1       2.374   7.901  18.435  0.00  0.00    +0.000 A 
ATOM     34  C   UNL     1       3.373   7.689  17.480  0.00  0.00    +0.000 A 
ATOM     35  C   UNL     1       4.238   6.599  17.610  0.00  0.00    +0.000 A 
ATOM     36  C   UNL     1       4.103   5.724  18.689  0.00  0.00    +0.000 A 
ATOM     37  C   UNL     1       3.108   5.938  19.642  0.00  0.00    +0.000 A 
ATOM     38  C   UNL     1       2.244   7.029  19.520  0.00  0.00    +0.000 A 
ENDBRANCH  32  33
ENDBRANCH   6  31
TORSDOF 5
ENDMDL
MODEL 4
REMARK VINA RESULT:      -8.0      0.918      1.640
REMARK  Name = 
REMARK  5 active torsions:
REMARK  status: ('A' for Active; 'I' for Inactive)
REMARK    1  A    between atoms: C_6  and  N_7
REMARK    2  A    between atoms: C_8  and  C_9
REMARK    3  A    between atoms: C_15  and  C_16
REMARK    4  A    between atoms: N_24  and  N_25
REMARK    5  A    between atoms: C_26  and  C_27
REMARK                            x       y       z     vdW  Elec       q    Type
REMARK                         _______ _______ _______ _____ _____    ______ ____
ROOT
ATOM      1  N   UNL     1      -2.721  12.794  20.690  0.00  0.00    +0.000 N 
ATOM      2  C   UNL     1      -3.321  12.286  19.518  0.00  0.00    +0.000 A 
ATOM      3  C   UNL     1      -2.281  11.737  18.732  0.00  0.00    +0.000 A 
ATOM      4  C   UNL     1      -1.032  11.953  19.420  0.00  0.00    +0.000 A 
ATOM      5  C   UNL     1       0.345  11.670  19.209  0.00  0.00    +0.000 A 
ATOM      6  N   UNL     1       0.865  11.138  18.015  0.00  0.00    +0.000 N 
ATOM      7  N   UNL     1       1.219  11.962  20.208  0.00  0.00    +0.000 NA
ATOM      8  C   UNL     1       0.778  12.538  21.325  0.00  0.00    +0.000 A 
ATOM      9  N   UNL     1      -0.474  12.890  21.604  0.00  0.00    +0.000 NA
ATOM     10  C   UNL     1      -1.345  12.582  20.621  0.00  0.00    +0.000 A 
ATOM     11  H   UNL     1       0.195  11.048  17.259  0.00  0.00    +0.000 HD
ENDROOT
BRANCH   1  17
ATOM     12 CL   UNL     1      -5.453  12.277  25.044  0.00  0.00    +0.000 Cl
ATOM     13  C   UNL     1      -4.665  13.246  23.860  0.00  0.00    +0.000 A 
ATOM     14  C   UNL     1      -4.753  14.630  23.935  0.00  0.00    +0.000 A 
ATOM     15  C   UNL     1      -4.134  15.418  22.964  0.00  0.00    +0.000 A 
ATOM     16  C   UNL     1      -3.447  14.809  21.908  0.00  0.00    +0.000 A 
ATOM     17  C   UNL     1      -3.374  13.409  21.819  0.00  0.00    +0.000 A 
ATOM     18  C   UNL     1      -3.960  12.630  22.825  0.00  0.00    +0.000 A 
ENDBRANCH   1  17
BRANCH   2  19
ATOM     19  C   UNL     1      -4.773  12.398  19.223  0.00  0.00    +0.000 A 
ATOM     20  C   UNL     1      -5.430  13.641  19.238  0.00  0.00    +0.000 A 
ATOM     21  C   UNL     1      -6.808  13.731  19.022  0.00  0.00    +0.000 A 
ATOM     22  C   UNL     1      -7.540  12.592  18.700  0.00  0.00    +0.000 A 
ATOM     23  C   UNL     1      -6.897  11.360  18.623  0.00  0.00    +0.000 A 
ATOM     24  C   UNL     1      -5.534  11.259  18.917  0.00  0.00    +0.000 A 
ENDBRANCH   2  19
BRANCH   3  25
ATOM     25  C   UNL     1      -2.508  11.035  17.455  0.00  0.00    +0.000 A 
ATOM     26  C   UNL     1      -2.886  11.718  16.290  0.00  0.00    +0.000 A 
ATOM     27  C   UNL     1      -3.217  11.021  15.122  0.00  0.00    +0.000 A 
ATOM     28  C   UNL     1      -3.079   9.637  15.072  0.00  0.00    +0.000 A 
ATOM     29  C   UNL     1      -2.643   8.947  16.199  0.00  0.00    +0.000 A 
ATOM     30  C   UNL     1      -2.401   9.637  17.392  0.00  0.00    +0.000 A 
ENDBRANCH   3  25
BRANCH   6  31
ATOM     31  N   UNL     1       1.863  10.210  18.137  0.00  0.00    +0.000 NA
ATOM     32  C   UNL     1       1.452   8.992  18.292  0.00  0.00    +0.000 C 
BRANCH  32  33
ATOM     33  C   UNL     1       2.384   7.854  18.418  0.00  0.00    +0.000 A 
ATOM     34  C   UNL     1       2.301   6.962  19.491  0.00  0.00    +0.000 A 
ATOM     35  C   UNL     1       3.215   5.909  19.590  0.00  0.00    +0.000 A 
ATOM     36  C   UNL     1       4.207   5.750  18.622  0.00  0.00    +0.000 A 
ATOM     37  C   UNL     1       4.287   6.639  17.550  0.00  0.00    +0.000 A 
ATOM     38  C   UNL     1       3.373   7.690  17.443  0.00  0.00    +0.000 A 
ENDBRANCH  32  33
ENDBRANCH   6  31
TORSDOF 5
ENDMDL
MODEL 5
REMARK VINA RESULT:      -8.0      0.224      1.130
REMARK  Name = 
REMARK  5 active torsions:
REMARK  status: ('A' for Active; 'I' for Inactive)
REMARK    1  A    between atoms: C_6  and  N_7
REMARK    2  A    between atoms: C_8  and  C_9
REMARK    3  A    between atoms: C_15  and  C_16
REMARK    4  A    between atoms: N_24  and  N_25
REMARK    5  A    between atoms: C_26  and  C_27
REMARK                            x       y       z     vdW  Elec       q    Type
REMARK                         _______ _______ _______ _____ _____    ______ ____
ROOT
ATOM      1  N   UNL     1      -2.700  12.845  20.852  0.00  0.00    +0.000 N 
ATOM      2  C   UNL     1      -3.349  12.322  19.714  0.00  0.00    +0.000 A 
ATOM      3  C   UNL     1      -2.342  11.766  18.890  0.00  0.00    +0.000 A 
ATOM      4  C   UNL     1      -1.065  11.995  19.522  0.00  0.00    +0.000 A 
ATOM      5  C   UNL     1       0.302  11.713  19.254  0.00  0.00    +0.000 A 
ATOM      6  N   UNL     1       0.772  11.167  18.045  0.00  0.00    +0.000 N 
ATOM      7  N   UNL     1       1.218  12.018  20.212  0.00  0.00    +0.000 NA
ATOM      8  C   UNL     1       0.823  12.607  21.339  0.00  0.00    +0.000 A 
ATOM      9  N   UNL     1      -0.416  12.958  21.668  0.00  0.00    +0.000 NA
ATOM     10  C   UNL     1      -1.328  12.637  20.727  0.00  0.00    +0.000 A 
ATOM     11  H   UNL     1       0.071  11.067  17.320  0.00  0.00    +0.000 HD
ENDROOT
BRANCH   1  17
ATOM     12 CL   UNL     1      -3.865  17.163  23.440  0.00  0.00    +0.000 Cl
ATOM     13  C   UNL     1      -3.874  15.450  23.276  0.00  0.00    +0.000 A 
ATOM     14  C   UNL     1      -4.371  14.663  24.308  0.00  0.00    +0.000 A 
ATOM     15  C   UNL     1      -4.359  13.273  24.187  0.00  0.00    +0.000 A 
ATOM     16  C   UNL     1      -3.828  12.678  23.038  0.00  0.00    +0.000 A 
ATOM     17  C   UNL     1      -3.306  13.472  22.001  0.00  0.00    +0.000 A 
ATOM     18  C   UNL     1      -3.366  14.867  22.114  0.00  0.00    +0.000 A 
ENDBRANCH   1  17
BRANCH   2  19
ATOM     19  C   UNL     1      -4.813  12.427  19.480  0.00  0.00    +0.000 A 
ATOM     20  C   UNL     1      -5.600  11.287  19.238  0.00  0.00    +0.000 A 
ATOM     21  C   UNL     1      -6.965  11.400  18.956  0.00  0.00    +0.000 A 
ATOM     22  C   UNL     1      -7.585  12.646  18.999  0.00  0.00    +0.000 A 
ATOM     23  C   UNL     1      -6.834  13.779  19.294  0.00  0.00    +0.000 A 
ATOM     24  C   UNL     1      -5.455  13.675  19.497  0.00  0.00    +0.000 A 
ENDBRANCH   2  19
BRANCH   3  25
ATOM     25  C   UNL     1      -2.621  11.050  17.632  0.00  0.00    +0.000 A 
ATOM     26  C   UNL     1      -2.367   9.678  17.486  0.00  0.00    +0.000 A 
ATOM     27  C   UNL     1      -2.521   9.045  16.248  0.00  0.00    +0.000 A 
ATOM     28  C   UNL     1      -3.028   9.750  15.161  0.00  0.00    +0.000 A 
ATOM     29  C   UNL     1      -3.349  11.097  15.303  0.00  0.00    +0.000 A 
ATOM     30  C   UNL     1      -3.107  11.750  16.516  0.00  0.00    +0.000 A 
ENDBRANCH   3  25
BRANCH   6  31
ATOM     31  N   UNL     1       1.778  10.244  18.135  0.00  0.00    +0.000 NA
ATOM     32  C   UNL     1       1.378   9.030  18.346  0.00  0.00    +0.000 C 
BRANCH  32  33
ATOM     33  C   UNL     1       2.318   7.897  18.449  0.00  0.00    +0.000 A 
ATOM     34  C   UNL     1       2.267   7.005  19.525  0.00  0.00    +0.000 A 
ATOM     35  C   UNL     1       3.187   5.956  19.601  0.00  0.00    +0.000 A 
ATOM     36  C   UNL     1       4.155   5.801  18.608  0.00  0.00    +0.000 A 
ATOM     37  C   UNL     1       4.204   6.689  17.534  0.00  0.00    +0.000 A 
ATOM     38  C   UNL     1       3.284   7.736  17.450  0.00  0.00    +0.000 A 
ENDBRANCH  32  33
ENDBRANCH   6  31
TORSDOF 5
ENDMDL
MODEL 6
REMARK VINA RESULT:      -8.0      0.112      1.127
REMARK  Name = 
REMARK  5 active torsions:
REMARK  status: ('A' for Active; 'I' for Inactive)
REMARK    1  A    between atoms: C_6  and  N_7
REMARK    2  A    between atoms: C_8  and  C_9
REMARK    3  A    between atoms: C_15  and  C_16
REMARK    4  A    between atoms: N_24  and  N_25
REMARK    5  A    between atoms: C_26  and  C_27
REMARK                            x       y       z     vdW  Elec       q    Type
REMARK                         _______ _______ _______ _____ _____    ______ ____
ROOT
ATOM      1  N   UNL     1      -2.664  12.746  20.967  0.00  0.00    +0.000 N 
ATOM      2  C   UNL     1      -3.325  12.288  19.808  0.00  0.00    +0.000 A 
ATOM      3  C   UNL     1      -2.329  11.762  18.952  0.00  0.00    +0.000 A 
ATOM      4  C   UNL     1      -1.046  11.943  19.586  0.00  0.00    +0.000 A 
ATOM      5  C   UNL     1       0.316  11.659  19.297  0.00  0.00    +0.000 A 
ATOM      6  N   UNL     1       0.773  11.169  18.059  0.00  0.00    +0.000 N 
ATOM      7  N   UNL     1       1.241  11.905  20.262  0.00  0.00    +0.000 NA
ATOM      8  C   UNL     1       0.859  12.441  21.420  0.00  0.00    +0.000 A 
ATOM      9  N   UNL     1      -0.374  12.791  21.774  0.00  0.00    +0.000 NA
ATOM     10  C   UNL     1      -1.295  12.528  20.823  0.00  0.00    +0.000 A 
ATOM     11  H   UNL     1       0.066  11.114  17.334  0.00  0.00    +0.000 HD
ENDROOT
BRANCH   1  17
ATOM     12 CL   UNL     1      -4.001  16.956  23.648  0.00  0.00    +0.000 Cl
ATOM     13  C   UNL     1      -3.897  15.247  23.469  0.00  0.00    +0.000 A 
ATOM     14  C   UNL     1      -4.288  14.422  24.516  0.00  0.00    +0.000 A 
ATOM     15  C   UNL     1      -4.185  13.037  24.381  0.00  0.00    +0.000 A 
ATOM     16  C   UNL     1      -3.669  12.488  23.203  0.00  0.00    +0.000 A 
ATOM     17  C   UNL     1      -3.255  13.322  22.150  0.00  0.00    +0.000 A 
ATOM     18  C   UNL     1      -3.407  14.708  22.278  0.00  0.00    +0.000 A 
ENDBRANCH   1  17
BRANCH   2  19
ATOM     19  C   UNL     1      -4.788  12.422  19.589  0.00  0.00    +0.000 A 
ATOM     20  C   UNL     1      -5.381  13.674  19.343  0.00  0.00    +0.000 A 
ATOM     21  C   UNL     1      -6.766  13.800  19.201  0.00  0.00    +0.000 A 
ATOM     22  C   UNL     1      -7.575  12.667  19.214  0.00  0.00    +0.000 A 
ATOM     23  C   UNL     1      -7.001  11.413  19.398  0.00  0.00    +0.000 A 
ATOM     24  C   UNL     1      -5.625  11.296  19.620  0.00  0.00    +0.000 A 
ENDBRANCH   2  19
BRANCH   3  25
ATOM     25  C   UNL     1      -2.624  11.113  17.662  0.00  0.00    +0.000 A 
ATOM     26  C   UNL     1      -3.490  11.689  16.720  0.00  0.00    +0.000 A 
ATOM     27  C   UNL     1      -3.854  10.998  15.559  0.00  0.00    +0.000 A 
ATOM     28  C   UNL     1      -3.279   9.764  15.272  0.00  0.00    +0.000 A 
ATOM     29  C   UNL     1      -2.368   9.204  16.162  0.00  0.00    +0.000 A 
ATOM     30  C   UNL     1      -2.076   9.854  17.366  0.00  0.00    +0.000 A 
ENDBRANCH   3  25
BRANCH   6  31
ATOM     31  N   UNL     1       1.767  10.231  18.097  0.00  0.00    +0.000 NA
ATOM     32  C   UNL     1       1.380   9.049  18.461  0.00  0.00    +0.000 C 
BRANCH  32  33
ATOM     33  C   UNL     1       2.309   7.904  18.538  0.00  0.00    +0.000 A 
ATOM     34  C   UNL     1       2.265   7.003  19.607  0.00  0.00    +0.000 A 
ATOM     35  C   UNL     1       3.174   5.943  19.658  0.00  0.00    +0.000 A 
ATOM     36  C   UNL     1       4.124   5.785  18.648  0.00  0.00    +0.000 A 
ATOM     37  C   UNL     1       4.165   6.683  17.580  0.00  0.00    +0.000 A 
ATOM     38  C   UNL     1       3.255   7.741  17.521  0.00  0.00    +0.000 A 
ENDBRANCH  32  33
ENDBRANCH   6  31
TORSDOF 5
ENDMDL
MODEL 7
REMARK VINA RESULT:      -7.6      0.903      1.207
REMARK  Name = 
REMARK  5 active torsions:
REMARK  status: ('A' for Active; 'I' for Inactive)
REMARK    1  A    between atoms: C_6  and  N_7
REMARK    2  A    between atoms: C_8  and  C_9
REMARK    3  A    between atoms: C_15  and  C_16
REMARK    4  A    between atoms: N_24  and  N_25
REMARK    5  A    between atoms: C_26  and  C_27
REMARK                            x       y       z     vdW  Elec       q    Type
REMARK                         _______ _______ _______ _____ _____    ______ ____
ROOT
ATOM      1  N   UNL     1      -3.443  12.902  20.967  0.00  0.00    +0.000 N 
ATOM      2  C   UNL     1      -3.866  12.436  19.704  0.00  0.00    +0.000 A 
ATOM      3  C   UNL     1      -2.764  11.763  19.127  0.00  0.00    +0.000 A 
ATOM      4  C   UNL     1      -1.648  11.860  20.037  0.00  0.00    +0.000 A 
ATOM      5  C   UNL     1      -0.296  11.427  20.088  0.00  0.00    +0.000 A 
ATOM      6  N   UNL     1       0.377  10.817  19.012  0.00  0.00    +0.000 N 
ATOM      7  N   UNL     1       0.404  11.645  21.233  0.00  0.00    +0.000 NA
ATOM      8  C   UNL     1      -0.172  12.288  22.246  0.00  0.00    +0.000 A 
ATOM      9  N   UNL     1      -1.408  12.777  22.286  0.00  0.00    +0.000 NA
ATOM     10  C   UNL     1      -2.110  12.543  21.157  0.00  0.00    +0.000 A 
ATOM     11  H   UNL     1      -0.146  10.784  18.144  0.00  0.00    +0.000 HD
ENDROOT
BRANCH   1  17
ATOM     12 CL   UNL     1      -4.534  17.315  23.421  0.00  0.00    +0.000 Cl
ATOM     13  C   UNL     1      -4.780  15.633  23.155  0.00  0.00    +0.000 A 
ATOM     14  C   UNL     1      -5.659  14.929  23.969  0.00  0.00    +0.000 A 
ATOM     15  C   UNL     1      -5.844  13.560  23.769  0.00  0.00    +0.000 A 
ATOM     16  C   UNL     1      -5.128  12.900  22.765  0.00  0.00    +0.000 A 
ATOM     17  C   UNL     1      -4.224  13.606  21.953  0.00  0.00    +0.000 A 
ATOM     18  C   UNL     1      -4.081  14.988  22.133  0.00  0.00    +0.000 A 
ENDBRANCH   1  17
BRANCH   2  19
ATOM     19  C   UNL     1      -5.217  12.696  19.142  0.00  0.00    +0.000 A 
ATOM     20  C   UNL     1      -6.044  11.646  18.707  0.00  0.00    +0.000 A 
ATOM     21  C   UNL     1      -7.287  11.903  18.121  0.00  0.00    +0.000 A 
ATOM     22  C   UNL     1      -7.764  13.208  18.040  0.00  0.00    +0.000 A 
ATOM     23  C   UNL     1      -6.985  14.257  18.518  0.00  0.00    +0.000 A 
ATOM     24  C   UNL     1      -5.709  14.006  19.031  0.00  0.00    +0.000 A 
ENDBRANCH   2  19
BRANCH   3  25
ATOM     25  C   UNL     1      -2.824  11.063  17.831  0.00  0.00    +0.000 A 
ATOM     26  C   UNL     1      -2.634  11.735  16.614  0.00  0.00    +0.000 A 
ATOM     27  C   UNL     1      -2.818  11.079  15.392  0.00  0.00    +0.000 A 
ATOM     28  C   UNL     1      -3.097   9.716  15.367  0.00  0.00    +0.000 A 
ATOM     29  C   UNL     1      -3.225   9.016  16.563  0.00  0.00    +0.000 A 
ATOM     30  C   UNL     1      -3.131   9.694  17.783  0.00  0.00    +0.000 A 
ENDBRANCH   3  25
BRANCH   6  31
ATOM     31  N   UNL     1       1.228   9.792  19.320  0.00  0.00    +0.000 NA
ATOM     32  C   UNL     1       1.486   8.991  18.335  0.00  0.00    +0.000 C 
BRANCH  32  33
ATOM     33  C   UNL     1       2.402   7.841  18.473  0.00  0.00    +0.000 A 
ATOM     34  C   UNL     1       2.303   6.958  19.553  0.00  0.00    +0.000 A 
ATOM     35  C   UNL     1       3.201   5.893  19.662  0.00  0.00    +0.000 A 
ATOM     36  C   UNL     1       4.194   5.712  18.698  0.00  0.00    +0.000 A 
ATOM     37  C   UNL     1       4.289   6.591  17.619  0.00  0.00    +0.000 A 
ATOM     38  C   UNL     1       3.391   7.654  17.502  0.00  0.00    +0.000 A 
ENDBRANCH  32  33
ENDBRANCH   6  31
TORSDOF 5
ENDMDL
MODEL 8
REMARK VINA RESULT:      -7.4      0.891      1.641
REMARK  Name = 
REMARK  5 active torsions:
REMARK  status: ('A' for Active; 'I' for Inactive)
REMARK    1  A    between atoms: C_6  and  N_7
REMARK    2  A    between atoms: C_8  and  C_9
REMARK    3  A    between atoms: C_15  and  C_16
REMARK    4  A    between atoms: N_24  and  N_25
REMARK    5  A    between atoms: C_26  and  C_27
REMARK                            x       y       z     vdW  Elec       q    Type
REMARK                         _______ _______ _______ _____ _____    ______ ____
ROOT
ATOM      1  N   UNL     1      -3.546  12.928  21.055  0.00  0.00    +0.000 N 
ATOM      2  C   UNL     1      -3.987  12.476  19.794  0.00  0.00    +0.000 A 
ATOM      3  C   UNL     1      -2.903  11.784  19.206  0.00  0.00    +0.000 A 
ATOM      4  C   UNL     1      -1.779  11.855  20.109  0.00  0.00    +0.000 A 
ATOM      5  C   UNL     1      -0.435  11.395  20.148  0.00  0.00    +0.000 A 
ATOM      6  N   UNL     1       0.218  10.777  19.065  0.00  0.00    +0.000 N 
ATOM      7  N   UNL     1       0.277  11.594  21.289  0.00  0.00    +0.000 NA
ATOM      8  C   UNL     1      -0.280  12.245  22.309  0.00  0.00    +0.000 A 
ATOM      9  N   UNL     1      -1.505  12.757  22.360  0.00  0.00    +0.000 NA
ATOM     10  C   UNL     1      -2.219  12.542  21.235  0.00  0.00    +0.000 A 
ATOM     11  H   UNL     1      -0.312  10.758  18.201  0.00  0.00    +0.000 HD
ENDROOT
BRANCH   1  17
ATOM     12 CL   UNL     1      -4.402  17.298  23.674  0.00  0.00    +0.000 Cl
ATOM     13  C   UNL     1      -4.757  15.650  23.326  0.00  0.00    +0.000 A 
ATOM     14  C   UNL     1      -5.707  14.977  24.083  0.00  0.00    +0.000 A 
ATOM     15  C   UNL     1      -5.981  13.635  23.817  0.00  0.00    +0.000 A 
ATOM     16  C   UNL     1      -5.282  12.969  22.804  0.00  0.00    +0.000 A 
ATOM     17  C   UNL     1      -4.306  13.643  22.050  0.00  0.00    +0.000 A 
ATOM     18  C   UNL     1      -4.073  15.002  22.296  0.00  0.00    +0.000 A 
ENDBRANCH   1  17
BRANCH   2  19
ATOM     19  C   UNL     1      -5.337  12.765  19.242  0.00  0.00    +0.000 A 
ATOM     20  C   UNL     1      -5.708  14.066  18.858  0.00  0.00    +0.000 A 
ATOM     21  C   UNL     1      -7.000  14.341  18.400  0.00  0.00    +0.000 A 
ATOM     22  C   UNL     1      -7.916  13.307  18.234  0.00  0.00    +0.000 A 
ATOM     23  C   UNL     1      -7.549  12.003  18.554  0.00  0.00    +0.000 A 
ATOM     24  C   UNL     1      -6.284  11.741  19.087  0.00  0.00    +0.000 A 
ENDBRANCH   2  19
BRANCH   3  25
ATOM     25  C   UNL     1      -2.985  11.091  17.907  0.00  0.00    +0.000 A 
ATOM     26  C   UNL     1      -2.365   9.853  17.684  0.00  0.00    +0.000 A 
ATOM     27  C   UNL     1      -2.350   9.274  16.411  0.00  0.00    +0.000 A 
ATOM     28  C   UNL     1      -3.041   9.874  15.363  0.00  0.00    +0.000 A 
ATOM     29  C   UNL     1      -3.719  11.070  15.579  0.00  0.00    +0.000 A 
ATOM     30  C   UNL     1      -3.655  11.693  16.830  0.00  0.00    +0.000 A 
ENDBRANCH   3  25
BRANCH   6  31
ATOM     31  N   UNL     1       1.051   9.734  19.363  0.00  0.00    +0.000 NA
ATOM     32  C   UNL     1       1.436   9.042  18.337  0.00  0.00    +0.000 C 
BRANCH  32  33
ATOM     33  C   UNL     1       2.355   7.893  18.461  0.00  0.00    +0.000 A 
ATOM     34  C   UNL     1       2.307   7.039  19.568  0.00  0.00    +0.000 A 
ATOM     35  C   UNL     1       3.207   5.975  19.662  0.00  0.00    +0.000 A 
ATOM     36  C   UNL     1       4.152   5.765  18.656  0.00  0.00    +0.000 A 
ATOM     37  C   UNL     1       4.197   6.615  17.551  0.00  0.00    +0.000 A 
ATOM     38  C   UNL     1       3.296   7.678  17.449  0.00  0.00    +0.000 A 
ENDBRANCH  32  33
ENDBRANCH   6  31
TORSDOF 5
ENDMDL
MODEL 9
REMARK VINA RESULT:      -7.3      1.438      1.765
REMARK  Name = 
REMARK  5 active torsions:
REMARK  status: ('A' for Active; 'I' for Inactive)
REMARK    1  A    between atoms: C_6  and  N_7
REMARK    2  A    between atoms: C_8  and  C_9
REMARK    3  A    between atoms: C_15  and  C_16
REMARK    4  A    between atoms: N_24  and  N_25
REMARK    5  A    between atoms: C_26  and  C_27
REMARK                            x       y       z     vdW  Elec       q    Type
REMARK                         _______ _______ _______ _____ _____    ______ ____
ROOT
ATOM      1  N   UNL     1      -2.088  12.162  21.589  0.00  0.00    +0.000 N 
ATOM      2  C   UNL     1      -2.744  12.098  20.342  0.00  0.00    +0.000 A 
ATOM      3  C   UNL     1      -1.941  11.296  19.499  0.00  0.00    +0.000 A 
ATOM      4  C   UNL     1      -0.763  10.905  20.235  0.00  0.00    +0.000 A 
ATOM      5  C   UNL     1       0.408  10.133  20.007  0.00  0.00    +0.000 A 
ATOM      6  N   UNL     1       0.773   9.607  18.753  0.00  0.00    +0.000 N 
ATOM      7  N   UNL     1       1.247   9.916  21.055  0.00  0.00    +0.000 NA
ATOM      8  C   UNL     1       0.977  10.462  22.239  0.00  0.00    +0.000 A 
ATOM      9  N   UNL     1      -0.058  11.238  22.548  0.00  0.00    +0.000 NA
ATOM     10  C   UNL     1      -0.901  11.437  21.513  0.00  0.00    +0.000 A 
ATOM     11  H   UNL     1       0.182   9.894  17.981  0.00  0.00    +0.000 HD
ENDROOT
BRANCH   1  17
ATOM     12 CL   UNL     1      -1.476  15.952  25.048  0.00  0.00    +0.000 Cl
ATOM     13  C   UNL     1      -2.306  14.565  24.456  0.00  0.00    +0.000 A 
ATOM     14  C   UNL     1      -3.346  14.018  25.196  0.00  0.00    +0.000 A 
ATOM     15  C   UNL     1      -4.007  12.881  24.729  0.00  0.00    +0.000 A 
ATOM     16  C   UNL     1      -3.603  12.285  23.529  0.00  0.00    +0.000 A 
ATOM     17  C   UNL     1      -2.537  12.825  22.789  0.00  0.00    +0.000 A 
ATOM     18  C   UNL     1      -1.913  13.993  23.244  0.00  0.00    +0.000 A 
ENDBRANCH   1  17
BRANCH   2  19
ATOM     19  C   UNL     1      -4.012  12.814  20.042  0.00  0.00    +0.000 A 
ATOM     20  C   UNL     1      -5.086  12.167  19.406  0.00  0.00    +0.000 A 
ATOM     21  C   UNL     1      -6.251  12.864  19.071  0.00  0.00    +0.000 A 
ATOM     22  C   UNL     1      -6.398  14.197  19.443  0.00  0.00    +0.000 A 
ATOM     23  C   UNL     1      -5.369  14.839  20.124  0.00  0.00    +0.000 A 
ATOM     24  C   UNL     1      -4.173  14.164  20.389  0.00  0.00    +0.000 A 
ENDBRANCH   2  19
BRANCH   3  25
ATOM     25  C   UNL     1      -2.321  10.923  18.124  0.00  0.00    +0.000 A 
ATOM     26  C   UNL     1      -2.201  11.818  17.051  0.00  0.00    +0.000 A 
ATOM     27  C   UNL     1      -2.684  11.488  15.780  0.00  0.00    +0.000 A 
ATOM     28  C   UNL     1      -3.202  10.219  15.538  0.00  0.00    +0.000 A 
ATOM     29  C   UNL     1      -3.270   9.293  16.574  0.00  0.00    +0.000 A 
ATOM     30  C   UNL     1      -2.872   9.658  17.865  0.00  0.00    +0.000 A 
ENDBRANCH   3  25
BRANCH   6  31
ATOM     31  N   UNL     1       1.321   8.354  18.747  0.00  0.00    +0.000 NA
ATOM     32  C   UNL     1       2.324   8.208  17.940  0.00  0.00    +0.000 C 
BRANCH  32  33
ATOM     33  C   UNL     1       3.056   6.932  17.815  0.00  0.00    +0.000 A 
ATOM     34  C   UNL     1       2.496   5.726  18.248  0.00  0.00    +0.000 A 
ATOM     35  C   UNL     1       3.227   4.541  18.134  0.00  0.00    +0.000 A 
ATOM     36  C   UNL     1       4.513   4.561  17.593  0.00  0.00    +0.000 A 
ATOM     37  C   UNL     1       5.070   5.764  17.159  0.00  0.00    +0.000 A 
ATOM     38  C   UNL     1       4.342   6.950  17.265  0.00  0.00    +0.000 A 
ENDBRANCH  32  33
ENDBRANCH   6  31
TORSDOF 5
ENDMDL
