MODEL 1
REMARK VINA RESULT:      -7.2      0.000      0.000
REMARK  Name = 
REMARK  4 active torsions:
REMARK  status: ('A' for Active; 'I' for Inactive)
REMARK    1  A    between atoms: C_1  and  O_2
REMARK    2  A    between atoms: O_2  and  C_3
REMARK    3  A    between atoms: C_5  and  O_6
REMARK    4  A    between atoms: O_6  and  C_7
REMARK                            x       y       z     vdW  Elec       q    Type
REMARK                         _______ _______ _______ _____ _____    ______ ____
ROOT
ATOM      1  C   UNL     1       6.031   4.940  18.884  0.00  0.00    +0.000 A 
ATOM      2  C   UNL     1       6.410   4.805  17.578  0.00  0.00    +0.000 A 
ATOM      3  C   UNL     1       5.448   4.279  16.761  0.00  0.00    +0.000 A 
ATOM      4  N   UNL     1       4.234   3.891  17.191  0.00  0.00    +0.000 NA
ATOM      5  C   UNL     1       3.948   4.069  18.481  0.00  0.00    +0.000 A 
ATOM      6  N   UNL     1       2.707   3.649  18.965  0.00  0.00    +0.000 N 
ATOM      7  C   UNL     1       1.905   2.752  18.312  0.00  0.00    +0.000 C 
ATOM      8  O   UNL     1       2.083   2.168  17.253  0.00  0.00    +0.000 OA
ATOM      9  C   UNL     1       0.701   2.486  19.163  0.00  0.00    +0.000 C 
ATOM     10  C   UNL     1       0.866   3.383  20.366  0.00  0.00    +0.000 C 
ATOM     11  C   UNL     1       2.184   4.065  20.160  0.00  0.00    +0.000 C 
ATOM     12  O   UNL     1       2.612   4.884  20.962  0.00  0.00    +0.000 OA
ATOM     13  N   UNL     1       4.817   4.603  19.342  0.00  0.00    +0.000 NA
ENDROOT
BRANCH   1  15
ATOM     14  C   UNL     1       8.017   6.145  19.127  0.00  0.00    +0.000 C 
ATOM     15  O   UNL     1       6.965   5.426  19.778  0.00  0.00    +0.000 OA
ENDBRANCH   1  15
BRANCH   3  16
ATOM     16  O   UNL     1       5.755   4.126  15.422  0.00  0.00    +0.000 OA
ATOM     17  C   UNL     1       7.016   4.708  15.082  0.00  0.00    +0.000 C 
ENDBRANCH   3  16
TORSDOF 2
ENDMDL
MODEL 2
REMARK VINA RESULT:      -7.2      0.114      3.090
REMARK  Name = 
REMARK  4 active torsions:
REMARK  status: ('A' for Active; 'I' for Inactive)
REMARK    1  A    between atoms: C_1  and  O_2
REMARK    2  A    between atoms: O_2  and  C_3
REMARK    3  A    between atoms: C_5  and  O_6
REMARK    4  A    between atoms: O_6  and  C_7
REMARK                            x       y       z     vdW  Elec       q    Type
REMARK                         _______ _______ _______ _____ _____    ______ ____
ROOT
ATOM      1  C   UNL     1       5.415   4.241  16.761  0.00  0.00    +0.000 A 
ATOM      2  C   UNL     1       6.367   4.799  17.569  0.00  0.00    +0.000 A 
ATOM      3  C   UNL     1       6.019   4.866  18.889  0.00  0.00    +0.000 A 
ATOM      4  N   UNL     1       4.833   4.452  19.371  0.00  0.00    +0.000 NA
ATOM      5  C   UNL     1       3.970   3.912  18.510  0.00  0.00    +0.000 A 
ATOM      6  N   UNL     1       2.718   3.500  18.974  0.00  0.00    +0.000 N 
ATOM      7  C   UNL     1       2.170   3.927  20.153  0.00  0.00    +0.000 C 
ATOM      8  O   UNL     1       2.615   4.700  20.990  0.00  0.00    +0.000 OA
ATOM      9  C   UNL     1       0.798   3.340  20.279  0.00  0.00    +0.000 C 
ATOM     10  C   UNL     1       0.633   2.467  19.057  0.00  0.00    +0.000 C 
ATOM     11  C   UNL     1       1.898   2.654  18.277  0.00  0.00    +0.000 C 
ATOM     12  O   UNL     1       2.093   2.062  17.224  0.00  0.00    +0.000 OA
ATOM     13  N   UNL     1       4.240   3.780  17.210  0.00  0.00    +0.000 NA
ENDROOT
BRANCH   1  15
ATOM     14  C   UNL     1       6.983   4.669  15.083  0.00  0.00    +0.000 C 
ATOM     15  O   UNL     1       5.679   4.178  15.406  0.00  0.00    +0.000 OA
ENDBRANCH   1  15
BRANCH   3  16
ATOM     16  O   UNL     1       6.938   5.405  19.769  0.00  0.00    +0.000 OA
ATOM     17  C   UNL     1       8.014   6.066  19.098  0.00  0.00    +0.000 C 
ENDBRANCH   3  16
TORSDOF 2
ENDMDL
MODEL 3
REMARK VINA RESULT:      -6.7      1.260      1.354
REMARK  Name = 
REMARK  4 active torsions:
REMARK  status: ('A' for Active; 'I' for Inactive)
REMARK    1  A    between atoms: C_1  and  O_2
REMARK    2  A    between atoms: O_2  and  C_3
REMARK    3  A    between atoms: C_5  and  O_6
REMARK    4  A    between atoms: O_6  and  C_7
REMARK                            x       y       z     vdW  Elec       q    Type
REMARK                         _______ _______ _______ _____ _____    ______ ____
ROOT
ATOM      1  C   UNL     1       6.926   4.591  17.668  0.00  0.00    +0.000 A 
ATOM      2  C   UNL     1       7.111   4.312  16.343  0.00  0.00    +0.000 A 
ATOM      3  C   UNL     1       5.961   4.031  15.658  0.00  0.00    +0.000 A 
ATOM      4  N   UNL     1       4.743   3.998  16.226  0.00  0.00    +0.000 NA
ATOM      5  C   UNL     1       4.656   4.294  17.523  0.00  0.00    +0.000 A 
ATOM      6  N   UNL     1       3.409   4.239  18.150  0.00  0.00    +0.000 N 
ATOM      7  C   UNL     1       2.334   3.565  17.637  0.00  0.00    +0.000 C 
ATOM      8  O   UNL     1       2.235   2.916  16.605  0.00  0.00    +0.000 OA
ATOM      9  C   UNL     1       1.203   3.662  18.613  0.00  0.00    +0.000 C 
ATOM     10  C   UNL     1       1.728   4.527  19.735  0.00  0.00    +0.000 C 
ATOM     11  C   UNL     1       3.147   4.823  19.360  0.00  0.00    +0.000 C 
ATOM     12  O   UNL     1       3.860   5.528  20.062  0.00  0.00    +0.000 OA
ATOM     13  N   UNL     1       5.724   4.609  18.260  0.00  0.00    +0.000 NA
ENDROOT
BRANCH   1  15
ATOM     14  C   UNL     1       7.795   5.799  19.468  0.00  0.00    +0.000 C 
ATOM     15  O   UNL     1       8.046   4.843  18.435  0.00  0.00    +0.000 OA
ENDBRANCH   1  15
BRANCH   3  16
ATOM     16  O   UNL     1       6.069   3.753  14.309  0.00  0.00    +0.000 OA
ATOM     17  C   UNL     1       6.960   4.647  13.636  0.00  0.00    +0.000 C 
ENDBRANCH   3  16
TORSDOF 2
ENDMDL
MODEL 4
REMARK VINA RESULT:      -6.5      0.954      3.289
REMARK  Name = 
REMARK  4 active torsions:
REMARK  status: ('A' for Active; 'I' for Inactive)
REMARK    1  A    between atoms: C_1  and  O_2
REMARK    2  A    between atoms: O_2  and  C_3
REMARK    3  A    between atoms: C_5  and  O_6
REMARK    4  A    between atoms: O_6  and  C_7
REMARK                            x       y       z     vdW  Elec       q    Type
REMARK                         _______ _______ _______ _____ _____    ______ ____
ROOT
ATOM      1  C   UNL     1       5.213   4.446  15.851  0.00  0.00    +0.000 A 
ATOM      2  C   UNL     1       6.176   5.273  16.360  0.00  0.00    +0.000 A 
ATOM      3  C   UNL     1       5.979   5.634  17.664  0.00  0.00    +0.000 A 
ATOM      4  N   UNL     1       4.920   5.244  18.396  0.00  0.00    +0.000 NA
ATOM      5  C   UNL     1       4.035   4.430  17.819  0.00  0.00    +0.000 A 
ATOM      6  N   UNL     1       2.909   4.031  18.542  0.00  0.00    +0.000 N 
ATOM      7  C   UNL     1       2.454   4.686  19.655  0.00  0.00    +0.000 C 
ATOM      8  O   UNL     1       2.894   5.680  20.215  0.00  0.00    +0.000 OA
ATOM      9  C   UNL     1       1.190   4.024  20.112  0.00  0.00    +0.000 C 
ATOM     10  C   UNL     1       0.993   2.863  19.165  0.00  0.00    +0.000 C 
ATOM     11  C   UNL     1       2.124   2.967  18.188  0.00  0.00    +0.000 C 
ATOM     12  O   UNL     1       2.267   2.152  17.286  0.00  0.00    +0.000 OA
ATOM     13  N   UNL     1       4.166   4.004  16.561  0.00  0.00    +0.000 NA
ENDROOT
BRANCH   1  15
ATOM     14  C   UNL     1       6.645   4.257  14.016  0.00  0.00    +0.000 C 
ATOM     15  O   UNL     1       5.321   4.074  14.526  0.00  0.00    +0.000 OA
ENDBRANCH   1  15
BRANCH   3  16
ATOM     16  O   UNL     1       6.921   6.457  18.251  0.00  0.00    +0.000 OA
ATOM     17  C   UNL     1       7.761   5.757  19.173  0.00  0.00    +0.000 C 
ENDBRANCH   3  16
TORSDOF 2
ENDMDL
MODEL 5
REMARK VINA RESULT:      -6.5      1.524      1.536
REMARK  Name = 
REMARK  4 active torsions:
REMARK  status: ('A' for Active; 'I' for Inactive)
REMARK    1  A    between atoms: C_1  and  O_2
REMARK    2  A    between atoms: O_2  and  C_3
REMARK    3  A    between atoms: C_5  and  O_6
REMARK    4  A    between atoms: O_6  and  C_7
REMARK                            x       y       z     vdW  Elec       q    Type
REMARK                         _______ _______ _______ _____ _____    ______ ____
ROOT
ATOM      1  C   UNL     1       5.573   6.181  17.193  0.00  0.00    +0.000 A 
ATOM      2  C   UNL     1       6.110   5.428  16.186  0.00  0.00    +0.000 A 
ATOM      3  C   UNL     1       5.516   4.209  16.013  0.00  0.00    +0.000 A 
ATOM      4  N   UNL     1       4.507   3.755  16.777  0.00  0.00    +0.000 NA
ATOM      5  C   UNL     1       4.040   4.562  17.730  0.00  0.00    +0.000 A 
ATOM      6  N   UNL     1       3.013   4.108  18.561  0.00  0.00    +0.000 N 
ATOM      7  C   UNL     1       2.691   2.786  18.712  0.00  0.00    +0.000 C 
ATOM      8  O   UNL     1       3.190   1.794  18.200  0.00  0.00    +0.000 OA
ATOM      9  C   UNL     1       1.600   2.677  19.732  0.00  0.00    +0.000 C 
ATOM     10  C   UNL     1       1.279   4.103  20.115  0.00  0.00    +0.000 C 
ATOM     11  C   UNL     1       2.247   4.938  19.334  0.00  0.00    +0.000 C 
ATOM     12  O   UNL     1       2.240   6.160  19.406  0.00  0.00    +0.000 OA
ATOM     13  N   UNL     1       4.541   5.780  17.948  0.00  0.00    +0.000 NA
ENDROOT
BRANCH   1  15
ATOM     14  C   UNL     1       7.572   7.326  17.579  0.00  0.00    +0.000 C 
ATOM     15  O   UNL     1       6.149   7.408  17.455  0.00  0.00    +0.000 OA
ENDBRANCH   1  15
BRANCH   3  16
ATOM     16  O   UNL     1       5.997   3.398  15.003  0.00  0.00    +0.000 OA
ATOM     17  C   UNL     1       6.396   4.142  13.849  0.00  0.00    +0.000 C 
ENDBRANCH   3  16
TORSDOF 2
ENDMDL
MODEL 6
REMARK VINA RESULT:      -6.4      2.279      2.685
REMARK  Name = 
REMARK  4 active torsions:
REMARK  status: ('A' for Active; 'I' for Inactive)
REMARK    1  A    between atoms: C_1  and  O_2
REMARK    2  A    between atoms: O_2  and  C_3
REMARK    3  A    between atoms: C_5  and  O_6
REMARK    4  A    between atoms: O_6  and  C_7
REMARK                            x       y       z     vdW  Elec       q    Type
REMARK                         _______ _______ _______ _____ _____    ______ ____
ROOT
ATOM      1  C   UNL     1       3.857   6.458  17.664  0.00  0.00    +0.000 A 
ATOM      2  C   UNL     1       4.885   5.996  16.890  0.00  0.00    +0.000 A 
ATOM      3  C   UNL     1       5.266   4.712  17.164  0.00  0.00    +0.000 A 
ATOM      4  N   UNL     1       4.712   3.958  18.130  0.00  0.00    +0.000 NA
ATOM      5  C   UNL     1       3.709   4.489  18.830  0.00  0.00    +0.000 A 
ATOM      6  N   UNL     1       3.133   3.743  19.861  0.00  0.00    +0.000 N 
ATOM      7  C   UNL     1       3.741   2.665  20.446  0.00  0.00    +0.000 C 
ATOM      8  O   UNL     1       4.831   2.160  20.216  0.00  0.00    +0.000 OA
ATOM      9  C   UNL     1       2.865   2.171  21.556  0.00  0.00    +0.000 C 
ATOM     10  C   UNL     1       1.641   3.054  21.510  0.00  0.00    +0.000 C 
ATOM     11  C   UNL     1       1.916   4.038  20.415  0.00  0.00    +0.000 C 
ATOM     12  O   UNL     1       1.100   4.896  20.106  0.00  0.00    +0.000 OA
ATOM     13  N   UNL     1       3.253   5.723  18.608  0.00  0.00    +0.000 NA
ENDROOT
BRANCH   1  15
ATOM     14  C   UNL     1       2.341   8.112  18.315  0.00  0.00    +0.000 C 
ATOM     15  O   UNL     1       3.445   7.762  17.474  0.00  0.00    +0.000 OA
ENDBRANCH   1  15
BRANCH   3  16
ATOM     16  O   UNL     1       6.291   4.172  16.410  0.00  0.00    +0.000 OA
ATOM     17  C   UNL     1       5.941   4.038  15.030  0.00  0.00    +0.000 C 
ENDBRANCH   3  16
TORSDOF 2
ENDMDL
MODEL 7
REMARK VINA RESULT:      -6.4      2.293      3.363
REMARK  Name = 
REMARK  4 active torsions:
REMARK  status: ('A' for Active; 'I' for Inactive)
REMARK    1  A    between atoms: C_1  and  O_2
REMARK    2  A    between atoms: O_2  and  C_3
REMARK    3  A    between atoms: C_5  and  O_6
REMARK    4  A    between atoms: O_6  and  C_7
REMARK                            x       y       z     vdW  Elec       q    Type
REMARK                         _______ _______ _______ _____ _____    ______ ____
ROOT
ATOM      1  C   UNL     1       5.212   4.687  17.068  0.00  0.00    +0.000 A 
ATOM      2  C   UNL     1       4.873   5.981  16.780  0.00  0.00    +0.000 A 
ATOM      3  C   UNL     1       3.967   6.533  17.642  0.00  0.00    +0.000 A 
ATOM      4  N   UNL     1       3.419   5.870  18.675  0.00  0.00    +0.000 NA
ATOM      5  C   UNL     1       3.815   4.615  18.886  0.00  0.00    +0.000 A 
ATOM      6  N   UNL     1       3.242   3.889  19.933  0.00  0.00    +0.000 N 
ATOM      7  C   UNL     1       2.060   4.231  20.531  0.00  0.00    +0.000 C 
ATOM      8  O   UNL     1       1.307   5.167  20.302  0.00  0.00    +0.000 OA
ATOM      9  C   UNL     1       1.725   3.186  21.551  0.00  0.00    +0.000 C 
ATOM     10  C   UNL     1       2.887   2.221  21.518  0.00  0.00    +0.000 C 
ATOM     11  C   UNL     1       3.788   2.741  20.441  0.00  0.00    +0.000 C 
ATOM     12  O   UNL     1       4.845   2.186  20.169  0.00  0.00    +0.000 OA
ATOM     13  N   UNL     1       4.718   4.008  18.112  0.00  0.00    +0.000 NA
ENDROOT
BRANCH   1  15
ATOM     14  C   UNL     1       5.711   4.182  14.843  0.00  0.00    +0.000 C 
ATOM     15  O   UNL     1       6.090   4.048  16.216  0.00  0.00    +0.000 OA
ENDBRANCH   1  15
BRANCH   3  16
ATOM     16  O   UNL     1       3.589   7.844  17.422  0.00  0.00    +0.000 OA
ATOM     17  C   UNL     1       2.357   8.173  18.068  0.00  0.00    +0.000 C 
ENDBRANCH   3  16
TORSDOF 2
ENDMDL
MODEL 8
REMARK VINA RESULT:      -6.3      1.620      3.612
REMARK  Name = 
REMARK  4 active torsions:
REMARK  status: ('A' for Active; 'I' for Inactive)
REMARK    1  A    between atoms: C_1  and  O_2
REMARK    2  A    between atoms: O_2  and  C_3
REMARK    3  A    between atoms: C_5  and  O_6
REMARK    4  A    between atoms: O_6  and  C_7
REMARK                            x       y       z     vdW  Elec       q    Type
REMARK                         _______ _______ _______ _____ _____    ______ ____
ROOT
ATOM      1  C   UNL     1       6.032   3.986  15.369  0.00  0.00    +0.000 A 
ATOM      2  C   UNL     1       6.876   5.053  15.502  0.00  0.00    +0.000 A 
ATOM      3  C   UNL     1       6.752   5.727  16.685  0.00  0.00    +0.000 A 
ATOM      4  N   UNL     1       5.861   5.404  17.639  0.00  0.00    +0.000 NA
ATOM      5  C   UNL     1       5.084   4.341  17.427  0.00  0.00    +0.000 A 
ATOM      6  N   UNL     1       4.128   3.997  18.385  0.00  0.00    +0.000 N 
ATOM      7  C   UNL     1       3.679   4.859  19.348  0.00  0.00    +0.000 C 
ATOM      8  O   UNL     1       3.986   6.023  19.564  0.00  0.00    +0.000 OA
ATOM      9  C   UNL     1       2.609   4.171  20.139  0.00  0.00    +0.000 C 
ATOM     10  C   UNL     1       2.530   2.778  19.560  0.00  0.00    +0.000 C 
ATOM     11  C   UNL     1       3.518   2.773  18.434  0.00  0.00    +0.000 C 
ATOM     12  O   UNL     1       3.712   1.770  17.759  0.00  0.00    +0.000 OA
ATOM     13  N   UNL     1       5.161   3.608  16.314  0.00  0.00    +0.000 NA
ENDROOT
BRANCH   1  15
ATOM     14  C   UNL     1       6.571   4.069  13.097  0.00  0.00    +0.000 C 
ATOM     15  O   UNL     1       6.070   3.281  14.182  0.00  0.00    +0.000 OA
ENDBRANCH   1  15
BRANCH   3  16
ATOM     16  O   UNL     1       7.584   6.810  16.897  0.00  0.00    +0.000 OA
ATOM     17  C   UNL     1       7.896   6.997  18.280  0.00  0.00    +0.000 C 
ENDBRANCH   3  16
TORSDOF 2
ENDMDL
MODEL 9
REMARK VINA RESULT:      -6.3      1.666      2.041
REMARK  Name = 
REMARK  4 active torsions:
REMARK  status: ('A' for Active; 'I' for Inactive)
REMARK    1  A    between atoms: C_1  and  O_2
REMARK    2  A    between atoms: O_2  and  C_3
REMARK    3  A    between atoms: C_5  and  O_6
REMARK    4  A    between atoms: O_6  and  C_7
REMARK                            x       y       z     vdW  Elec       q    Type
REMARK                         _______ _______ _______ _____ _____    ______ ____
ROOT
ATOM      1  C   UNL     1       6.736   5.724  16.564  0.00  0.00    +0.000 A 
ATOM      2  C   UNL     1       6.846   5.058  15.375  0.00  0.00    +0.000 A 
ATOM      3  C   UNL     1       5.971   4.018  15.226  0.00  0.00    +0.000 A 
ATOM      4  N   UNL     1       5.088   3.644  16.169  0.00  0.00    +0.000 NA
ATOM      5  C   UNL     1       5.044   4.358  17.294  0.00  0.00    +0.000 A 
ATOM      6  N   UNL     1       4.159   3.977  18.305  0.00  0.00    +0.000 N 
ATOM      7  C   UNL     1       3.594   2.733  18.386  0.00  0.00    +0.000 C 
ATOM      8  O   UNL     1       3.727   1.762  17.654  0.00  0.00    +0.000 OA
ATOM      9  C   UNL     1       2.768   2.667  19.634  0.00  0.00    +0.000 C 
ATOM     10  C   UNL     1       2.871   4.045  20.243  0.00  0.00    +0.000 C 
ATOM     11  C   UNL     1       3.796   4.798  19.338  0.00  0.00    +0.000 C 
ATOM     12  O   UNL     1       4.079   5.971  19.545  0.00  0.00    +0.000 OA
ATOM     13  N   UNL     1       5.841   5.407  17.510  0.00  0.00    +0.000 NA
ENDROOT
BRANCH   1  15
ATOM     14  C   UNL     1       7.817   6.990  18.202  0.00  0.00    +0.000 C 
ATOM     15  O   UNL     1       7.615   6.761  16.804  0.00  0.00    +0.000 OA
ENDBRANCH   1  15
BRANCH   3  16
ATOM     16  O   UNL     1       6.015   3.307  14.042  0.00  0.00    +0.000 OA
ATOM     17  C   UNL     1       6.643   4.040  12.987  0.00  0.00    +0.000 C 
ENDBRANCH   3  16
TORSDOF 2
ENDMDL
