MODEL 1
REMARK VINA RESULT:      -8.4      0.000      0.000
REMARK  Name = 
REMARK  4 active torsions:
REMARK  status: ('A' for Active; 'I' for Inactive)
REMARK    1  A    between atoms: C_2  and  C_4
REMARK    2  A    between atoms: C_4  and  C_5
REMARK    3  A    between atoms: C_10  and  C_11
REMARK    4  A    between atoms: C_14  and  C_15
REMARK                            x       y       z     vdW  Elec       q    Type
REMARK                         _______ _______ _______ _____ _____    ______ ____
ROOT
ATOM      1  C   UNL     1       6.117   4.910  16.250  0.00  0.00    +0.000 A 
ATOM      2  C   UNL     1       6.953   6.017  16.471  0.00  0.00    +0.000 A 
ATOM      3  C   UNL     1       6.541   7.048  17.292  0.00  0.00    +0.000 A 
ATOM      4  C   UNL     1       5.272   7.010  17.864  0.00  0.00    +0.000 A 
ATOM      5  C   UNL     1       4.342   5.966  17.610  0.00  0.00    +0.000 A 
ATOM      6  C   UNL     1       2.974   5.985  18.071  0.00  0.00    +0.000 A 
ATOM      7  C   UNL     1       2.183   4.838  17.840  0.00  0.00    +0.000 A 
ATOM      8  C   UNL     1       2.689   3.717  17.203  0.00  0.00    +0.000 A 
ATOM      9  C   UNL     1       3.984   3.737  16.706  0.00  0.00    +0.000 A 
ATOM     10  C   UNL     1       4.819   4.863  16.847  0.00  0.00    +0.000 A 
ENDROOT
BRANCH   6  11
ATOM     11  C   UNL     1       2.328   7.156  18.739  0.00  0.00    +0.000 A 
ATOM     12  C   UNL     1       1.932   8.301  18.024  0.00  0.00    +0.000 A 
ATOM     13  C   UNL     1       1.367   9.415  18.655  0.00  0.00    +0.000 A 
ATOM     14  C   UNL     1       1.087   9.388  20.023  0.00  0.00    +0.000 A 
ATOM     15  C   UNL     1       1.403   8.232  20.746  0.00  0.00    +0.000 A 
ATOM     16  C   UNL     1       2.032   7.147  20.118  0.00  0.00    +0.000 A 
BRANCH  14  17
ATOM     17  C   UNL     1       0.430  10.560  20.706  0.00  0.00    +0.000 C 
ATOM     18  F   UNL     1       1.168  11.704  20.652  0.00  0.00    +0.000 F 
ATOM     19  F   UNL     1      -0.777  10.869  20.160  0.00  0.00    +0.000 F 
ATOM     20  F   UNL     1       0.197  10.332  22.029  0.00  0.00    +0.000 F 
ENDBRANCH  14  17
ENDBRANCH   6  11
BRANCH   1  21
ATOM     21  C   UNL     1       6.661   3.811  15.359  0.00  0.00    +0.000 C 
BRANCH  21  23
ATOM     22  N   UNL     1       6.015   3.388  13.067  0.00  0.00    +0.000 NA
ATOM     23  C   UNL     1       6.682   4.150  13.878  0.00  0.00    +0.000 C 
ATOM     24  N   UNL     1       7.418   5.200  13.399  0.00  0.00    +0.000 N 
ATOM     25  H   UNL     1       6.166   3.701  12.107  0.00  0.00    +0.000 HD
ATOM     26  H   UNL     1       7.102   5.601  12.523  0.00  0.00    +0.000 HD
ATOM     27  H   UNL     1       7.668   5.915  14.077  0.00  0.00    +0.000 HD
ENDBRANCH  21  23
ENDBRANCH   1  21
TORSDOF 4
ENDMDL
MODEL 2
REMARK VINA RESULT:      -8.4      0.095      1.252
REMARK  Name = 
REMARK  4 active torsions:
REMARK  status: ('A' for Active; 'I' for Inactive)
REMARK    1  A    between atoms: C_2  and  C_4
REMARK    2  A    between atoms: C_4  and  C_5
REMARK    3  A    between atoms: C_10  and  C_11
REMARK    4  A    between atoms: C_14  and  C_15
REMARK                            x       y       z     vdW  Elec       q    Type
REMARK                         _______ _______ _______ _____ _____    ______ ____
ROOT
ATOM      1  C   UNL     1       6.151   4.838  16.273  0.00  0.00    +0.000 A 
ATOM      2  C   UNL     1       6.982   5.945  16.513  0.00  0.00    +0.000 A 
ATOM      3  C   UNL     1       6.559   6.968  17.339  0.00  0.00    +0.000 A 
ATOM      4  C   UNL     1       5.285   6.919  17.899  0.00  0.00    +0.000 A 
ATOM      5  C   UNL     1       4.361   5.874  17.627  0.00  0.00    +0.000 A 
ATOM      6  C   UNL     1       2.988   5.884  18.075  0.00  0.00    +0.000 A 
ATOM      7  C   UNL     1       2.203   4.737  17.826  0.00  0.00    +0.000 A 
ATOM      8  C   UNL     1       2.719   3.624  17.182  0.00  0.00    +0.000 A 
ATOM      9  C   UNL     1       4.019   3.653  16.698  0.00  0.00    +0.000 A 
ATOM     10  C   UNL     1       4.848   4.780  16.858  0.00  0.00    +0.000 A 
ENDROOT
BRANCH   6  11
ATOM     11  C   UNL     1       2.332   7.047  18.748  0.00  0.00    +0.000 A 
ATOM     12  C   UNL     1       2.082   7.067  20.132  0.00  0.00    +0.000 A 
ATOM     13  C   UNL     1       1.429   8.137  20.755  0.00  0.00    +0.000 A 
ATOM     14  C   UNL     1       1.084   9.278  20.028  0.00  0.00    +0.000 A 
ATOM     15  C   UNL     1       1.389   9.314  18.662  0.00  0.00    +0.000 A 
ATOM     16  C   UNL     1       1.981   8.211  18.033  0.00  0.00    +0.000 A 
BRANCH  14  17
ATOM     17  C   UNL     1       0.428  10.459  20.696  0.00  0.00    +0.000 C 
ATOM     18  F   UNL     1      -0.793  10.768  20.177  0.00  0.00    +0.000 F 
ATOM     19  F   UNL     1       0.227  10.256  22.027  0.00  0.00    +0.000 F 
ATOM     20  F   UNL     1       1.171  11.596  20.597  0.00  0.00    +0.000 F 
ENDBRANCH  14  17
ENDBRANCH   6  11
BRANCH   1  21
ATOM     21  C   UNL     1       6.708   3.749  15.377  0.00  0.00    +0.000 C 
BRANCH  21  23
ATOM     22  N   UNL     1       6.020   3.333  13.096  0.00  0.00    +0.000 NA
ATOM     23  C   UNL     1       6.708   4.088  13.896  0.00  0.00    +0.000 C 
ATOM     24  N   UNL     1       7.447   5.131  13.404  0.00  0.00    +0.000 N 
ATOM     25  H   UNL     1       6.158   3.645  12.134  0.00  0.00    +0.000 HD
ATOM     26  H   UNL     1       7.121   5.535  12.534  0.00  0.00    +0.000 HD
ATOM     27  H   UNL     1       7.715   5.843  14.079  0.00  0.00    +0.000 HD
ENDBRANCH  21  23
ENDBRANCH   1  21
TORSDOF 4
ENDMDL
MODEL 3
REMARK VINA RESULT:      -8.2      2.959      4.232
REMARK  Name = 
REMARK  4 active torsions:
REMARK  status: ('A' for Active; 'I' for Inactive)
REMARK    1  A    between atoms: C_2  and  C_4
REMARK    2  A    between atoms: C_4  and  C_5
REMARK    3  A    between atoms: C_10  and  C_11
REMARK    4  A    between atoms: C_14  and  C_15
REMARK                            x       y       z     vdW  Elec       q    Type
REMARK                         _______ _______ _______ _____ _____    ______ ____
ROOT
ATOM      1  C   UNL     1       3.263   4.015  19.479  0.00  0.00    +0.000 A 
ATOM      2  C   UNL     1       2.538   3.506  20.569  0.00  0.00    +0.000 A 
ATOM      3  C   UNL     1       1.586   4.286  21.197  0.00  0.00    +0.000 A 
ATOM      4  C   UNL     1       1.379   5.596  20.774  0.00  0.00    +0.000 A 
ATOM      5  C   UNL     1       2.140   6.202  19.738  0.00  0.00    +0.000 A 
ATOM      6  C   UNL     1       2.045   7.600  19.390  0.00  0.00    +0.000 A 
ATOM      7  C   UNL     1       2.780   8.055  18.273  0.00  0.00    +0.000 A 
ATOM      8  C   UNL     1       3.564   7.199  17.517  0.00  0.00    +0.000 A 
ATOM      9  C   UNL     1       3.700   5.873  17.902  0.00  0.00    +0.000 A 
ATOM     10  C   UNL     1       3.043   5.356  19.036  0.00  0.00    +0.000 A 
ENDROOT
BRANCH   6  11
ATOM     11  C   UNL     1       1.252   8.606  20.161  0.00  0.00    +0.000 A 
ATOM     12  C   UNL     1       1.275   8.659  21.566  0.00  0.00    +0.000 A 
ATOM     13  C   UNL     1       0.500   9.573  22.289  0.00  0.00    +0.000 A 
ATOM     14  C   UNL     1      -0.260  10.540  21.626  0.00  0.00    +0.000 A 
ATOM     15  C   UNL     1      -0.241  10.557  20.227  0.00  0.00    +0.000 A 
ATOM     16  C   UNL     1       0.484   9.594  19.510  0.00  0.00    +0.000 A 
BRANCH  14  17
ATOM     17  C   UNL     1      -1.058  11.563  22.392  0.00  0.00    +0.000 C 
ATOM     18  F   UNL     1      -1.580  11.085  23.557  0.00  0.00    +0.000 F 
ATOM     19  F   UNL     1      -0.314  12.650  22.735  0.00  0.00    +0.000 F 
ATOM     20  F   UNL     1      -2.117  12.042  21.681  0.00  0.00    +0.000 F 
ENDBRANCH  14  17
ENDBRANCH   6  11
BRANCH   1  21
ATOM     21  C   UNL     1       4.267   3.080  18.832  0.00  0.00    +0.000 C 
BRANCH  21  23
ATOM     22  N   UNL     1       4.302   0.676  18.572  0.00  0.00    +0.000 NA
ATOM     23  C   UNL     1       3.676   1.782  18.310  0.00  0.00    +0.000 C 
ATOM     24  N   UNL     1       2.539   1.773  17.546  0.00  0.00    +0.000 N 
ATOM     25  H   UNL     1       3.823  -0.101  18.114  0.00  0.00    +0.000 HD
ATOM     26  H   UNL     1       2.001   0.915  17.560  0.00  0.00    +0.000 HD
ATOM     27  H   UNL     1       1.947   2.596  17.620  0.00  0.00    +0.000 HD
ENDBRANCH  21  23
ENDBRANCH   1  21
TORSDOF 4
ENDMDL
MODEL 4
REMARK VINA RESULT:      -8.2      2.944      4.024
REMARK  Name = 
REMARK  4 active torsions:
REMARK  status: ('A' for Active; 'I' for Inactive)
REMARK    1  A    between atoms: C_2  and  C_4
REMARK    2  A    between atoms: C_4  and  C_5
REMARK    3  A    between atoms: C_10  and  C_11
REMARK    4  A    between atoms: C_14  and  C_15
REMARK                            x       y       z     vdW  Elec       q    Type
REMARK                         _______ _______ _______ _____ _____    ______ ____
ROOT
ATOM      1  C   UNL     1       3.267   3.991  19.493  0.00  0.00    +0.000 A 
ATOM      2  C   UNL     1       2.525   3.493  20.576  0.00  0.00    +0.000 A 
ATOM      3  C   UNL     1       1.572   4.282  21.190  0.00  0.00    +0.000 A 
ATOM      4  C   UNL     1       1.381   5.592  20.760  0.00  0.00    +0.000 A 
ATOM      5  C   UNL     1       2.159   6.189  19.731  0.00  0.00    +0.000 A 
ATOM      6  C   UNL     1       2.078   7.586  19.376  0.00  0.00    +0.000 A 
ATOM      7  C   UNL     1       2.830   8.031  18.266  0.00  0.00    +0.000 A 
ATOM      8  C   UNL     1       3.617   7.166  17.523  0.00  0.00    +0.000 A 
ATOM      9  C   UNL     1       3.737   5.840  17.914  0.00  0.00    +0.000 A 
ATOM     10  C   UNL     1       3.063   5.333  19.042  0.00  0.00    +0.000 A 
ENDROOT
BRANCH   6  11
ATOM     11  C   UNL     1       1.285   8.602  20.134  0.00  0.00    +0.000 A 
ATOM     12  C   UNL     1       0.491   9.565  19.487  0.00  0.00    +0.000 A 
ATOM     13  C   UNL     1      -0.218  10.542  20.195  0.00  0.00    +0.000 A 
ATOM     14  C   UNL     1      -0.235  10.534  21.592  0.00  0.00    +0.000 A 
ATOM     15  C   UNL     1       0.488   9.540  22.261  0.00  0.00    +0.000 A 
ATOM     16  C   UNL     1       1.250   8.607  21.544  0.00  0.00    +0.000 A 
BRANCH  14  17
ATOM     17  C   UNL     1      -1.036  11.549  22.367  0.00  0.00    +0.000 C 
ATOM     18  F   UNL     1      -0.329  12.668  22.689  0.00  0.00    +0.000 F 
ATOM     19  F   UNL     1      -2.128  11.982  21.680  0.00  0.00    +0.000 F 
ATOM     20  F   UNL     1      -1.506  11.055  23.546  0.00  0.00    +0.000 F 
ENDBRANCH  14  17
ENDBRANCH   6  11
BRANCH   1  21
ATOM     21  C   UNL     1       4.271   3.047  18.862  0.00  0.00    +0.000 C 
BRANCH  21  23
ATOM     22  N   UNL     1       4.282   0.659  18.479  0.00  0.00    +0.000 NA
ATOM     23  C   UNL     1       3.666   1.782  18.275  0.00  0.00    +0.000 C 
ATOM     24  N   UNL     1       2.528   1.824  17.514  0.00  0.00    +0.000 N 
ATOM     25  H   UNL     1       3.794  -0.089  17.983  0.00  0.00    +0.000 HD
ATOM     26  H   UNL     1       1.982   0.971  17.485  0.00  0.00    +0.000 HD
ATOM     27  H   UNL     1       1.945   2.648  17.632  0.00  0.00    +0.000 HD
ENDBRANCH  21  23
ENDBRANCH   1  21
TORSDOF 4
ENDMDL
MODEL 5
REMARK VINA RESULT:      -8.0      3.015      4.189
REMARK  Name = 
REMARK  4 active torsions:
REMARK  status: ('A' for Active; 'I' for Inactive)
REMARK    1  A    between atoms: C_2  and  C_4
REMARK    2  A    between atoms: C_4  and  C_5
REMARK    3  A    between atoms: C_10  and  C_11
REMARK    4  A    between atoms: C_14  and  C_15
REMARK                            x       y       z     vdW  Elec       q    Type
REMARK                         _______ _______ _______ _____ _____    ______ ____
ROOT
ATOM      1  C   UNL     1       3.322   4.156  19.245  0.00  0.00    +0.000 A 
ATOM      2  C   UNL     1       2.583   3.588  20.296  0.00  0.00    +0.000 A 
ATOM      3  C   UNL     1       1.609   4.324  20.941  0.00  0.00    +0.000 A 
ATOM      4  C   UNL     1       1.392   5.650  20.575  0.00  0.00    +0.000 A 
ATOM      5  C   UNL     1       2.163   6.314  19.584  0.00  0.00    +0.000 A 
ATOM      6  C   UNL     1       2.054   7.725  19.300  0.00  0.00    +0.000 A 
ATOM      7  C   UNL     1       2.804   8.241  18.219  0.00  0.00    +0.000 A 
ATOM      8  C   UNL     1       3.614   7.432  17.440  0.00  0.00    +0.000 A 
ATOM      9  C   UNL     1       3.762   6.092  17.765  0.00  0.00    +0.000 A 
ATOM     10  C   UNL     1       3.091   5.513  18.860  0.00  0.00    +0.000 A 
ENDROOT
BRANCH   6  11
ATOM     11  C   UNL     1       1.233   8.684  20.101  0.00  0.00    +0.000 A 
ATOM     12  C   UNL     1       0.470   9.700  19.499  0.00  0.00    +0.000 A 
ATOM     13  C   UNL     1      -0.265  10.624  20.251  0.00  0.00    +0.000 A 
ATOM     14  C   UNL     1      -0.340  10.507  21.641  0.00  0.00    +0.000 A 
ATOM     15  C   UNL     1       0.351   9.458  22.260  0.00  0.00    +0.000 A 
ATOM     16  C   UNL     1       1.139   8.579  21.504  0.00  0.00    +0.000 A 
BRANCH  14  17
ATOM     17  C   UNL     1      -1.169  11.463  22.459  0.00  0.00    +0.000 C 
ATOM     18  F   UNL     1      -2.268  11.929  21.803  0.00  0.00    +0.000 F 
ATOM     19  F   UNL     1      -1.632  10.897  23.607  0.00  0.00    +0.000 F 
ATOM     20  F   UNL     1      -0.470  12.568  22.842  0.00  0.00    +0.000 F 
ENDBRANCH  14  17
ENDBRANCH   6  11
BRANCH   1  21
ATOM     21  C   UNL     1       4.350   3.266  18.575  0.00  0.00    +0.000 C 
BRANCH  21  23
ATOM     22  N   UNL     1       5.155   1.693  20.226  0.00  0.00    +0.000 NA
ATOM     23  C   UNL     1       4.446   1.865  19.153  0.00  0.00    +0.000 C 
ATOM     24  N   UNL     1       3.842   0.799  18.541  0.00  0.00    +0.000 N 
ATOM     25  H   UNL     1       5.174   0.700  20.464  0.00  0.00    +0.000 HD
ATOM     26  H   UNL     1       3.616   0.013  19.139  0.00  0.00    +0.000 HD
ATOM     27  H   UNL     1       3.084   1.024  17.902  0.00  0.00    +0.000 HD
ENDBRANCH  21  23
ENDBRANCH   1  21
TORSDOF 4
ENDMDL
MODEL 6
REMARK VINA RESULT:      -8.0      2.456      3.995
REMARK  Name = 
REMARK  4 active torsions:
REMARK  status: ('A' for Active; 'I' for Inactive)
REMARK    1  A    between atoms: C_2  and  C_4
REMARK    2  A    between atoms: C_4  and  C_5
REMARK    3  A    between atoms: C_10  and  C_11
REMARK    4  A    between atoms: C_14  and  C_15
REMARK                            x       y       z     vdW  Elec       q    Type
REMARK                         _______ _______ _______ _____ _____    ______ ____
ROOT
ATOM      1  C   UNL     1       3.673   4.653  19.162  0.00  0.00    +0.000 A 
ATOM      2  C   UNL     1       3.105   4.028  20.285  0.00  0.00    +0.000 A 
ATOM      3  C   UNL     1       2.105   4.657  21.000  0.00  0.00    +0.000 A 
ATOM      4  C   UNL     1       1.692   5.934  20.632  0.00  0.00    +0.000 A 
ATOM      5  C   UNL     1       2.285   6.659  19.563  0.00  0.00    +0.000 A 
ATOM      6  C   UNL     1       1.976   8.038  19.264  0.00  0.00    +0.000 A 
ATOM      7  C   UNL     1       2.558   8.611  18.112  0.00  0.00    +0.000 A 
ATOM      8  C   UNL     1       3.394   7.886  17.278  0.00  0.00    +0.000 A 
ATOM      9  C   UNL     1       3.736   6.584  17.613  0.00  0.00    +0.000 A 
ATOM     10  C   UNL     1       3.241   5.959  18.775  0.00  0.00    +0.000 A 
ENDROOT
BRANCH   6  11
ATOM     11  C   UNL     1       1.113   8.910  20.118  0.00  0.00    +0.000 A 
ATOM     12  C   UNL     1       1.167   8.870  21.523  0.00  0.00    +0.000 A 
ATOM     13  C   UNL     1       0.329   9.656  22.323  0.00  0.00    +0.000 A 
ATOM     14  C   UNL     1      -0.534  10.589  21.743  0.00  0.00    +0.000 A 
ATOM     15  C   UNL     1      -0.553  10.702  20.348  0.00  0.00    +0.000 A 
ATOM     16  C   UNL     1       0.240   9.863  19.553  0.00  0.00    +0.000 A 
BRANCH  14  17
ATOM     17  C   UNL     1      -1.404  11.478  22.594  0.00  0.00    +0.000 C 
ATOM     18  F   UNL     1      -1.981  10.830  23.645  0.00  0.00    +0.000 F 
ATOM     19  F   UNL     1      -0.712  12.519  23.133  0.00  0.00    +0.000 F 
ATOM     20  F   UNL     1      -2.431  12.033  21.892  0.00  0.00    +0.000 F 
ENDBRANCH  14  17
ENDBRANCH   6  11
BRANCH   1  21
ATOM     21  C   UNL     1       4.743   3.878  18.419  0.00  0.00    +0.000 C 
BRANCH  21  23
ATOM     22  N   UNL     1       6.444   5.090  19.637  0.00  0.00    +0.000 NA
ATOM     23  C   UNL     1       6.144   4.451  18.549  0.00  0.00    +0.000 C 
ATOM     24  N   UNL     1       7.056   4.341  17.534  0.00  0.00    +0.000 N 
ATOM     25  H   UNL     1       7.391   5.464  19.560  0.00  0.00    +0.000 HD
ATOM     26  H   UNL     1       8.031   4.384  17.805  0.00  0.00    +0.000 HD
ATOM     27  H   UNL     1       6.880   3.604  16.856  0.00  0.00    +0.000 HD
ENDBRANCH  21  23
ENDBRANCH   1  21
TORSDOF 4
ENDMDL
MODEL 7
REMARK VINA RESULT:      -8.0      4.211      6.135
REMARK  Name = 
REMARK  4 active torsions:
REMARK  status: ('A' for Active; 'I' for Inactive)
REMARK    1  A    between atoms: C_2  and  C_4
REMARK    2  A    between atoms: C_4  and  C_5
REMARK    3  A    between atoms: C_10  and  C_11
REMARK    4  A    between atoms: C_14  and  C_15
REMARK                            x       y       z     vdW  Elec       q    Type
REMARK                         _______ _______ _______ _____ _____    ______ ____
ROOT
ATOM      1  C   UNL     1       3.190   4.251  17.459  0.00  0.00    +0.000 A 
ATOM      2  C   UNL     1       2.480   5.107  18.316  0.00  0.00    +0.000 A 
ATOM      3  C   UNL     1       3.010   6.332  18.673  0.00  0.00    +0.000 A 
ATOM      4  C   UNL     1       4.273   6.696  18.215  0.00  0.00    +0.000 A 
ATOM      5  C   UNL     1       5.082   5.841  17.419  0.00  0.00    +0.000 A 
ATOM      6  C   UNL     1       6.450   6.139  17.063  0.00  0.00    +0.000 A 
ATOM      7  C   UNL     1       7.110   5.255  16.181  0.00  0.00    +0.000 A 
ATOM      8  C   UNL     1       6.479   4.138  15.657  0.00  0.00    +0.000 A 
ATOM      9  C   UNL     1       5.188   3.828  16.059  0.00  0.00    +0.000 A 
ATOM     10  C   UNL     1       4.482   4.629  16.977  0.00  0.00    +0.000 A 
ENDROOT
BRANCH   6  11
ATOM     11  C   UNL     1       7.226   7.298  17.600  0.00  0.00    +0.000 A 
ATOM     12  C   UNL     1       7.036   8.609  17.128  0.00  0.00    +0.000 A 
ATOM     13  C   UNL     1       7.792   9.688  17.600  0.00  0.00    +0.000 A 
ATOM     14  C   UNL     1       8.708   9.510  18.640  0.00  0.00    +0.000 A 
ATOM     15  C   UNL     1       8.863   8.228  19.180  0.00  0.00    +0.000 A 
ATOM     16  C   UNL     1       8.150   7.141  18.654  0.00  0.00    +0.000 A 
BRANCH  14  17
ATOM     17  C   UNL     1       9.491  10.672  19.194  0.00  0.00    +0.000 C 
ATOM     18  F   UNL     1      10.759  10.758  18.702  0.00  0.00    +0.000 F 
ATOM     19  F   UNL     1       8.905  11.870  18.923  0.00  0.00    +0.000 F 
ATOM     20  F   UNL     1       9.622  10.617  20.549  0.00  0.00    +0.000 F 
ENDBRANCH  14  17
ENDBRANCH   6  11
BRANCH   1  21
ATOM     21  C   UNL     1       2.520   2.940  17.097  0.00  0.00    +0.000 C 
BRANCH  21  23
ATOM     22  N   UNL     1       1.612   1.663  18.939  0.00  0.00    +0.000 NA
ATOM     23  C   UNL     1       2.630   1.859  18.160  0.00  0.00    +0.000 C 
ATOM     24  N   UNL     1       3.783   1.140  18.326  0.00  0.00    +0.000 N 
ATOM     25  H   UNL     1       1.850   0.952  19.633  0.00  0.00    +0.000 HD
ATOM     26  H   UNL     1       3.679   0.225  18.748  0.00  0.00    +0.000 HD
ATOM     27  H   UNL     1       4.417   1.124  17.531  0.00  0.00    +0.000 HD
ENDBRANCH  21  23
ENDBRANCH   1  21
TORSDOF 4
ENDMDL
MODEL 8
REMARK VINA RESULT:      -7.9      4.203      6.204
REMARK  Name = 
REMARK  4 active torsions:
REMARK  status: ('A' for Active; 'I' for Inactive)
REMARK    1  A    between atoms: C_2  and  C_4
REMARK    2  A    between atoms: C_4  and  C_5
REMARK    3  A    between atoms: C_10  and  C_11
REMARK    4  A    between atoms: C_14  and  C_15
REMARK                            x       y       z     vdW  Elec       q    Type
REMARK                         _______ _______ _______ _____ _____    ______ ____
ROOT
ATOM      1  C   UNL     1       3.213   4.310  17.434  0.00  0.00    +0.000 A 
ATOM      2  C   UNL     1       2.502   5.170  18.286  0.00  0.00    +0.000 A 
ATOM      3  C   UNL     1       3.034   6.393  18.644  0.00  0.00    +0.000 A 
ATOM      4  C   UNL     1       4.301   6.752  18.193  0.00  0.00    +0.000 A 
ATOM      5  C   UNL     1       5.111   5.893  17.402  0.00  0.00    +0.000 A 
ATOM      6  C   UNL     1       6.482   6.185  17.053  0.00  0.00    +0.000 A 
ATOM      7  C   UNL     1       7.144   5.298  16.177  0.00  0.00    +0.000 A 
ATOM      8  C   UNL     1       6.511   4.183  15.650  0.00  0.00    +0.000 A 
ATOM      9  C   UNL     1       5.217   3.878  16.046  0.00  0.00    +0.000 A 
ATOM     10  C   UNL     1       4.509   4.683  16.959  0.00  0.00    +0.000 A 
ENDROOT
BRANCH   6  11
ATOM     11  C   UNL     1       7.259   7.343  17.594  0.00  0.00    +0.000 A 
ATOM     12  C   UNL     1       7.078   8.653  17.117  0.00  0.00    +0.000 A 
ATOM     13  C   UNL     1       7.835   9.730  17.592  0.00  0.00    +0.000 A 
ATOM     14  C   UNL     1       8.743   9.551  18.638  0.00  0.00    +0.000 A 
ATOM     15  C   UNL     1       8.889   8.269  19.182  0.00  0.00    +0.000 A 
ATOM     16  C   UNL     1       8.176   7.184  18.654  0.00  0.00    +0.000 A 
BRANCH  14  17
ATOM     17  C   UNL     1       9.528  10.711  19.196  0.00  0.00    +0.000 C 
ATOM     18  F   UNL     1       9.699  10.652  20.546  0.00  0.00    +0.000 F 
ATOM     19  F   UNL     1      10.778  10.795  18.664  0.00  0.00    +0.000 F 
ATOM     20  F   UNL     1       8.933  11.912  18.950  0.00  0.00    +0.000 F 
ENDBRANCH  14  17
ENDBRANCH   6  11
BRANCH   1  21
ATOM     21  C   UNL     1       2.540   3.001  17.070  0.00  0.00    +0.000 C 
BRANCH  21  23
ATOM     22  N   UNL     1       3.717   1.255  18.259  0.00  0.00    +0.000 NA
ATOM     23  C   UNL     1       2.616   1.931  18.146  0.00  0.00    +0.000 C 
ATOM     24  N   UNL     1       1.542   1.650  18.948  0.00  0.00    +0.000 N 
ATOM     25  H   UNL     1       3.603   0.540  18.980  0.00  0.00    +0.000 HD
ATOM     26  H   UNL     1       1.756   1.239  19.849  0.00  0.00    +0.000 HD
ATOM     27  H   UNL     1       0.837   2.379  19.019  0.00  0.00    +0.000 HD
ENDBRANCH  21  23
ENDBRANCH   1  21
TORSDOF 4
ENDMDL
MODEL 9
REMARK VINA RESULT:      -7.9      2.446      3.837
REMARK  Name = 
REMARK  4 active torsions:
REMARK  status: ('A' for Active; 'I' for Inactive)
REMARK    1  A    between atoms: C_2  and  C_4
REMARK    2  A    between atoms: C_4  and  C_5
REMARK    3  A    between atoms: C_10  and  C_11
REMARK    4  A    between atoms: C_14  and  C_15
REMARK                            x       y       z     vdW  Elec       q    Type
REMARK                         _______ _______ _______ _____ _____    ______ ____
ROOT
ATOM      1  C   UNL     1       3.661   4.602  19.199  0.00  0.00    +0.000 A 
ATOM      2  C   UNL     1       3.081   3.995  20.325  0.00  0.00    +0.000 A 
ATOM      3  C   UNL     1       2.084   4.640  21.029  0.00  0.00    +0.000 A 
ATOM      4  C   UNL     1       1.685   5.918  20.645  0.00  0.00    +0.000 A 
ATOM      5  C   UNL     1       2.291   6.626  19.572  0.00  0.00    +0.000 A 
ATOM      6  C   UNL     1       1.997   8.004  19.258  0.00  0.00    +0.000 A 
ATOM      7  C   UNL     1       2.591   8.560  18.103  0.00  0.00    +0.000 A 
ATOM      8  C   UNL     1       3.424   7.818  17.281  0.00  0.00    +0.000 A 
ATOM      9  C   UNL     1       3.752   6.516  17.631  0.00  0.00    +0.000 A 
ATOM     10  C   UNL     1       3.244   5.909  18.796  0.00  0.00    +0.000 A 
ENDROOT
BRANCH   6  11
ATOM     11  C   UNL     1       1.138   8.894  20.098  0.00  0.00    +0.000 A 
ATOM     12  C   UNL     1       0.231   9.808  19.534  0.00  0.00    +0.000 A 
ATOM     13  C   UNL     1      -0.542  10.671  20.319  0.00  0.00    +0.000 A 
ATOM     14  C   UNL     1      -0.507  10.585  21.713  0.00  0.00    +0.000 A 
ATOM     15  C   UNL     1       0.333   9.631  22.300  0.00  0.00    +0.000 A 
ATOM     16  C   UNL     1       1.154   8.818  21.506  0.00  0.00    +0.000 A 
BRANCH  14  17
ATOM     17  C   UNL     1      -1.372  11.472  22.570  0.00  0.00    +0.000 C 
ATOM     18  F   UNL     1      -2.426  12.016  21.899  0.00  0.00    +0.000 F 
ATOM     19  F   UNL     1      -1.909  10.806  23.629  0.00  0.00    +0.000 F 
ATOM     20  F   UNL     1      -0.686  12.523  23.097  0.00  0.00    +0.000 F 
ENDBRANCH  14  17
ENDBRANCH   6  11
BRANCH   1  21
ATOM     21  C   UNL     1       4.728   3.809  18.470  0.00  0.00    +0.000 C 
BRANCH  21  23
ATOM     22  N   UNL     1       6.473   5.012  19.636  0.00  0.00    +0.000 NA
ATOM     23  C   UNL     1       6.122   4.411  18.542  0.00  0.00    +0.000 C 
ATOM     24  N   UNL     1       6.974   4.364  17.470  0.00  0.00    +0.000 N 
ATOM     25  H   UNL     1       7.406   5.411  19.519  0.00  0.00    +0.000 HD
ATOM     26  H   UNL     1       7.962   4.418  17.686  0.00  0.00    +0.000 HD
ATOM     27  H   UNL     1       6.773   3.651  16.774  0.00  0.00    +0.000 HD
ENDBRANCH  21  23
ENDBRANCH   1  21
TORSDOF 4
ENDMDL
