MODEL 1
REMARK VINA RESULT:      -7.5      0.000      0.000
REMARK  Name = 
REMARK  5 active torsions:
REMARK  status: ('A' for Active; 'I' for Inactive)
REMARK    1  A    between atoms: N_1  and  C_2
REMARK    2  A    between atoms: C_3  and  C_4
REMARK    3  A    between atoms: C_4  and  C_5
REMARK    4  A    between atoms: C_12  and  C_13
REMARK    5  A    between atoms: C_13  and  C_15
REMARK                            x       y       z     vdW  Elec       q    Type
REMARK                         _______ _______ _______ _____ _____    ______ ____
ROOT
ATOM      1  C   UNL     1       2.926   4.232  19.084  0.00  0.00    +0.000 A 
ATOM      2  C   UNL     1       1.851   4.368  19.997  0.00  0.00    +0.000 A 
ATOM      3  C   UNL     1       1.522   5.658  20.456  0.00  0.00    +0.000 A 
ATOM      4  C   UNL     1       2.092   6.793  19.895  0.00  0.00    +0.000 A 
ATOM      5 CL   UNL     1       1.504   8.344  20.343  0.00  0.00    +0.000 Cl
ATOM      6  C   UNL     1       3.082   6.675  18.937  0.00  0.00    +0.000 A 
ATOM      7  C   UNL     1       3.497   5.402  18.515  0.00  0.00    +0.000 A 
ENDROOT
BRANCH   1   8
ATOM      8  N   UNL     1       3.292   2.959  18.603  0.00  0.00    +0.000 N 
ATOM      9  H   UNL     1       4.290   2.799  18.522  0.00  0.00    +0.000 HD
ATOM     10  H   UNL     1       2.818   2.759  17.714  0.00  0.00    +0.000 HD
ENDBRANCH   1   8
BRANCH   7  11
ATOM     11  C   UNL     1       4.593   5.320  17.499  0.00  0.00    +0.000 C 
ATOM     12  O   UNL     1       4.427   4.675  16.466  0.00  0.00    +0.000 OA
BRANCH  11  13
ATOM     13  C   UNL     1       5.926   5.938  17.780  0.00  0.00    +0.000 A 
ATOM     14  C   UNL     1       6.366   7.085  17.109  0.00  0.00    +0.000 A 
ATOM     15  C   UNL     1       7.536   7.724  17.512  0.00  0.00    +0.000 A 
ATOM     16  C   UNL     1       8.295   7.198  18.553  0.00  0.00    +0.000 A 
ATOM     17  C   UNL     1       7.896   6.016  19.179  0.00  0.00    +0.000 A 
ATOM     18  C   UNL     1       6.715   5.379  18.796  0.00  0.00    +0.000 A 
ENDBRANCH  11  13
ENDBRANCH   7  11
BRANCH   2  19
ATOM     19  C   UNL     1       1.120   3.167  20.579  0.00  0.00    +0.000 C 
BRANCH  19  20
ATOM     20  C   UNL     1       1.687   2.525  21.846  0.00  0.00    +0.000 C 
ATOM     21  O   UNL     1       2.935   2.384  21.888  0.00  0.00    +0.000 OA
ATOM     22  O   UNL     1       0.854   2.195  22.751  0.00  0.00    +0.000 OA
ENDBRANCH  19  20
ENDBRANCH   2  19
TORSDOF 5
ENDMDL
MODEL 2
REMARK VINA RESULT:      -7.3      2.828      3.516
REMARK  Name = 
REMARK  5 active torsions:
REMARK  status: ('A' for Active; 'I' for Inactive)
REMARK    1  A    between atoms: N_1  and  C_2
REMARK    2  A    between atoms: C_3  and  C_4
REMARK    3  A    between atoms: C_4  and  C_5
REMARK    4  A    between atoms: C_12  and  C_13
REMARK    5  A    between atoms: C_13  and  C_15
REMARK                            x       y       z     vdW  Elec       q    Type
REMARK                         _______ _______ _______ _____ _____    ______ ____
ROOT
ATOM      1  C   UNL     1       4.159   3.927  17.648  0.00  0.00    +0.000 A 
ATOM      2  C   UNL     1       2.891   4.300  18.159  0.00  0.00    +0.000 A 
ATOM      3  C   UNL     1       2.582   5.672  18.242  0.00  0.00    +0.000 A 
ATOM      4  C   UNL     1       3.399   6.634  17.666  0.00  0.00    +0.000 A 
ATOM      5 CL   UNL     1       2.872   8.270  17.613  0.00  0.00    +0.000 Cl
ATOM      6  C   UNL     1       4.600   6.272  17.085  0.00  0.00    +0.000 A 
ATOM      7  C   UNL     1       4.983   4.922  17.058  0.00  0.00    +0.000 A 
ENDROOT
BRANCH   1   8
ATOM      8  N   UNL     1       4.512   2.566  17.551  0.00  0.00    +0.000 N 
ATOM      9  H   UNL     1       4.773   2.125  18.427  0.00  0.00    +0.000 HD
ATOM     10  H   UNL     1       5.243   2.432  16.843  0.00  0.00    +0.000 HD
ENDBRANCH   1   8
BRANCH   7  11
ATOM     11  C   UNL     1       6.304   4.577  16.446  0.00  0.00    +0.000 C 
ATOM     12  O   UNL     1       7.288   4.404  17.162  0.00  0.00    +0.000 OA
BRANCH  11  13
ATOM     13  C   UNL     1       6.456   4.540  14.958  0.00  0.00    +0.000 A 
ATOM     14  C   UNL     1       7.473   5.241  14.300  0.00  0.00    +0.000 A 
ATOM     15  C   UNL     1       7.682   5.050  12.936  0.00  0.00    +0.000 A 
ATOM     16  C   UNL     1       6.853   4.197  12.215  0.00  0.00    +0.000 A 
ATOM     17  C   UNL     1       5.795   3.549  12.854  0.00  0.00    +0.000 A 
ATOM     18  C   UNL     1       5.588   3.718  14.224  0.00  0.00    +0.000 A 
ENDBRANCH  11  13
ENDBRANCH   7  11
BRANCH   2  19
ATOM     19  C   UNL     1       1.907   3.284  18.720  0.00  0.00    +0.000 C 
BRANCH  19  20
ATOM     20  C   UNL     1       2.070   2.856  20.180  0.00  0.00    +0.000 C 
ATOM     21  O   UNL     1       3.230   2.529  20.537  0.00  0.00    +0.000 OA
ATOM     22  O   UNL     1       1.026   2.872  20.908  0.00  0.00    +0.000 OA
ENDBRANCH  19  20
ENDBRANCH   2  19
TORSDOF 5
ENDMDL
MODEL 3
REMARK VINA RESULT:      -7.3      2.145      2.823
REMARK  Name = 
REMARK  5 active torsions:
REMARK  status: ('A' for Active; 'I' for Inactive)
REMARK    1  A    between atoms: N_1  and  C_2
REMARK    2  A    between atoms: C_3  and  C_4
REMARK    3  A    between atoms: C_4  and  C_5
REMARK    4  A    between atoms: C_12  and  C_13
REMARK    5  A    between atoms: C_13  and  C_15
REMARK                            x       y       z     vdW  Elec       q    Type
REMARK                         _______ _______ _______ _____ _____    ______ ____
ROOT
ATOM      1  C   UNL     1       3.923   3.758  18.939  0.00  0.00    +0.000 A 
ATOM      2  C   UNL     1       2.624   4.032  19.433  0.00  0.00    +0.000 A 
ATOM      3  C   UNL     1       2.169   5.364  19.416  0.00  0.00    +0.000 A 
ATOM      4  C   UNL     1       2.877   6.362  18.760  0.00  0.00    +0.000 A 
ATOM      5 CL   UNL     1       2.176   7.923  18.589  0.00  0.00    +0.000 Cl
ATOM      6  C   UNL     1       4.108   6.088  18.195  0.00  0.00    +0.000 A 
ATOM      7  C   UNL     1       4.634   4.789  18.267  0.00  0.00    +0.000 A 
ENDROOT
BRANCH   1   8
ATOM      8  N   UNL     1       4.420   2.439  18.941  0.00  0.00    +0.000 N 
ATOM      9  H   UNL     1       4.205   1.896  18.112  0.00  0.00    +0.000 HD
ATOM     10  H   UNL     1       4.122   1.943  19.789  0.00  0.00    +0.000 HD
ENDBRANCH   1   8
BRANCH   7  11
ATOM     11  C   UNL     1       5.983   4.542  17.668  0.00  0.00    +0.000 C 
ATOM     12  O   UNL     1       6.962   4.392  18.397  0.00  0.00    +0.000 OA
BRANCH  11  13
ATOM     13  C   UNL     1       6.164   4.573  16.184  0.00  0.00    +0.000 A 
ATOM     14  C   UNL     1       7.280   5.170  15.586  0.00  0.00    +0.000 A 
ATOM     15  C   UNL     1       7.495   5.035  14.217  0.00  0.00    +0.000 A 
ATOM     16  C   UNL     1       6.577   4.346  13.431  0.00  0.00    +0.000 A 
ATOM     17  C   UNL     1       5.427   3.808  14.011  0.00  0.00    +0.000 A 
ATOM     18  C   UNL     1       5.212   3.921  15.386  0.00  0.00    +0.000 A 
ENDBRANCH  11  13
ENDBRANCH   7  11
BRANCH   2  19
ATOM     19  C   UNL     1       1.756   2.962  20.080  0.00  0.00    +0.000 C 
BRANCH  19  20
ATOM     20  C   UNL     1       2.020   2.610  21.545  0.00  0.00    +0.000 C 
ATOM     21  O   UNL     1       1.026   2.643  22.313  0.00  0.00    +0.000 OA
ATOM     22  O   UNL     1       3.216   2.308  21.861  0.00  0.00    +0.000 OA
ENDBRANCH  19  20
ENDBRANCH   2  19
TORSDOF 5
ENDMDL
MODEL 4
REMARK VINA RESULT:      -7.3      2.132      2.751
REMARK  Name = 
REMARK  5 active torsions:
REMARK  status: ('A' for Active; 'I' for Inactive)
REMARK    1  A    between atoms: N_1  and  C_2
REMARK    2  A    between atoms: C_3  and  C_4
REMARK    3  A    between atoms: C_4  and  C_5
REMARK    4  A    between atoms: C_12  and  C_13
REMARK    5  A    between atoms: C_13  and  C_15
REMARK                            x       y       z     vdW  Elec       q    Type
REMARK                         _______ _______ _______ _____ _____    ______ ____
ROOT
ATOM      1  C   UNL     1       3.972   3.723  19.035  0.00  0.00    +0.000 A 
ATOM      2  C   UNL     1       2.650   3.987  19.471  0.00  0.00    +0.000 A 
ATOM      3  C   UNL     1       2.175   5.311  19.398  0.00  0.00    +0.000 A 
ATOM      4  C   UNL     1       2.891   6.302  18.742  0.00  0.00    +0.000 A 
ATOM      5 CL   UNL     1       2.173   7.845  18.500  0.00  0.00    +0.000 Cl
ATOM      6  C   UNL     1       4.148   6.033  18.233  0.00  0.00    +0.000 A 
ATOM      7  C   UNL     1       4.692   4.746  18.361  0.00  0.00    +0.000 A 
ENDROOT
BRANCH   1   8
ATOM      8  N   UNL     1       4.489   2.413  19.094  0.00  0.00    +0.000 N 
ATOM      9  H   UNL     1       4.220   1.808  18.326  0.00  0.00    +0.000 HD
ATOM     10  H   UNL     1       4.266   1.977  19.996  0.00  0.00    +0.000 HD
ENDBRANCH   1   8
BRANCH   7  11
ATOM     11  C   UNL     1       6.067   4.505  17.822  0.00  0.00    +0.000 C 
ATOM     12  O   UNL     1       7.030   4.474  18.585  0.00  0.00    +0.000 OA
BRANCH  11  13
ATOM     13  C   UNL     1       6.288   4.400  16.346  0.00  0.00    +0.000 A 
ATOM     14  C   UNL     1       5.440   3.651  15.522  0.00  0.00    +0.000 A 
ATOM     15  C   UNL     1       5.580   3.711  14.138  0.00  0.00    +0.000 A 
ATOM     16  C   UNL     1       6.591   4.480  13.572  0.00  0.00    +0.000 A 
ATOM     17  C   UNL     1       7.482   5.175  14.391  0.00  0.00    +0.000 A 
ATOM     18  C   UNL     1       7.338   5.137  15.780  0.00  0.00    +0.000 A 
ENDBRANCH  11  13
ENDBRANCH   7  11
BRANCH   2  19
ATOM     19  C   UNL     1       1.775   2.921  20.114  0.00  0.00    +0.000 C 
BRANCH  19  20
ATOM     20  C   UNL     1       2.018   2.584  21.587  0.00  0.00    +0.000 C 
ATOM     21  O   UNL     1       3.204   2.324  21.910  0.00  0.00    +0.000 OA
ATOM     22  O   UNL     1       1.005   2.603  22.359  0.00  0.00    +0.000 OA
ENDBRANCH  19  20
ENDBRANCH   2  19
TORSDOF 5
ENDMDL
MODEL 5
REMARK VINA RESULT:      -7.2      2.371      5.745
REMARK  Name = 
REMARK  5 active torsions:
REMARK  status: ('A' for Active; 'I' for Inactive)
REMARK    1  A    between atoms: N_1  and  C_2
REMARK    2  A    between atoms: C_3  and  C_4
REMARK    3  A    between atoms: C_4  and  C_5
REMARK    4  A    between atoms: C_12  and  C_13
REMARK    5  A    between atoms: C_13  and  C_15
REMARK                            x       y       z     vdW  Elec       q    Type
REMARK                         _______ _______ _______ _____ _____    ______ ____
ROOT
ATOM      1  C   UNL     1       4.849   5.168  17.381  0.00  0.00    +0.000 A 
ATOM      2  C   UNL     1       5.443   6.453  17.312  0.00  0.00    +0.000 A 
ATOM      3  C   UNL     1       4.600   7.580  17.338  0.00  0.00    +0.000 A 
ATOM      4  C   UNL     1       3.245   7.465  17.616  0.00  0.00    +0.000 A 
ATOM      5 CL   UNL     1       2.304   8.886  17.842  0.00  0.00    +0.000 Cl
ATOM      6  C   UNL     1       2.668   6.218  17.773  0.00  0.00    +0.000 A 
ATOM      7  C   UNL     1       3.462   5.065  17.670  0.00  0.00    +0.000 A 
ENDROOT
BRANCH   1   8
ATOM      8  N   UNL     1       5.655   4.012  17.355  0.00  0.00    +0.000 N 
ATOM      9  H   UNL     1       6.421   4.035  16.690  0.00  0.00    +0.000 HD
ATOM     10  H   UNL     1       5.079   3.173  17.218  0.00  0.00    +0.000 HD
ENDBRANCH   1   8
BRANCH   7  11
ATOM     11  C   UNL     1       2.793   3.735  17.817  0.00  0.00    +0.000 C 
ATOM     12  O   UNL     1       2.467   3.096  16.818  0.00  0.00    +0.000 OA
BRANCH  11  13
ATOM     13  C   UNL     1       2.430   3.222  19.174  0.00  0.00    +0.000 A 
ATOM     14  C   UNL     1       3.393   2.725  20.060  0.00  0.00    +0.000 A 
ATOM     15  C   UNL     1       3.040   2.411  21.370  0.00  0.00    +0.000 A 
ATOM     16  C   UNL     1       1.721   2.548  21.790  0.00  0.00    +0.000 A 
ATOM     17  C   UNL     1       0.744   2.978  20.891  0.00  0.00    +0.000 A 
ATOM     18  C   UNL     1       1.090   3.314  19.581  0.00  0.00    +0.000 A 
ENDBRANCH  11  13
ENDBRANCH   7  11
BRANCH   2  19
ATOM     19  C   UNL     1       6.937   6.650  17.102  0.00  0.00    +0.000 C 
BRANCH  19  20
ATOM     20  C   UNL     1       7.836   6.700  18.339  0.00  0.00    +0.000 C 
ATOM     21  O   UNL     1       8.428   7.787  18.552  0.00  0.00    +0.000 OA
ATOM     22  O   UNL     1       7.904   5.645  19.049  0.00  0.00    +0.000 OA
ENDBRANCH  19  20
ENDBRANCH   2  19
TORSDOF 5
ENDMDL
MODEL 6
REMARK VINA RESULT:      -7.2      2.705      3.419
REMARK  Name = 
REMARK  5 active torsions:
REMARK  status: ('A' for Active; 'I' for Inactive)
REMARK    1  A    between atoms: N_1  and  C_2
REMARK    2  A    between atoms: C_3  and  C_4
REMARK    3  A    between atoms: C_4  and  C_5
REMARK    4  A    between atoms: C_12  and  C_13
REMARK    5  A    between atoms: C_13  and  C_15
REMARK                            x       y       z     vdW  Elec       q    Type
REMARK                         _______ _______ _______ _____ _____    ______ ____
ROOT
ATOM      1  C   UNL     1       4.793   4.732  18.600  0.00  0.00    +0.000 A 
ATOM      2  C   UNL     1       3.559   5.001  19.241  0.00  0.00    +0.000 A 
ATOM      3  C   UNL     1       2.923   6.228  18.978  0.00  0.00    +0.000 A 
ATOM      4  C   UNL     1       3.374   7.078  17.977  0.00  0.00    +0.000 A 
ATOM      5 CL   UNL     1       2.441   8.459  17.556  0.00  0.00    +0.000 Cl
ATOM      6  C   UNL     1       4.532   6.783  17.281  0.00  0.00    +0.000 A 
ATOM      7  C   UNL     1       5.241   5.608  17.575  0.00  0.00    +0.000 A 
ENDROOT
BRANCH   1   8
ATOM      8  N   UNL     1       5.467   3.517  18.838  0.00  0.00    +0.000 N 
ATOM      9  H   UNL     1       5.859   3.073  18.014  0.00  0.00    +0.000 HD
ATOM     10  H   UNL     1       4.864   2.864  19.352  0.00  0.00    +0.000 HD
ENDBRANCH   1   8
BRANCH   7  11
ATOM     11  C   UNL     1       6.505   5.342  16.819  0.00  0.00    +0.000 C 
ATOM     12  O   UNL     1       7.595   5.512  17.362  0.00  0.00    +0.000 OA
BRANCH  11  13
ATOM     13  C   UNL     1       6.451   4.964  15.373  0.00  0.00    +0.000 A 
ATOM     14  C   UNL     1       7.451   5.343  14.470  0.00  0.00    +0.000 A 
ATOM     15  C   UNL     1       7.450   4.835  13.173  0.00  0.00    +0.000 A 
ATOM     16  C   UNL     1       6.430   3.986  12.757  0.00  0.00    +0.000 A 
ATOM     17  C   UNL     1       5.393   3.660  13.632  0.00  0.00    +0.000 A 
ATOM     18  C   UNL     1       5.395   4.148  14.941  0.00  0.00    +0.000 A 
ENDBRANCH  11  13
ENDBRANCH   7  11
BRANCH   2  19
ATOM     19  C   UNL     1       2.960   4.064  20.280  0.00  0.00    +0.000 C 
BRANCH  19  20
ATOM     20  C   UNL     1       2.078   2.915  19.789  0.00  0.00    +0.000 C 
ATOM     21  O   UNL     1       2.662   1.993  19.165  0.00  0.00    +0.000 OA
ATOM     22  O   UNL     1       0.835   2.983  20.057  0.00  0.00    +0.000 OA
ENDBRANCH  19  20
ENDBRANCH   2  19
TORSDOF 5
ENDMDL
MODEL 7
REMARK VINA RESULT:      -7.2      2.823      6.259
REMARK  Name = 
REMARK  5 active torsions:
REMARK  status: ('A' for Active; 'I' for Inactive)
REMARK    1  A    between atoms: N_1  and  C_2
REMARK    2  A    between atoms: C_3  and  C_4
REMARK    3  A    between atoms: C_4  and  C_5
REMARK    4  A    between atoms: C_12  and  C_13
REMARK    5  A    between atoms: C_13  and  C_15
REMARK                            x       y       z     vdW  Elec       q    Type
REMARK                         _______ _______ _______ _____ _____    ______ ____
ROOT
ATOM      1  C   UNL     1       4.832   4.214  16.733  0.00  0.00    +0.000 A 
ATOM      2  C   UNL     1       5.616   5.364  16.468  0.00  0.00    +0.000 A 
ATOM      3  C   UNL     1       5.038   6.630  16.679  0.00  0.00    +0.000 A 
ATOM      4  C   UNL     1       3.810   6.769  17.311  0.00  0.00    +0.000 A 
ATOM      5 CL   UNL     1       3.247   8.338  17.731  0.00  0.00    +0.000 Cl
ATOM      6  C   UNL     1       3.072   5.651  17.655  0.00  0.00    +0.000 A 
ATOM      7  C   UNL     1       3.579   4.371  17.383  0.00  0.00    +0.000 A 
ENDROOT
BRANCH   1   8
ATOM      8  N   UNL     1       5.370   2.927  16.532  0.00  0.00    +0.000 N 
ATOM      9  H   UNL     1       4.689   2.178  16.480  0.00  0.00    +0.000 HD
ATOM     10  H   UNL     1       6.085   2.720  17.239  0.00  0.00    +0.000 HD
ENDBRANCH   1   8
BRANCH   7  11
ATOM     11  C   UNL     1       2.735   3.189  17.745  0.00  0.00    +0.000 C 
ATOM     12  O   UNL     1       2.257   2.481  16.861  0.00  0.00    +0.000 OA
BRANCH  11  13
ATOM     13  C   UNL     1       2.390   2.922  19.176  0.00  0.00    +0.000 A 
ATOM     14  C   UNL     1       3.359   2.543  20.112  0.00  0.00    +0.000 A 
ATOM     15  C   UNL     1       3.029   2.464  21.464  0.00  0.00    +0.000 A 
ATOM     16  C   UNL     1       1.727   2.717  21.880  0.00  0.00    +0.000 A 
ATOM     17  C   UNL     1       0.741   3.028  20.942  0.00  0.00    +0.000 A 
ATOM     18  C   UNL     1       1.065   3.129  19.587  0.00  0.00    +0.000 A 
ENDBRANCH  11  13
ENDBRANCH   7  11
BRANCH   2  19
ATOM     19  C   UNL     1       7.010   5.278  15.863  0.00  0.00    +0.000 C 
BRANCH  19  20
ATOM     20  C   UNL     1       7.128   4.962  14.371  0.00  0.00    +0.000 C 
ATOM     21  O   UNL     1       7.946   5.658  13.718  0.00  0.00    +0.000 OA
ATOM     22  O   UNL     1       6.398   4.022  13.919  0.00  0.00    +0.000 OA
ENDBRANCH  19  20
ENDBRANCH   2  19
TORSDOF 5
ENDMDL
MODEL 8
REMARK VINA RESULT:      -7.1      2.664      6.430
REMARK  Name = 
REMARK  5 active torsions:
REMARK  status: ('A' for Active; 'I' for Inactive)
REMARK    1  A    between atoms: N_1  and  C_2
REMARK    2  A    between atoms: C_3  and  C_4
REMARK    3  A    between atoms: C_4  and  C_5
REMARK    4  A    between atoms: C_12  and  C_13
REMARK    5  A    between atoms: C_13  and  C_15
REMARK                            x       y       z     vdW  Elec       q    Type
REMARK                         _______ _______ _______ _____ _____    ______ ____
ROOT
ATOM      1  C   UNL     1       5.140   4.465  17.190  0.00  0.00    +0.000 A 
ATOM      2  C   UNL     1       5.897   5.319  16.351  0.00  0.00    +0.000 A 
ATOM      3  C   UNL     1       6.805   6.213  16.951  0.00  0.00    +0.000 A 
ATOM      4  C   UNL     1       7.105   6.139  18.305  0.00  0.00    +0.000 A 
ATOM      5 CL   UNL     1       8.371   7.111  18.944  0.00  0.00    +0.000 Cl
ATOM      6  C   UNL     1       6.434   5.247  19.121  0.00  0.00    +0.000 A 
ATOM      7  C   UNL     1       5.461   4.397  18.573  0.00  0.00    +0.000 A 
ENDROOT
BRANCH   1   8
ATOM      8  N   UNL     1       4.217   3.557  16.632  0.00  0.00    +0.000 N 
ATOM      9  H   UNL     1       4.366   3.339  15.653  0.00  0.00    +0.000 HD
ATOM     10  H   UNL     1       3.255   3.877  16.791  0.00  0.00    +0.000 HD
ENDBRANCH   1   8
BRANCH   7  11
ATOM     11  C   UNL     1       4.738   3.468  19.496  0.00  0.00    +0.000 C 
ATOM     12  O   UNL     1       5.251   2.399  19.820  0.00  0.00    +0.000 OA
BRANCH  11  13
ATOM     13  C   UNL     1       3.349   3.790  19.950  0.00  0.00    +0.000 A 
ATOM     14  C   UNL     1       2.928   5.107  20.165  0.00  0.00    +0.000 A 
ATOM     15  C   UNL     1       1.586   5.376  20.426  0.00  0.00    +0.000 A 
ATOM     16  C   UNL     1       0.670   4.334  20.519  0.00  0.00    +0.000 A 
ATOM     17  C   UNL     1       1.098   3.013  20.374  0.00  0.00    +0.000 A 
ATOM     18  C   UNL     1       2.437   2.734  20.092  0.00  0.00    +0.000 A 
ENDBRANCH  11  13
ENDBRANCH   7  11
BRANCH   2  19
ATOM     19  C   UNL     1       5.684   5.381  14.846  0.00  0.00    +0.000 C 
BRANCH  19  20
ATOM     20  C   UNL     1       6.744   4.748  13.943  0.00  0.00    +0.000 C 
ATOM     21  O   UNL     1       6.460   3.627  13.452  0.00  0.00    +0.000 OA
ATOM     22  O   UNL     1       7.817   5.409  13.758  0.00  0.00    +0.000 OA
ENDBRANCH  19  20
ENDBRANCH   2  19
TORSDOF 5
ENDMDL
MODEL 9
REMARK VINA RESULT:      -7.1      2.570      3.325
REMARK  Name = 
REMARK  5 active torsions:
REMARK  status: ('A' for Active; 'I' for Inactive)
REMARK    1  A    between atoms: N_1  and  C_2
REMARK    2  A    between atoms: C_3  and  C_4
REMARK    3  A    between atoms: C_4  and  C_5
REMARK    4  A    between atoms: C_12  and  C_13
REMARK    5  A    between atoms: C_13  and  C_15
REMARK                            x       y       z     vdW  Elec       q    Type
REMARK                         _______ _______ _______ _____ _____    ______ ____
ROOT
ATOM      1  C   UNL     1       4.602   4.296  19.003  0.00  0.00    +0.000 A 
ATOM      2  C   UNL     1       3.364   4.728  19.539  0.00  0.00    +0.000 A 
ATOM      3  C   UNL     1       2.895   6.009  19.189  0.00  0.00    +0.000 A 
ATOM      4  C   UNL     1       3.513   6.761  18.200  0.00  0.00    +0.000 A 
ATOM      5 CL   UNL     1       2.779   8.221  17.665  0.00  0.00    +0.000 Cl
ATOM      6  C   UNL     1       4.676   6.309  17.605  0.00  0.00    +0.000 A 
ATOM      7  C   UNL     1       5.222   5.075  17.989  0.00  0.00    +0.000 A 
ENDROOT
BRANCH   1   8
ATOM      8  N   UNL     1       5.112   3.024  19.330  0.00  0.00    +0.000 N 
ATOM      9  H   UNL     1       5.839   2.679  18.713  0.00  0.00    +0.000 HD
ATOM     10  H   UNL     1       4.350   2.340  19.414  0.00  0.00    +0.000 HD
ENDBRANCH   1   8
BRANCH   7  11
ATOM     11  C   UNL     1       6.498   4.637  17.341  0.00  0.00    +0.000 C 
ATOM     12  O   UNL     1       7.520   4.517  18.013  0.00  0.00    +0.000 OA
BRANCH  11  13
ATOM     13  C   UNL     1       6.560   4.441  15.859  0.00  0.00    +0.000 A 
ATOM     14  C   UNL     1       5.612   3.671  15.175  0.00  0.00    +0.000 A 
ATOM     15  C   UNL     1       5.607   3.647  13.782  0.00  0.00    +0.000 A 
ATOM     16  C   UNL     1       6.571   4.351  13.068  0.00  0.00    +0.000 A 
ATOM     17  C   UNL     1       7.560   5.065  13.748  0.00  0.00    +0.000 A 
ATOM     18  C   UNL     1       7.562   5.112  15.143  0.00  0.00    +0.000 A 
ENDBRANCH  11  13
ENDBRANCH   7  11
BRANCH   2  19
ATOM     19  C   UNL     1       2.587   3.907  20.558  0.00  0.00    +0.000 C 
BRANCH  19  20
ATOM     20  C   UNL     1       1.627   2.837  20.037  0.00  0.00    +0.000 C 
ATOM     21  O   UNL     1       0.401   3.077  20.170  0.00  0.00    +0.000 OA
ATOM     22  O   UNL     1       2.147   1.801  19.509  0.00  0.00    +0.000 OA
ENDBRANCH  19  20
ENDBRANCH   2  19
TORSDOF 5
ENDMDL
