MODEL 1
REMARK VINA RESULT:      -8.5      0.000      0.000
REMARK  Name = 
REMARK  6 active torsions:
REMARK  status: ('A' for Active; 'I' for Inactive)
REMARK    1  A    between atoms: C_1  and  C_2
REMARK    2  A    between atoms: C_2  and  C_3
REMARK    3  A    between atoms: C_3  and  C_4
REMARK    4  A    between atoms: C_5  and  C_6
REMARK    5  A    between atoms: C_6  and  N_7
REMARK    6  A    between atoms: C_11  and  C_12
REMARK                            x       y       z     vdW  Elec       q    Type
REMARK                         _______ _______ _______ _____ _____    ______ ____
ROOT
ATOM      1  C   UNL     1       5.156   5.152  19.316  0.00  0.00    +0.000 C 
ENDROOT
BRANCH   1   3
ATOM      2  C   UNL     1       6.541   5.496  17.214  0.00  0.00    +0.000 A 
ATOM      3  C   UNL     1       5.485   4.904  17.843  0.00  0.00    +0.000 A 
ATOM      4  N   UNL     1       4.623   4.002  17.222  0.00  0.00    +0.000 NA
ATOM      5  C   UNL     1       4.830   3.687  15.984  0.00  0.00    +0.000 A 
ATOM      6  N   UNL     1       5.885   4.234  15.285  0.00  0.00    +0.000 N 
ATOM      7  C   UNL     1       6.270   4.026  13.989  0.00  0.00    +0.000 A 
ATOM      8  C   UNL     1       7.374   4.827  13.819  0.00  0.00    +0.000 A 
ATOM      9  N   UNL     1       7.671   5.509  14.971  0.00  0.00    +0.000 NA
ATOM     10  C   UNL     1       6.753   5.136  15.847  0.00  0.00    +0.000 A 
BRANCH   2  11
ATOM     11  C   UNL     1       7.456   6.491  17.905  0.00  0.00    +0.000 C 
BRANCH  11  13
ATOM     12  C   UNL     1       8.216   8.888  17.986  0.00  0.00    +0.000 C 
ATOM     13  C   UNL     1       7.162   7.926  17.464  0.00  0.00    +0.000 C 
ENDBRANCH  11  13
ENDBRANCH   2  11
ENDBRANCH   1   3
BRANCH   1  14
ATOM     14  N   UNL     1       3.840   4.649  19.683  0.00  0.00    +0.000 N 
ATOM     15  C   UNL     1       3.623   3.326  20.003  0.00  0.00    +0.000 A 
ATOM     16  C   UNL     1       2.272   3.210  20.163  0.00  0.00    +0.000 A 
ATOM     17  N   UNL     1       1.662   4.416  19.947  0.00  0.00    +0.000 NA
ATOM     18  C   UNL     1       2.613   5.295  19.657  0.00  0.00    +0.000 A 
BRANCH  18  19
ATOM     19  C   UNL     1       2.334   6.701  19.299  0.00  0.00    +0.000 A 
ATOM     20  C   UNL     1       2.628   7.269  18.054  0.00  0.00    +0.000 A 
ATOM     21  F   UNL     1       3.268   6.579  17.103  0.00  0.00    +0.000 F 
ATOM     22  C   UNL     1       2.292   8.582  17.723  0.00  0.00    +0.000 A 
ATOM     23  C   UNL     1       1.701   9.406  18.669  0.00  0.00    +0.000 A 
ATOM     24  C   UNL     1       1.456   8.899  19.941  0.00  0.00    +0.000 A 
ATOM     25  C   UNL     1       1.761   7.566  20.242  0.00  0.00    +0.000 A 
ATOM     26  F   UNL     1       1.461   7.140  21.480  0.00  0.00    +0.000 F 
ENDBRANCH  18  19
ENDBRANCH   1  14
TORSDOF 5
ENDMDL
MODEL 2
REMARK VINA RESULT:      -8.3      0.116      1.622
REMARK  Name = 
REMARK  6 active torsions:
REMARK  status: ('A' for Active; 'I' for Inactive)
REMARK    1  A    between atoms: C_1  and  C_2
REMARK    2  A    between atoms: C_2  and  C_3
REMARK    3  A    between atoms: C_3  and  C_4
REMARK    4  A    between atoms: C_5  and  C_6
REMARK    5  A    between atoms: C_6  and  N_7
REMARK    6  A    between atoms: C_11  and  C_12
REMARK                            x       y       z     vdW  Elec       q    Type
REMARK                         _______ _______ _______ _____ _____    ______ ____
ROOT
ATOM      1  C   UNL     1       5.184   5.144  19.305  0.00  0.00    +0.000 C 
ENDROOT
BRANCH   1   3
ATOM      2  C   UNL     1       6.560   5.503  17.201  0.00  0.00    +0.000 A 
ATOM      3  C   UNL     1       5.507   4.905  17.830  0.00  0.00    +0.000 A 
ATOM      4  N   UNL     1       4.644   4.007  17.205  0.00  0.00    +0.000 NA
ATOM      5  C   UNL     1       4.847   3.700  15.964  0.00  0.00    +0.000 A 
ATOM      6  N   UNL     1       5.898   4.254  15.265  0.00  0.00    +0.000 N 
ATOM      7  C   UNL     1       6.279   4.054  13.966  0.00  0.00    +0.000 A 
ATOM      8  C   UNL     1       7.382   4.858  13.798  0.00  0.00    +0.000 A 
ATOM      9  N   UNL     1       7.681   5.533  14.953  0.00  0.00    +0.000 NA
ATOM     10  C   UNL     1       6.768   5.153  15.830  0.00  0.00    +0.000 A 
BRANCH   2  11
ATOM     11  C   UNL     1       7.476   6.495  17.895  0.00  0.00    +0.000 C 
BRANCH  11  13
ATOM     12  C   UNL     1       8.230   8.894  17.948  0.00  0.00    +0.000 C 
ATOM     13  C   UNL     1       7.129   7.937  17.522  0.00  0.00    +0.000 C 
ENDBRANCH  11  13
ENDBRANCH   2  11
ENDBRANCH   1   3
BRANCH   1  14
ATOM     14  N   UNL     1       3.892   4.588  19.686  0.00  0.00    +0.000 N 
ATOM     15  C   UNL     1       3.725   3.250  19.973  0.00  0.00    +0.000 A 
ATOM     16  C   UNL     1       2.381   3.087  20.159  0.00  0.00    +0.000 A 
ATOM     17  N   UNL     1       1.730   4.279  19.991  0.00  0.00    +0.000 NA
ATOM     18  C   UNL     1       2.646   5.195  19.706  0.00  0.00    +0.000 A 
BRANCH  18  19
ATOM     19  C   UNL     1       2.315   6.601  19.396  0.00  0.00    +0.000 A 
ATOM     20  C   UNL     1       1.759   7.500  20.313  0.00  0.00    +0.000 A 
ATOM     21  F   UNL     1       1.409   7.116  21.546  0.00  0.00    +0.000 F 
ATOM     22  C   UNL     1       1.520   8.841  20.009  0.00  0.00    +0.000 A 
ATOM     23  C   UNL     1       1.770   9.317  18.731  0.00  0.00    +0.000 A 
ATOM     24  C   UNL     1       2.258   8.437  17.771  0.00  0.00    +0.000 A 
ATOM     25  C   UNL     1       2.533   7.105  18.105  0.00  0.00    +0.000 A 
ATOM     26  F   UNL     1       3.037   6.328  17.134  0.00  0.00    +0.000 F 
ENDBRANCH  18  19
ENDBRANCH   1  14
TORSDOF 5
ENDMDL
MODEL 3
REMARK VINA RESULT:      -7.8      1.564      3.440
REMARK  Name = 
REMARK  6 active torsions:
REMARK  status: ('A' for Active; 'I' for Inactive)
REMARK    1  A    between atoms: C_1  and  C_2
REMARK    2  A    between atoms: C_2  and  C_3
REMARK    3  A    between atoms: C_3  and  C_4
REMARK    4  A    between atoms: C_5  and  C_6
REMARK    5  A    between atoms: C_6  and  N_7
REMARK    6  A    between atoms: C_11  and  C_12
REMARK                            x       y       z     vdW  Elec       q    Type
REMARK                         _______ _______ _______ _____ _____    ______ ____
ROOT
ATOM      1  C   UNL     1       4.965   5.286  18.144  0.00  0.00    +0.000 C 
ENDROOT
BRANCH   1   3
ATOM      2  C   UNL     1       6.683   5.572  16.294  0.00  0.00    +0.000 A 
ATOM      3  C   UNL     1       5.487   5.072  16.722  0.00  0.00    +0.000 A 
ATOM      4  N   UNL     1       4.642   4.304  15.925  0.00  0.00    +0.000 NA
ATOM      5  C   UNL     1       5.001   4.026  14.713  0.00  0.00    +0.000 A 
ATOM      6  N   UNL     1       6.201   4.485  14.213  0.00  0.00    +0.000 N 
ATOM      7  C   UNL     1       6.757   4.296  12.977  0.00  0.00    +0.000 A 
ATOM      8  C   UNL     1       7.951   4.976  13.022  0.00  0.00    +0.000 A 
ATOM      9  N   UNL     1       8.137   5.565  14.246  0.00  0.00    +0.000 NA
ATOM     10  C   UNL     1       7.063   5.256  14.952  0.00  0.00    +0.000 A 
BRANCH   2  11
ATOM     11  C   UNL     1       7.580   6.424  17.175  0.00  0.00    +0.000 C 
BRANCH  11  13
ATOM     12  C   UNL     1       8.149   8.764  17.901  0.00  0.00    +0.000 C 
ATOM     13  C   UNL     1       7.149   7.892  17.161  0.00  0.00    +0.000 C 
ENDBRANCH  11  13
ENDBRANCH   2  11
ENDBRANCH   1   3
BRANCH   1  14
ATOM     14  N   UNL     1       3.808   6.170  18.183  0.00  0.00    +0.000 N 
ATOM     15  C   UNL     1       3.888   7.499  17.825  0.00  0.00    +0.000 A 
ATOM     16  C   UNL     1       2.658   8.022  18.109  0.00  0.00    +0.000 A 
ATOM     17  N   UNL     1       1.838   7.057  18.628  0.00  0.00    +0.000 NA
ATOM     18  C   UNL     1       2.533   5.928  18.672  0.00  0.00    +0.000 A 
BRANCH  18  19
ATOM     19  C   UNL     1       2.000   4.670  19.236  0.00  0.00    +0.000 A 
ATOM     20  C   UNL     1       1.889   4.407  20.605  0.00  0.00    +0.000 A 
ATOM     21  F   UNL     1       2.340   5.269  21.523  0.00  0.00    +0.000 F 
ATOM     22  C   UNL     1       1.318   3.236  21.107  0.00  0.00    +0.000 A 
ATOM     23  C   UNL     1       0.896   2.242  20.236  0.00  0.00    +0.000 A 
ATOM     24  C   UNL     1       1.054   2.438  18.868  0.00  0.00    +0.000 A 
ATOM     25  C   UNL     1       1.589   3.637  18.381  0.00  0.00    +0.000 A 
ATOM     26  F   UNL     1       1.675   3.765  17.048  0.00  0.00    +0.000 F 
ENDBRANCH  18  19
ENDBRANCH   1  14
TORSDOF 5
ENDMDL
MODEL 4
REMARK VINA RESULT:      -7.7      1.551      3.094
REMARK  Name = 
REMARK  6 active torsions:
REMARK  status: ('A' for Active; 'I' for Inactive)
REMARK    1  A    between atoms: C_1  and  C_2
REMARK    2  A    between atoms: C_2  and  C_3
REMARK    3  A    between atoms: C_3  and  C_4
REMARK    4  A    between atoms: C_5  and  C_6
REMARK    5  A    between atoms: C_6  and  N_7
REMARK    6  A    between atoms: C_11  and  C_12
REMARK                            x       y       z     vdW  Elec       q    Type
REMARK                         _______ _______ _______ _____ _____    ______ ____
ROOT
ATOM      1  C   UNL     1       4.949   5.337  18.185  0.00  0.00    +0.000 C 
ENDROOT
BRANCH   1   3
ATOM      2  C   UNL     1       6.668   5.592  16.333  0.00  0.00    +0.000 A 
ATOM      3  C   UNL     1       5.466   5.113  16.763  0.00  0.00    +0.000 A 
ATOM      4  N   UNL     1       4.607   4.357  15.969  0.00  0.00    +0.000 NA
ATOM      5  C   UNL     1       4.960   4.071  14.756  0.00  0.00    +0.000 A 
ATOM      6  N   UNL     1       6.167   4.509  14.254  0.00  0.00    +0.000 N 
ATOM      7  C   UNL     1       6.717   4.310  13.017  0.00  0.00    +0.000 A 
ATOM      8  C   UNL     1       7.922   4.970  13.060  0.00  0.00    +0.000 A 
ATOM      9  N   UNL     1       8.119   5.559  14.282  0.00  0.00    +0.000 NA
ATOM     10  C   UNL     1       7.041   5.268  14.991  0.00  0.00    +0.000 A 
BRANCH   2  11
ATOM     11  C   UNL     1       7.580   6.432  17.210  0.00  0.00    +0.000 C 
BRANCH  11  13
ATOM     12  C   UNL     1       8.179   8.755  17.965  0.00  0.00    +0.000 C 
ATOM     13  C   UNL     1       7.234   7.919  17.118  0.00  0.00    +0.000 C 
ENDBRANCH  11  13
ENDBRANCH   2  11
ENDBRANCH   1   3
BRANCH   1  14
ATOM     14  N   UNL     1       3.787   6.214  18.221  0.00  0.00    +0.000 N 
ATOM     15  C   UNL     1       3.867   7.553  17.902  0.00  0.00    +0.000 A 
ATOM     16  C   UNL     1       2.628   8.062  18.170  0.00  0.00    +0.000 A 
ATOM     17  N   UNL     1       1.802   7.079  18.644  0.00  0.00    +0.000 NA
ATOM     18  C   UNL     1       2.502   5.952  18.674  0.00  0.00    +0.000 A 
BRANCH  18  19
ATOM     19  C   UNL     1       1.963   4.677  19.189  0.00  0.00    +0.000 A 
ATOM     20  C   UNL     1       1.534   3.620  18.380  0.00  0.00    +0.000 A 
ATOM     21  F   UNL     1       1.511   3.723  17.046  0.00  0.00    +0.000 F 
ATOM     22  C   UNL     1       1.091   2.402  18.898  0.00  0.00    +0.000 A 
ATOM     23  C   UNL     1       0.998   2.225  20.270  0.00  0.00    +0.000 A 
ATOM     24  C   UNL     1       1.350   3.278  21.107  0.00  0.00    +0.000 A 
ATOM     25  C   UNL     1       1.832   4.478  20.571  0.00  0.00    +0.000 A 
ATOM     26  F   UNL     1       2.187   5.433  21.446  0.00  0.00    +0.000 F 
ENDBRANCH  18  19
ENDBRANCH   1  14
TORSDOF 5
ENDMDL
MODEL 5
REMARK VINA RESULT:      -7.7      2.651      6.407
REMARK  Name = 
REMARK  6 active torsions:
REMARK  status: ('A' for Active; 'I' for Inactive)
REMARK    1  A    between atoms: C_1  and  C_2
REMARK    2  A    between atoms: C_2  and  C_3
REMARK    3  A    between atoms: C_3  and  C_4
REMARK    4  A    between atoms: C_5  and  C_6
REMARK    5  A    between atoms: C_6  and  N_7
REMARK    6  A    between atoms: C_11  and  C_12
REMARK                            x       y       z     vdW  Elec       q    Type
REMARK                         _______ _______ _______ _____ _____    ______ ____
ROOT
ATOM      1  C   UNL     1       2.641   6.409  19.828  0.00  0.00    +0.000 C 
ENDROOT
BRANCH   1   3
ATOM      2  C   UNL     1       1.284   8.528  20.169  0.00  0.00    +0.000 A 
ATOM      3  C   UNL     1       2.102   7.769  19.384  0.00  0.00    +0.000 A 
ATOM      4  N   UNL     1       2.546   8.162  18.123  0.00  0.00    +0.000 NA
ATOM      5  C   UNL     1       2.183   9.316  17.661  0.00  0.00    +0.000 A 
ATOM      6  N   UNL     1       1.367  10.145  18.401  0.00  0.00    +0.000 N 
ATOM      7  C   UNL     1       0.884  11.388  18.094  0.00  0.00    +0.000 A 
ATOM      8  C   UNL     1       0.123  11.746  19.182  0.00  0.00    +0.000 A 
ATOM      9  N   UNL     1       0.133  10.761  20.136  0.00  0.00    +0.000 NA
ATOM     10  C   UNL     1       0.892   9.799  19.641  0.00  0.00    +0.000 A 
BRANCH   2  11
ATOM     11  C   UNL     1       0.796   8.071  21.532  0.00  0.00    +0.000 C 
BRANCH  11  13
ATOM     12  C   UNL     1      -0.081   9.537  23.379  0.00  0.00    +0.000 C 
ATOM     13  C   UNL     1       1.156   9.079  22.625  0.00  0.00    +0.000 C 
ENDBRANCH  11  13
ENDBRANCH   2  11
ENDBRANCH   1   3
BRANCH   1  14
ATOM     14  N   UNL     1       2.742   5.465  18.724  0.00  0.00    +0.000 N 
ATOM     15  C   UNL     1       1.702   4.632  18.372  0.00  0.00    +0.000 A 
ATOM     16  C   UNL     1       2.205   3.819  17.396  0.00  0.00    +0.000 A 
ATOM     17  N   UNL     1       3.515   4.129  17.147  0.00  0.00    +0.000 NA
ATOM     18  C   UNL     1       3.845   5.131  17.951  0.00  0.00    +0.000 A 
BRANCH  18  19
ATOM     19  C   UNL     1       5.206   5.702  18.016  0.00  0.00    +0.000 A 
ATOM     20  C   UNL     1       5.696   6.670  17.133  0.00  0.00    +0.000 A 
ATOM     21  F   UNL     1       4.972   7.101  16.094  0.00  0.00    +0.000 F 
ATOM     22  C   UNL     1       6.965   7.238  17.261  0.00  0.00    +0.000 A 
ATOM     23  C   UNL     1       7.825   6.798  18.256  0.00  0.00    +0.000 A 
ATOM     24  C   UNL     1       7.399   5.787  19.111  0.00  0.00    +0.000 A 
ATOM     25  C   UNL     1       6.107   5.258  18.995  0.00  0.00    +0.000 A 
ATOM     26  F   UNL     1       5.757   4.312  19.881  0.00  0.00    +0.000 F 
ENDBRANCH  18  19
ENDBRANCH   1  14
TORSDOF 5
ENDMDL
MODEL 6
REMARK VINA RESULT:      -7.6      2.653      6.514
REMARK  Name = 
REMARK  6 active torsions:
REMARK  status: ('A' for Active; 'I' for Inactive)
REMARK    1  A    between atoms: C_1  and  C_2
REMARK    2  A    between atoms: C_2  and  C_3
REMARK    3  A    between atoms: C_3  and  C_4
REMARK    4  A    between atoms: C_5  and  C_6
REMARK    5  A    between atoms: C_6  and  N_7
REMARK    6  A    between atoms: C_11  and  C_12
REMARK                            x       y       z     vdW  Elec       q    Type
REMARK                         _______ _______ _______ _____ _____    ______ ____
ROOT
ATOM      1  C   UNL     1       2.519   6.306  19.858  0.00  0.00    +0.000 C 
ENDROOT
BRANCH   1   3
ATOM      2  C   UNL     1       1.461   8.576  20.279  0.00  0.00    +0.000 A 
ATOM      3  C   UNL     1       2.068   7.702  19.426  0.00  0.00    +0.000 A 
ATOM      4  N   UNL     1       2.360   7.997  18.096  0.00  0.00    +0.000 NA
ATOM      5  C   UNL     1       2.059   9.167  17.631  0.00  0.00    +0.000 A 
ATOM      6  N   UNL     1       1.454  10.109  18.436  0.00  0.00    +0.000 N 
ATOM      7  C   UNL     1       1.067  11.387  18.138  0.00  0.00    +0.000 A 
ATOM      8  C   UNL     1       0.517  11.867  19.303  0.00  0.00    +0.000 A 
ATOM      9  N   UNL     1       0.563  10.923  20.296  0.00  0.00    +0.000 NA
ATOM     10  C   UNL     1       1.134   9.863  19.747  0.00  0.00    +0.000 A 
BRANCH   2  11
ATOM     11  C   UNL     1       1.134   8.226  21.720  0.00  0.00    +0.000 C 
BRANCH  11  13
ATOM     12  C   UNL     1      -0.364   9.519  23.273  0.00  0.00    +0.000 C 
ATOM     13  C   UNL     1      -0.310   8.589  22.072  0.00  0.00    +0.000 C 
ENDBRANCH  11  13
ENDBRANCH   2  11
ENDBRANCH   1   3
BRANCH   1  14
ATOM     14  N   UNL     1       2.635   5.388  18.734  0.00  0.00    +0.000 N 
ATOM     15  C   UNL     1       1.599   4.566  18.347  0.00  0.00    +0.000 A 
ATOM     16  C   UNL     1       2.115   3.774  17.360  0.00  0.00    +0.000 A 
ATOM     17  N   UNL     1       3.429   4.087  17.139  0.00  0.00    +0.000 NA
ATOM     18  C   UNL     1       3.749   5.069  17.970  0.00  0.00    +0.000 A 
BRANCH  18  19
ATOM     19  C   UNL     1       5.110   5.635  18.069  0.00  0.00    +0.000 A 
ATOM     20  C   UNL     1       6.046   5.268  19.043  0.00  0.00    +0.000 A 
ATOM     21  F   UNL     1       5.738   4.412  20.023  0.00  0.00    +0.000 F 
ATOM     22  C   UNL     1       7.347   5.772  19.070  0.00  0.00    +0.000 A 
ATOM     23  C   UNL     1       7.739   6.729  18.146  0.00  0.00    +0.000 A 
ATOM     24  C   UNL     1       6.815   7.171  17.205  0.00  0.00    +0.000 A 
ATOM     25  C   UNL     1       5.527   6.624  17.166  0.00  0.00    +0.000 A 
ATOM     26  F   UNL     1       4.705   7.075  16.205  0.00  0.00    +0.000 F 
ENDBRANCH  18  19
ENDBRANCH   1  14
TORSDOF 5
ENDMDL
MODEL 7
REMARK VINA RESULT:      -7.4      0.956      1.083
REMARK  Name = 
REMARK  6 active torsions:
REMARK  status: ('A' for Active; 'I' for Inactive)
REMARK    1  A    between atoms: C_1  and  C_2
REMARK    2  A    between atoms: C_2  and  C_3
REMARK    3  A    between atoms: C_3  and  C_4
REMARK    4  A    between atoms: C_5  and  C_6
REMARK    5  A    between atoms: C_6  and  N_7
REMARK    6  A    between atoms: C_11  and  C_12
REMARK                            x       y       z     vdW  Elec       q    Type
REMARK                         _______ _______ _______ _____ _____    ______ ____
ROOT
ATOM      1  C   UNL     1       5.078   4.034  18.877  0.00  0.00    +0.000 C 
ENDROOT
BRANCH   1   3
ATOM      2  C   UNL     1       6.637   4.793  17.021  0.00  0.00    +0.000 A 
ATOM      3  C   UNL     1       5.474   4.196  17.409  0.00  0.00    +0.000 A 
ATOM      4  N   UNL     1       4.549   3.655  16.517  0.00  0.00    +0.000 NA
ATOM      5  C   UNL     1       4.799   3.701  15.248  0.00  0.00    +0.000 A 
ATOM      6  N   UNL     1       5.960   4.277  14.780  0.00  0.00    +0.000 N 
ATOM      7  C   UNL     1       6.404   4.416  13.493  0.00  0.00    +0.000 A 
ATOM      8  C   UNL     1       7.610   5.066  13.607  0.00  0.00    +0.000 A 
ATOM      9  N   UNL     1       7.911   5.320  14.920  0.00  0.00    +0.000 NA
ATOM     10  C   UNL     1       6.896   4.835  15.615  0.00  0.00    +0.000 A 
BRANCH   2  11
ATOM     11  C   UNL     1       7.622   5.394  18.008  0.00  0.00    +0.000 C 
BRANCH  11  13
ATOM     12  C   UNL     1       7.742   7.844  17.453  0.00  0.00    +0.000 C 
ATOM     13  C   UNL     1       7.208   6.806  18.426  0.00  0.00    +0.000 C 
ENDBRANCH  11  13
ENDBRANCH   2  11
ENDBRANCH   1   3
BRANCH   1  14
ATOM     14  N   UNL     1       3.724   3.524  19.034  0.00  0.00    +0.000 N 
ATOM     15  C   UNL     1       3.427   2.182  18.922  0.00  0.00    +0.000 A 
ATOM     16  C   UNL     1       2.066   2.106  19.001  0.00  0.00    +0.000 A 
ATOM     17  N   UNL     1       1.527   3.355  19.153  0.00  0.00    +0.000 NA
ATOM     18  C   UNL     1       2.533   4.220  19.176  0.00  0.00    +0.000 A 
BRANCH  18  19
ATOM     19  C   UNL     1       2.341   5.683  19.265  0.00  0.00    +0.000 A 
ATOM     20  C   UNL     1       2.618   6.577  18.225  0.00  0.00    +0.000 A 
ATOM     21  F   UNL     1       3.162   6.166  17.074  0.00  0.00    +0.000 F 
ATOM     22  C   UNL     1       2.363   7.946  18.316  0.00  0.00    +0.000 A 
ATOM     23  C   UNL     1       1.878   8.484  19.498  0.00  0.00    +0.000 A 
ATOM     24  C   UNL     1       1.655   7.636  20.579  0.00  0.00    +0.000 A 
ATOM     25  C   UNL     1       1.876   6.259  20.456  0.00  0.00    +0.000 A 
ATOM     26  F   UNL     1       1.602   5.503  21.531  0.00  0.00    +0.000 F 
ENDBRANCH  18  19
ENDBRANCH   1  14
TORSDOF 5
ENDMDL
MODEL 8
REMARK VINA RESULT:      -7.2      2.594      6.500
REMARK  Name = 
REMARK  6 active torsions:
REMARK  status: ('A' for Active; 'I' for Inactive)
REMARK    1  A    between atoms: C_1  and  C_2
REMARK    2  A    between atoms: C_2  and  C_3
REMARK    3  A    between atoms: C_3  and  C_4
REMARK    4  A    between atoms: C_5  and  C_6
REMARK    5  A    between atoms: C_6  and  N_7
REMARK    6  A    between atoms: C_11  and  C_12
REMARK                            x       y       z     vdW  Elec       q    Type
REMARK                         _______ _______ _______ _____ _____    ______ ____
ROOT
ATOM      1  C   UNL     1       4.697   5.535  16.765  0.00  0.00    +0.000 C 
ENDROOT
BRANCH   1   3
ATOM      2  C   UNL     1       3.010   5.195  18.633  0.00  0.00    +0.000 A 
ATOM      3  C   UNL     1       3.628   4.734  17.507  0.00  0.00    +0.000 A 
ATOM      4  N   UNL     1       3.332   3.509  16.911  0.00  0.00    +0.000 NA
ATOM      5  C   UNL     1       2.412   2.762  17.432  0.00  0.00    +0.000 A 
ATOM      6  N   UNL     1       1.735   3.166  18.563  0.00  0.00    +0.000 N 
ATOM      7  C   UNL     1       0.739   2.531  19.253  0.00  0.00    +0.000 A 
ATOM      8  C   UNL     1       0.438   3.378  20.294  0.00  0.00    +0.000 A 
ATOM      9  N   UNL     1       1.217   4.506  20.252  0.00  0.00    +0.000 NA
ATOM     10  C   UNL     1       1.998   4.356  19.196  0.00  0.00    +0.000 A 
BRANCH   2  11
ATOM     11  C   UNL     1       3.363   6.524  19.278  0.00  0.00    +0.000 C 
BRANCH  11  13
ATOM     12  C   UNL     1       2.488   8.311  17.738  0.00  0.00    +0.000 C 
ATOM     13  C   UNL     1       2.269   7.568  19.046  0.00  0.00    +0.000 C 
ENDBRANCH  11  13
ENDBRANCH   2  11
ENDBRANCH   1   3
BRANCH   1  14
ATOM     14  N   UNL     1       6.044   5.060  17.049  0.00  0.00    +0.000 N 
ATOM     15  C   UNL     1       6.585   5.103  18.316  0.00  0.00    +0.000 A 
ATOM     16  C   UNL     1       7.882   4.700  18.168  0.00  0.00    +0.000 A 
ATOM     17  N   UNL     1       8.146   4.418  16.855  0.00  0.00    +0.000 NA
ATOM     18  C   UNL     1       7.029   4.633  16.171  0.00  0.00    +0.000 A 
BRANCH  18  19
ATOM     19  C   UNL     1       6.940   4.496  14.703  0.00  0.00    +0.000 A 
ATOM     20  C   UNL     1       7.690   5.251  13.795  0.00  0.00    +0.000 A 
ATOM     21  F   UNL     1       8.507   6.229  14.203  0.00  0.00    +0.000 F 
ATOM     22  C   UNL     1       7.632   5.052  12.415  0.00  0.00    +0.000 A 
ATOM     23  C   UNL     1       6.754   4.119  11.885  0.00  0.00    +0.000 A 
ATOM     24  C   UNL     1       5.940   3.396  12.752  0.00  0.00    +0.000 A 
ATOM     25  C   UNL     1       6.042   3.579  14.137  0.00  0.00    +0.000 A 
ATOM     26  F   UNL     1       5.250   2.819  14.909  0.00  0.00    +0.000 F 
ENDBRANCH  18  19
ENDBRANCH   1  14
TORSDOF 5
ENDMDL
MODEL 9
REMARK VINA RESULT:      -7.1      2.495      6.753
REMARK  Name = 
REMARK  6 active torsions:
REMARK  status: ('A' for Active; 'I' for Inactive)
REMARK    1  A    between atoms: C_1  and  C_2
REMARK    2  A    between atoms: C_2  and  C_3
REMARK    3  A    between atoms: C_3  and  C_4
REMARK    4  A    between atoms: C_5  and  C_6
REMARK    5  A    between atoms: C_6  and  N_7
REMARK    6  A    between atoms: C_11  and  C_12
REMARK                            x       y       z     vdW  Elec       q    Type
REMARK                         _______ _______ _______ _____ _____    ______ ____
ROOT
ATOM      1  C   UNL     1       2.523   6.516  17.479  0.00  0.00    +0.000 C 
ENDROOT
BRANCH   1   3
ATOM      2  C   UNL     1       1.908   7.283  19.821  0.00  0.00    +0.000 A 
ATOM      3  C   UNL     1       2.017   7.548  18.487  0.00  0.00    +0.000 A 
ATOM      4  N   UNL     1       1.705   8.781  17.917  0.00  0.00    +0.000 NA
ATOM      5  C   UNL     1       1.303   9.744  18.684  0.00  0.00    +0.000 A 
ATOM      6  N   UNL     1       1.180   9.556  20.044  0.00  0.00    +0.000 N 
ATOM      7  C   UNL     1       0.783  10.439  21.011  0.00  0.00    +0.000 A 
ATOM      8  C   UNL     1       0.840   9.723  22.183  0.00  0.00    +0.000 A 
ATOM      9  N   UNL     1       1.262   8.438  21.956  0.00  0.00    +0.000 NA
ATOM     10  C   UNL     1       1.461   8.358  20.652  0.00  0.00    +0.000 A 
BRANCH   2  11
ATOM     11  C   UNL     1       2.234   5.926  20.418  0.00  0.00    +0.000 C 
BRANCH  11  13
ATOM     12  C   UNL     1       1.368   3.627  20.959  0.00  0.00    +0.000 C 
ATOM     13  C   UNL     1       1.032   4.982  20.359  0.00  0.00    +0.000 C 
ENDBRANCH  11  13
ENDBRANCH   2  11
ENDBRANCH   1   3
BRANCH   1  14
ATOM     14  N   UNL     1       3.975   6.404  17.482  0.00  0.00    +0.000 N 
ATOM     15  C   UNL     1       4.791   7.427  17.050  0.00  0.00    +0.000 A 
ATOM     16  C   UNL     1       6.058   6.915  17.080  0.00  0.00    +0.000 A 
ATOM     17  N   UNL     1       6.036   5.617  17.512  0.00  0.00    +0.000 NA
ATOM     18  C   UNL     1       4.771   5.303  17.760  0.00  0.00    +0.000 A 
BRANCH  18  19
ATOM     19  C   UNL     1       4.340   3.956  18.188  0.00  0.00    +0.000 A 
ATOM     20  C   UNL     1       3.469   3.140  17.458  0.00  0.00    +0.000 A 
ATOM     21  F   UNL     1       2.891   3.565  16.329  0.00  0.00    +0.000 F 
ATOM     22  C   UNL     1       3.134   1.844  17.856  0.00  0.00    +0.000 A 
ATOM     23  C   UNL     1       3.614   1.341  19.055  0.00  0.00    +0.000 A 
ATOM     24  C   UNL     1       4.428   2.149  19.843  0.00  0.00    +0.000 A 
ATOM     25  C   UNL     1       4.789   3.430  19.408  0.00  0.00    +0.000 A 
ATOM     26  F   UNL     1       5.607   4.133  20.207  0.00  0.00    +0.000 F 
ENDBRANCH  18  19
ENDBRANCH   1  14
TORSDOF 5
ENDMDL
