MODEL 1
REMARK VINA RESULT:      -6.8      0.000      0.000
REMARK  Name = 
REMARK  7 active torsions:
REMARK  status: ('A' for Active; 'I' for Inactive)
REMARK    1  A    between atoms: C_1  and  O_2
REMARK    2  A    between atoms: O_2  and  C_3
REMARK    3  A    between atoms: C_3  and  C_4
REMARK    4  A    between atoms: N_6  and  C_7
REMARK    5  A    between atoms: C_7  and  C_8
REMARK    6  A    between atoms: N_19  and  C_20
REMARK    7  A    between atoms: C_20  and  C_21
REMARK                            x       y       z     vdW  Elec       q    Type
REMARK                         _______ _______ _______ _____ _____    ______ ____
ROOT
ATOM      1  C   UNL     1       4.324   3.834  17.442  0.00  0.00    +0.000 C 
ATOM      2  C   UNL     1       5.796   4.244  17.085  0.00  0.00    +0.000 C 
ATOM      3  N   UNL     1       5.959   5.567  16.419  0.00  0.00    +0.000 NA
ATOM      4  C   UNL     1       5.511   6.659  17.334  0.00  0.00    +0.000 C 
ATOM      5  C   UNL     1       4.203   6.319  17.965  0.00  0.00    +0.000 A 
ATOM      6  N   UNL     1       3.337   7.217  18.505  0.00  0.00    +0.000 NA
ATOM      7  N   UNL     1       2.264   6.547  18.910  0.00  0.00    +0.000 NA
ATOM      8  N   UNL     1       2.438   5.237  18.607  0.00  0.00    +0.000 N 
ATOM      9  C   UNL     1       3.671   5.047  18.042  0.00  0.00    +0.000 A 
ENDROOT
BRANCH   1  10
ATOM     10  C   UNL     1       4.361   2.583  18.326  0.00  0.00    +0.000 C 
BRANCH  10  12
ATOM     11  C   UNL     1       4.826   1.841  20.526  0.00  0.00    +0.000 C 
ATOM     12  O   UNL     1       4.901   2.920  19.605  0.00  0.00    +0.000 OA
ENDBRANCH  10  12
ENDBRANCH   1  10
BRANCH   3  13
ATOM     13  C   UNL     1       5.247   5.665  15.129  0.00  0.00    +0.000 C 
BRANCH  13  14
ATOM     14  C   UNL     1       5.875   4.841  14.021  0.00  0.00    +0.000 A 
ATOM     15  C   UNL     1       7.198   5.084  13.616  0.00  0.00    +0.000 A 
ATOM     16  C   UNL     1       7.770   4.338  12.584  0.00  0.00    +0.000 A 
ATOM     17  C   UNL     1       7.025   3.345  11.963  0.00  0.00    +0.000 A 
ATOM     18  F   UNL     1       7.575   2.631  10.972  0.00  0.00    +0.000 F 
ATOM     19  C   UNL     1       5.717   3.082  12.352  0.00  0.00    +0.000 A 
ATOM     20  C   UNL     1       5.140   3.831  13.381  0.00  0.00    +0.000 A 
ENDBRANCH  13  14
ENDBRANCH   3  13
BRANCH   8  21
ATOM     21  C   UNL     1       1.382   4.259  18.859  0.00  0.00    +0.000 C 
BRANCH  21  22
ATOM     22  C   UNL     1       0.982   4.069  20.294  0.00  0.00    +0.000 C 
ATOM     23  C   UNL     1       1.279   2.753  20.978  0.00  0.00    +0.000 C 
ATOM     24  C   UNL     1       2.038   3.988  21.374  0.00  0.00    +0.000 C 
ENDBRANCH  21  22
ENDBRANCH   8  21
TORSDOF 6
ENDMDL
MODEL 2
REMARK VINA RESULT:      -6.3      4.399      7.355
REMARK  Name = 
REMARK  7 active torsions:
REMARK  status: ('A' for Active; 'I' for Inactive)
REMARK    1  A    between atoms: C_1  and  O_2
REMARK    2  A    between atoms: O_2  and  C_3
REMARK    3  A    between atoms: C_3  and  C_4
REMARK    4  A    between atoms: N_6  and  C_7
REMARK    5  A    between atoms: C_7  and  C_8
REMARK    6  A    between atoms: N_19  and  C_20
REMARK    7  A    between atoms: C_20  and  C_21
REMARK                            x       y       z     vdW  Elec       q    Type
REMARK                         _______ _______ _______ _____ _____    ______ ____
ROOT
ATOM      1  C   UNL     1       4.783   5.281  18.448  0.00  0.00    +0.000 C 
ATOM      2  C   UNL     1       4.144   5.869  19.756  0.00  0.00    +0.000 C 
ATOM      3  N   UNL     1       2.733   6.330  19.639  0.00  0.00    +0.000 NA
ATOM      4  C   UNL     1       1.842   5.177  19.310  0.00  0.00    +0.000 C 
ATOM      5  C   UNL     1       2.430   4.349  18.217  0.00  0.00    +0.000 A 
ATOM      6  N   UNL     1       1.732   3.500  17.417  0.00  0.00    +0.000 NA
ATOM      7  N   UNL     1       2.582   2.993  16.531  0.00  0.00    +0.000 NA
ATOM      8  N   UNL     1       3.805   3.533  16.754  0.00  0.00    +0.000 N 
ATOM      9  C   UNL     1       3.758   4.369  17.838  0.00  0.00    +0.000 A 
ENDROOT
BRANCH   1  10
ATOM     10  C   UNL     1       6.130   4.639  18.801  0.00  0.00    +0.000 C 
BRANCH  10  12
ATOM     11  C   UNL     1       8.036   5.926  19.368  0.00  0.00    +0.000 C 
ATOM     12  O   UNL     1       6.780   5.422  19.803  0.00  0.00    +0.000 OA
ENDBRANCH  10  12
ENDBRANCH   1  10
BRANCH   3  13
ATOM     13  C   UNL     1       2.549   7.408  18.646  0.00  0.00    +0.000 C 
BRANCH  13  14
ATOM     14  C   UNL     1       1.627   8.519  19.113  0.00  0.00    +0.000 A 
ATOM     15  C   UNL     1       1.256   8.613  20.465  0.00  0.00    +0.000 A 
ATOM     16  C   UNL     1       0.394   9.624  20.892  0.00  0.00    +0.000 A 
ATOM     17  C   UNL     1      -0.090  10.546  19.973  0.00  0.00    +0.000 A 
ATOM     18  F   UNL     1      -0.918  11.514  20.384  0.00  0.00    +0.000 F 
ATOM     19  C   UNL     1       0.270  10.475  18.633  0.00  0.00    +0.000 A 
ATOM     20  C   UNL     1       1.128   9.462  18.201  0.00  0.00    +0.000 A 
ENDBRANCH  13  14
ENDBRANCH   3  13
BRANCH   8  21
ATOM     21  C   UNL     1       4.935   3.228  15.878  0.00  0.00    +0.000 C 
BRANCH  21  22
ATOM     22  C   UNL     1       5.409   4.346  14.994  0.00  0.00    +0.000 C 
ATOM     23  C   UNL     1       6.873   4.728  15.005  0.00  0.00    +0.000 C 
ATOM     24  C   UNL     1       6.289   4.049  13.800  0.00  0.00    +0.000 C 
ENDBRANCH  21  22
ENDBRANCH   8  21
TORSDOF 6
ENDMDL
MODEL 3
REMARK VINA RESULT:      -6.3      0.672      1.357
REMARK  Name = 
REMARK  7 active torsions:
REMARK  status: ('A' for Active; 'I' for Inactive)
REMARK    1  A    between atoms: C_1  and  O_2
REMARK    2  A    between atoms: O_2  and  C_3
REMARK    3  A    between atoms: C_3  and  C_4
REMARK    4  A    between atoms: N_6  and  C_7
REMARK    5  A    between atoms: C_7  and  C_8
REMARK    6  A    between atoms: N_19  and  C_20
REMARK    7  A    between atoms: C_20  and  C_21
REMARK                            x       y       z     vdW  Elec       q    Type
REMARK                         _______ _______ _______ _____ _____    ______ ____
ROOT
ATOM      1  C   UNL     1       4.280   3.951  17.757  0.00  0.00    +0.000 C 
ATOM      2  C   UNL     1       5.718   4.334  17.259  0.00  0.00    +0.000 C 
ATOM      3  N   UNL     1       5.807   5.552  16.404  0.00  0.00    +0.000 NA
ATOM      4  C   UNL     1       5.380   6.754  17.180  0.00  0.00    +0.000 C 
ATOM      5  C   UNL     1       4.118   6.482  17.929  0.00  0.00    +0.000 A 
ATOM      6  N   UNL     1       3.260   7.430  18.387  0.00  0.00    +0.000 NA
ATOM      7  N   UNL     1       2.230   6.804  18.944  0.00  0.00    +0.000 NA
ATOM      8  N   UNL     1       2.423   5.468  18.821  0.00  0.00    +0.000 N 
ATOM      9  C   UNL     1       3.627   5.223  18.217  0.00  0.00    +0.000 A 
ENDROOT
BRANCH   1  10
ATOM     10  C   UNL     1       4.401   2.839  18.805  0.00  0.00    +0.000 C 
BRANCH  10  12
ATOM     11  C   UNL     1       2.619   2.027  17.473  0.00  0.00    +0.000 C 
ATOM     12  O   UNL     1       3.671   1.692  18.368  0.00  0.00    +0.000 OA
ENDBRANCH  10  12
ENDBRANCH   1  10
BRANCH   3  13
ATOM     13  C   UNL     1       5.022   5.450  15.158  0.00  0.00    +0.000 C 
BRANCH  13  14
ATOM     14  C   UNL     1       5.749   4.734  14.035  0.00  0.00    +0.000 A 
ATOM     15  C   UNL     1       5.083   3.772  13.256  0.00  0.00    +0.000 A 
ATOM     16  C   UNL     1       5.756   3.100  12.235  0.00  0.00    +0.000 A 
ATOM     17  C   UNL     1       7.089   3.395  11.984  0.00  0.00    +0.000 A 
ATOM     18  F   UNL     1       7.734   2.749  11.004  0.00  0.00    +0.000 F 
ATOM     19  C   UNL     1       7.765   4.349  12.736  0.00  0.00    +0.000 A 
ATOM     20  C   UNL     1       7.096   5.018  13.762  0.00  0.00    +0.000 A 
ENDBRANCH  13  14
ENDBRANCH   3  13
BRANCH   8  21
ATOM     21  C   UNL     1       1.411   4.515  19.270  0.00  0.00    +0.000 C 
BRANCH  21  22
ATOM     22  C   UNL     1       1.319   4.295  20.753  0.00  0.00    +0.000 C 
ATOM     23  C   UNL     1       1.249   2.881  21.289  0.00  0.00    +0.000 C 
ATOM     24  C   UNL     1       2.488   3.701  21.508  0.00  0.00    +0.000 C 
ENDBRANCH  21  22
ENDBRANCH   8  21
TORSDOF 6
ENDMDL
MODEL 4
REMARK VINA RESULT:      -6.2      3.133      6.887
REMARK  Name = 
REMARK  7 active torsions:
REMARK  status: ('A' for Active; 'I' for Inactive)
REMARK    1  A    between atoms: C_1  and  O_2
REMARK    2  A    between atoms: O_2  and  C_3
REMARK    3  A    between atoms: C_3  and  C_4
REMARK    4  A    between atoms: N_6  and  C_7
REMARK    5  A    between atoms: C_7  and  C_8
REMARK    6  A    between atoms: N_19  and  C_20
REMARK    7  A    between atoms: C_20  and  C_21
REMARK                            x       y       z     vdW  Elec       q    Type
REMARK                         _______ _______ _______ _____ _____    ______ ____
ROOT
ATOM      1  C   UNL     1       4.545   5.396  17.453  0.00  0.00    +0.000 C 
ATOM      2  C   UNL     1       4.658   5.687  18.991  0.00  0.00    +0.000 C 
ATOM      3  N   UNL     1       5.517   4.749  19.769  0.00  0.00    +0.000 NA
ATOM      4  C   UNL     1       6.931   4.839  19.297  0.00  0.00    +0.000 C 
ATOM      5  C   UNL     1       6.995   4.818  17.806  0.00  0.00    +0.000 A 
ATOM      6  N   UNL     1       8.090   4.481  17.075  0.00  0.00    +0.000 NA
ATOM      7  N   UNL     1       7.744   4.521  15.793  0.00  0.00    +0.000 NA
ATOM      8  N   UNL     1       6.434   4.859  15.714  0.00  0.00    +0.000 N 
ATOM      9  C   UNL     1       5.933   5.093  16.966  0.00  0.00    +0.000 A 
ENDROOT
BRANCH   1  10
ATOM     10  C   UNL     1       3.838   6.577  16.778  0.00  0.00    +0.000 C 
BRANCH  10  12
ATOM     11  C   UNL     1       2.402   8.189  17.751  0.00  0.00    +0.000 C 
ATOM     12  O   UNL     1       3.718   7.653  17.709  0.00  0.00    +0.000 OA
ENDBRANCH  10  12
ENDBRANCH   1  10
BRANCH   3  13
ATOM     13  C   UNL     1       5.054   3.348  19.711  0.00  0.00    +0.000 C 
BRANCH  13  14
ATOM     14  C   UNL     1       3.544   3.203  19.712  0.00  0.00    +0.000 A 
ATOM     15  C   UNL     1       2.899   2.477  18.696  0.00  0.00    +0.000 A 
ATOM     16  C   UNL     1       1.508   2.359  18.685  0.00  0.00    +0.000 A 
ATOM     17  C   UNL     1       0.762   2.956  19.693  0.00  0.00    +0.000 A 
ATOM     18  F   UNL     1      -0.571   2.842  19.681  0.00  0.00    +0.000 F 
ATOM     19  C   UNL     1       1.380   3.672  20.711  0.00  0.00    +0.000 A 
ATOM     20  C   UNL     1       2.771   3.797  20.721  0.00  0.00    +0.000 A 
ENDBRANCH  13  14
ENDBRANCH   3  13
BRANCH   8  21
ATOM     21  C   UNL     1       5.743   4.902  14.426  0.00  0.00    +0.000 C 
BRANCH  21  22
ATOM     22  C   UNL     1       5.842   3.665  13.579  0.00  0.00    +0.000 C 
ATOM     23  C   UNL     1       5.068   3.593  12.281  0.00  0.00    +0.000 C 
ATOM     24  C   UNL     1       6.565   3.709  12.251  0.00  0.00    +0.000 C 
ENDBRANCH  21  22
ENDBRANCH   8  21
TORSDOF 6
ENDMDL
MODEL 5
REMARK VINA RESULT:      -6.2      4.382      7.408
REMARK  Name = 
REMARK  7 active torsions:
REMARK  status: ('A' for Active; 'I' for Inactive)
REMARK    1  A    between atoms: C_1  and  O_2
REMARK    2  A    between atoms: O_2  and  C_3
REMARK    3  A    between atoms: C_3  and  C_4
REMARK    4  A    between atoms: N_6  and  C_7
REMARK    5  A    between atoms: C_7  and  C_8
REMARK    6  A    between atoms: N_19  and  C_20
REMARK    7  A    between atoms: C_20  and  C_21
REMARK                            x       y       z     vdW  Elec       q    Type
REMARK                         _______ _______ _______ _____ _____    ______ ____
ROOT
ATOM      1  C   UNL     1       4.842   5.416  18.417  0.00  0.00    +0.000 C 
ATOM      2  C   UNL     1       4.153   5.990  19.705  0.00  0.00    +0.000 C 
ATOM      3  N   UNL     1       2.718   6.367  19.561  0.00  0.00    +0.000 NA
ATOM      4  C   UNL     1       1.901   5.158  19.244  0.00  0.00    +0.000 C 
ATOM      5  C   UNL     1       2.549   4.345  18.175  0.00  0.00    +0.000 A 
ATOM      6  N   UNL     1       1.912   3.442  17.384  0.00  0.00    +0.000 NA
ATOM      7  N   UNL     1       2.802   2.968  16.519  0.00  0.00    +0.000 NA
ATOM      8  N   UNL     1       3.988   3.582  16.746  0.00  0.00    +0.000 N 
ATOM      9  C   UNL     1       3.879   4.434  17.812  0.00  0.00    +0.000 A 
ENDROOT
BRANCH   1  10
ATOM     10  C   UNL     1       6.218   4.860  18.800  0.00  0.00    +0.000 C 
BRANCH  10  12
ATOM     11  C   UNL     1       7.414   6.683  17.876  0.00  0.00    +0.000 C 
ATOM     12  O   UNL     1       7.115   5.943  19.051  0.00  0.00    +0.000 OA
ENDBRANCH  10  12
ENDBRANCH   1  10
BRANCH   3  13
ATOM     13  C   UNL     1       2.487   7.413  18.545  0.00  0.00    +0.000 C 
BRANCH  13  14
ATOM     14  C   UNL     1       1.642   8.572  19.042  0.00  0.00    +0.000 A 
ATOM     15  C   UNL     1       1.237   9.587  18.160  0.00  0.00    +0.000 A 
ATOM     16  C   UNL     1       0.476  10.662  18.620  0.00  0.00    +0.000 A 
ATOM     17  C   UNL     1       0.110  10.719  19.958  0.00  0.00    +0.000 A 
ATOM     18  F   UNL     1      -0.619  11.752  20.399  0.00  0.00    +0.000 F 
ATOM     19  C   UNL     1       0.494   9.722  20.847  0.00  0.00    +0.000 A 
ATOM     20  C   UNL     1       1.261   8.648  20.391  0.00  0.00    +0.000 A 
ENDBRANCH  13  14
ENDBRANCH   3  13
BRANCH   8  21
ATOM     21  C   UNL     1       5.146   3.326  15.891  0.00  0.00    +0.000 C 
BRANCH  21  22
ATOM     22  C   UNL     1       5.465   4.383  14.873  0.00  0.00    +0.000 C 
ATOM     23  C   UNL     1       6.899   4.833  14.697  0.00  0.00    +0.000 C 
ATOM     24  C   UNL     1       6.233   4.026  13.620  0.00  0.00    +0.000 C 
ENDBRANCH  21  22
ENDBRANCH   8  21
TORSDOF 6
ENDMDL
MODEL 6
REMARK VINA RESULT:      -6.2      3.486      4.937
REMARK  Name = 
REMARK  7 active torsions:
REMARK  status: ('A' for Active; 'I' for Inactive)
REMARK    1  A    between atoms: C_1  and  O_2
REMARK    2  A    between atoms: O_2  and  C_3
REMARK    3  A    between atoms: C_3  and  C_4
REMARK    4  A    between atoms: N_6  and  C_7
REMARK    5  A    between atoms: C_7  and  C_8
REMARK    6  A    between atoms: N_19  and  C_20
REMARK    7  A    between atoms: C_20  and  C_21
REMARK                            x       y       z     vdW  Elec       q    Type
REMARK                         _______ _______ _______ _____ _____    ______ ____
ROOT
ATOM      1  C   UNL     1       3.224   5.900  18.220  0.00  0.00    +0.000 C 
ATOM      2  C   UNL     1       4.037   6.203  16.913  0.00  0.00    +0.000 C 
ATOM      3  N   UNL     1       4.913   5.102  16.423  0.00  0.00    +0.000 NA
ATOM      4  C   UNL     1       4.084   3.918  16.045  0.00  0.00    +0.000 C 
ATOM      5  C   UNL     1       3.068   3.625  17.098  0.00  0.00    +0.000 A 
ATOM      6  N   UNL     1       2.448   2.429  17.275  0.00  0.00    +0.000 NA
ATOM      7  N   UNL     1       1.663   2.538  18.341  0.00  0.00    +0.000 NA
ATOM      8  N   UNL     1       1.801   3.787  18.848  0.00  0.00    +0.000 N 
ATOM      9  C   UNL     1       2.654   4.519  18.066  0.00  0.00    +0.000 A 
ENDROOT
BRANCH   1  10
ATOM     10  C   UNL     1       2.207   7.026  18.441  0.00  0.00    +0.000 C 
BRANCH  10  12
ATOM     11  C   UNL     1       1.817   9.281  17.830  0.00  0.00    +0.000 C 
ATOM     12  O   UNL     1       2.792   8.274  18.065  0.00  0.00    +0.000 OA
ENDBRANCH  10  12
ENDBRANCH   1  10
BRANCH   3  13
ATOM     13  C   UNL     1       5.951   4.702  17.395  0.00  0.00    +0.000 C 
BRANCH  13  14
ATOM     14  C   UNL     1       6.845   5.845  17.837  0.00  0.00    +0.000 A 
ATOM     15  C   UNL     1       7.606   5.739  19.014  0.00  0.00    +0.000 A 
ATOM     16  C   UNL     1       8.416   6.796  19.431  0.00  0.00    +0.000 A 
ATOM     17  C   UNL     1       8.473   7.956  18.670  0.00  0.00    +0.000 A 
ATOM     18  F   UNL     1       9.249   8.971  19.071  0.00  0.00    +0.000 F 
ATOM     19  C   UNL     1       7.734   8.080  17.499  0.00  0.00    +0.000 A 
ATOM     20  C   UNL     1       6.919   7.026  17.082  0.00  0.00    +0.000 A 
ENDBRANCH  13  14
ENDBRANCH   3  13
BRANCH   8  21
ATOM     21  C   UNL     1       1.119   4.181  20.080  0.00  0.00    +0.000 C 
BRANCH  21  22
ATOM     22  C   UNL     1       1.807   3.815  21.364  0.00  0.00    +0.000 C 
ATOM     23  C   UNL     1       1.496   2.485  22.016  0.00  0.00    +0.000 C 
ATOM     24  C   UNL     1       2.840   2.711  21.385  0.00  0.00    +0.000 C 
ENDBRANCH  21  22
ENDBRANCH   8  21
TORSDOF 6
ENDMDL
MODEL 7
REMARK VINA RESULT:      -6.2      3.482      4.970
REMARK  Name = 
REMARK  7 active torsions:
REMARK  status: ('A' for Active; 'I' for Inactive)
REMARK    1  A    between atoms: C_1  and  O_2
REMARK    2  A    between atoms: O_2  and  C_3
REMARK    3  A    between atoms: C_3  and  C_4
REMARK    4  A    between atoms: N_6  and  C_7
REMARK    5  A    between atoms: C_7  and  C_8
REMARK    6  A    between atoms: N_19  and  C_20
REMARK    7  A    between atoms: C_20  and  C_21
REMARK                            x       y       z     vdW  Elec       q    Type
REMARK                         _______ _______ _______ _____ _____    ______ ____
ROOT
ATOM      1  C   UNL     1       3.292   6.023  18.220  0.00  0.00    +0.000 C 
ATOM      2  C   UNL     1       4.085   6.349  16.905  0.00  0.00    +0.000 C 
ATOM      3  N   UNL     1       4.957   5.258  16.385  0.00  0.00    +0.000 NA
ATOM      4  C   UNL     1       4.125   4.078  16.001  0.00  0.00    +0.000 C 
ATOM      5  C   UNL     1       3.125   3.766  17.063  0.00  0.00    +0.000 A 
ATOM      6  N   UNL     1       2.510   2.565  17.230  0.00  0.00    +0.000 NA
ATOM      7  N   UNL     1       1.740   2.656  18.309  0.00  0.00    +0.000 NA
ATOM      8  N   UNL     1       1.883   3.897  18.834  0.00  0.00    +0.000 N 
ATOM      9  C   UNL     1       2.723   4.643  18.051  0.00  0.00    +0.000 A 
ENDROOT
BRANCH   1  10
ATOM     10  C   UNL     1       2.277   7.143  18.474  0.00  0.00    +0.000 C 
BRANCH  10  12
ATOM     11  C   UNL     1       1.739   9.376  17.899  0.00  0.00    +0.000 C 
ATOM     12  O   UNL     1       2.608   8.276  17.669  0.00  0.00    +0.000 OA
ENDBRANCH  10  12
ENDBRANCH   1  10
BRANCH   3  13
ATOM     13  C   UNL     1       6.009   4.846  17.335  0.00  0.00    +0.000 C 
BRANCH  13  14
ATOM     14  C   UNL     1       6.884   5.990  17.812  0.00  0.00    +0.000 A 
ATOM     15  C   UNL     1       6.930   7.197  17.094  0.00  0.00    +0.000 A 
ATOM     16  C   UNL     1       7.747   8.244  17.522  0.00  0.00    +0.000 A 
ATOM     17  C   UNL     1       8.512   8.090  18.671  0.00  0.00    +0.000 A 
ATOM     18  F   UNL     1       9.297   9.094  19.081  0.00  0.00    +0.000 F 
ATOM     19  C   UNL     1       8.476   6.907  19.401  0.00  0.00    +0.000 A 
ATOM     20  C   UNL     1       7.663   5.856  18.971  0.00  0.00    +0.000 A 
ENDBRANCH  13  14
ENDBRANCH   3  13
BRANCH   8  21
ATOM     21  C   UNL     1       1.219   4.269  20.082  0.00  0.00    +0.000 C 
BRANCH  21  22
ATOM     22  C   UNL     1       1.901   3.839  21.350  0.00  0.00    +0.000 C 
ATOM     23  C   UNL     1       1.528   2.514  21.978  0.00  0.00    +0.000 C 
ATOM     24  C   UNL     1       2.874   2.681  21.335  0.00  0.00    +0.000 C 
ENDBRANCH  21  22
ENDBRANCH   8  21
TORSDOF 6
ENDMDL
MODEL 8
REMARK VINA RESULT:      -6.1      4.100      7.515
REMARK  Name = 
REMARK  7 active torsions:
REMARK  status: ('A' for Active; 'I' for Inactive)
REMARK    1  A    between atoms: C_1  and  O_2
REMARK    2  A    between atoms: O_2  and  C_3
REMARK    3  A    between atoms: C_3  and  C_4
REMARK    4  A    between atoms: N_6  and  C_7
REMARK    5  A    between atoms: C_7  and  C_8
REMARK    6  A    between atoms: N_19  and  C_20
REMARK    7  A    between atoms: C_20  and  C_21
REMARK                            x       y       z     vdW  Elec       q    Type
REMARK                         _______ _______ _______ _____ _____    ______ ____
ROOT
ATOM      1  C   UNL     1       5.804   6.099  17.676  0.00  0.00    +0.000 C 
ATOM      2  C   UNL     1       5.099   6.294  19.064  0.00  0.00    +0.000 C 
ATOM      3  N   UNL     1       3.687   5.828  19.147  0.00  0.00    +0.000 NA
ATOM      4  C   UNL     1       3.622   4.351  18.933  0.00  0.00    +0.000 C 
ATOM      5  C   UNL     1       4.453   3.948  17.762  0.00  0.00    +0.000 A 
ATOM      6  N   UNL     1       4.307   2.795  17.058  0.00  0.00    +0.000 NA
ATOM      7  N   UNL     1       5.182   2.820  16.059  0.00  0.00    +0.000 NA
ATOM      8  N   UNL     1       5.862   3.991  16.116  0.00  0.00    +0.000 N 
ATOM      9  C   UNL     1       5.456   4.717  17.204  0.00  0.00    +0.000 A 
ENDROOT
BRANCH   1  10
ATOM     10  C   UNL     1       7.299   6.400  17.835  0.00  0.00    +0.000 C 
BRANCH  10  12
ATOM     11  C   UNL     1       8.019   8.656  17.821  0.00  0.00    +0.000 C 
ATOM     12  O   UNL     1       7.643   7.533  17.036  0.00  0.00    +0.000 OA
ENDBRANCH  10  12
ENDBRANCH   1  10
BRANCH   3  13
ATOM     13  C   UNL     1       2.787   6.515  18.199  0.00  0.00    +0.000 C 
BRANCH  13  14
ATOM     14  C   UNL     1       2.102   7.737  18.783  0.00  0.00    +0.000 A 
ATOM     15  C   UNL     1       1.793   7.792  20.153  0.00  0.00    +0.000 A 
ATOM     16  C   UNL     1       1.147   8.908  20.687  0.00  0.00    +0.000 A 
ATOM     17  C   UNL     1       0.818   9.972  19.857  0.00  0.00    +0.000 A 
ATOM     18  F   UNL     1       0.198  11.041  20.371  0.00  0.00    +0.000 F 
ATOM     19  C   UNL     1       1.122   9.941  18.501  0.00  0.00    +0.000 A 
ATOM     20  C   UNL     1       1.763   8.824  17.963  0.00  0.00    +0.000 A 
ENDBRANCH  13  14
ENDBRANCH   3  13
BRANCH   8  21
ATOM     21  C   UNL     1       6.842   4.344  15.091  0.00  0.00    +0.000 C 
BRANCH  21  22
ATOM     22  C   UNL     1       6.299   4.598  13.713  0.00  0.00    +0.000 C 
ATOM     23  C   UNL     1       7.221   4.479  12.520  0.00  0.00    +0.000 C 
ATOM     24  C   UNL     1       6.143   3.455  12.734  0.00  0.00    +0.000 C 
ENDBRANCH  21  22
ENDBRANCH   8  21
TORSDOF 6
ENDMDL
MODEL 9
REMARK VINA RESULT:      -6.0      0.838      1.423
REMARK  Name = 
REMARK  7 active torsions:
REMARK  status: ('A' for Active; 'I' for Inactive)
REMARK    1  A    between atoms: C_1  and  O_2
REMARK    2  A    between atoms: O_2  and  C_3
REMARK    3  A    between atoms: C_3  and  C_4
REMARK    4  A    between atoms: N_6  and  C_7
REMARK    5  A    between atoms: C_7  and  C_8
REMARK    6  A    between atoms: N_19  and  C_20
REMARK    7  A    between atoms: C_20  and  C_21
REMARK                            x       y       z     vdW  Elec       q    Type
REMARK                         _______ _______ _______ _____ _____    ______ ____
ROOT
ATOM      1  C   UNL     1       4.869   4.444  18.178  0.00  0.00    +0.000 C 
ATOM      2  C   UNL     1       6.128   4.849  17.332  0.00  0.00    +0.000 C 
ATOM      3  N   UNL     1       5.865   5.715  16.148  0.00  0.00    +0.000 NA
ATOM      4  C   UNL     1       5.310   7.030  16.589  0.00  0.00    +0.000 C 
ATOM      5  C   UNL     1       4.232   6.837  17.603  0.00  0.00    +0.000 A 
ATOM      6  N   UNL     1       3.268   7.746  17.902  0.00  0.00    +0.000 NA
ATOM      7  N   UNL     1       2.461   7.195  18.802  0.00  0.00    +0.000 NA
ATOM      8  N   UNL     1       2.898   5.937  19.055  0.00  0.00    +0.000 N 
ATOM      9  C   UNL     1       4.041   5.686  18.343  0.00  0.00    +0.000 A 
ENDROOT
BRANCH   1  10
ATOM     10  C   UNL     1       5.340   3.772  19.472  0.00  0.00    +0.000 C 
BRANCH  10  12
ATOM     11  C   UNL     1       4.431   2.050  20.821  0.00  0.00    +0.000 C 
ATOM     12  O   UNL     1       4.849   2.431  19.517  0.00  0.00    +0.000 OA
ENDBRANCH  10  12
ENDBRANCH   1  10
BRANCH   3  13
ATOM     13  C   UNL     1       4.964   5.093  15.157  0.00  0.00    +0.000 C 
BRANCH  13  14
ATOM     14  C   UNL     1       5.690   4.465  13.982  0.00  0.00    +0.000 A 
ATOM     15  C   UNL     1       5.032   3.545  13.149  0.00  0.00    +0.000 A 
ATOM     16  C   UNL     1       5.704   2.954  12.078  0.00  0.00    +0.000 A 
ATOM     17  C   UNL     1       7.029   3.287  11.833  0.00  0.00    +0.000 A 
ATOM     18  F   UNL     1       7.673   2.718  10.807  0.00  0.00    +0.000 F 
ATOM     19  C   UNL     1       7.698   4.200  12.640  0.00  0.00    +0.000 A 
ATOM     20  C   UNL     1       7.029   4.789  13.715  0.00  0.00    +0.000 A 
ENDBRANCH  13  14
ENDBRANCH   3  13
BRANCH   8  21
ATOM     21  C   UNL     1       2.160   5.047  19.949  0.00  0.00    +0.000 C 
BRANCH  21  22
ATOM     22  C   UNL     1       1.094   4.202  19.310  0.00  0.00    +0.000 C 
ATOM     23  C   UNL     1       1.491   2.947  18.566  0.00  0.00    +0.000 C 
ATOM     24  C   UNL     1       0.764   2.839  19.875  0.00  0.00    +0.000 C 
ENDBRANCH  21  22
ENDBRANCH   8  21
TORSDOF 6
ENDMDL
