MODEL 1
REMARK VINA RESULT:      -7.5      0.000      0.000
REMARK  Name = 
REMARK  5 active torsions:
REMARK  status: ('A' for Active; 'I' for Inactive)
REMARK    1  A    between atoms: C_2  and  C_3
REMARK    2  A    between atoms: C_3  and  C_4
REMARK    3  A    between atoms: C_4  and  N_5
REMARK    4  A    between atoms: N_5  and  C_9
REMARK    5  A    between atoms: C_6  and  C_7
REMARK                            x       y       z     vdW  Elec       q    Type
REMARK                         _______ _______ _______ _____ _____    ______ ____
ROOT
ATOM      1  N   UNL     1       3.779   5.487  17.648  0.00  0.00    +0.000 N 
ATOM      2  C   UNL     1       3.100   4.260  17.731  0.00  0.00    +0.000 C 
ATOM      3  C   UNL     1       1.575   4.301  17.706  0.00  0.00    +0.000 C 
ATOM      4  O   UNL     1       3.657   3.162  17.747  0.00  0.00    +0.000 OA
ENDROOT
BRANCH   1   5
ATOM      5  C   UNL     1       5.314   5.518  17.578  0.00  0.00    +0.000 C 
ATOM      6  C   UNL     1       5.913   5.182  18.983  0.00  0.00    +0.000 C 
ATOM      7  C   UNL     1       7.433   5.347  19.079  0.00  0.00    +0.000 C 
ATOM      8  C   UNL     1       7.886   6.730  18.634  0.00  0.00    +0.000 C 
ATOM      9  C   UNL     1       7.365   7.091  17.248  0.00  0.00    +0.000 C 
ATOM     10  C   UNL     1       5.845   6.933  17.162  0.00  0.00    +0.000 C 
BRANCH   5  11
ATOM     11  C   UNL     1       5.869   4.444  16.554  0.00  0.00    +0.000 C 
BRANCH  11  13
ATOM     12  C   UNL     1       6.493   4.343  14.126  0.00  0.00    +0.000 C 
ATOM     13  C   UNL     1       5.611   4.667  15.085  0.00  0.00    +0.000 C 
ENDBRANCH  11  13
ENDBRANCH   5  11
ENDBRANCH   1   5
BRANCH   1  14
ATOM     14  C   UNL     1       3.130   6.619  18.232  0.00  0.00    +0.000 A 
ATOM     15  C   UNL     1       2.711   6.582  19.568  0.00  0.00    +0.000 A 
ATOM     16  C   UNL     1       1.959   7.630  20.101  0.00  0.00    +0.000 A 
ATOM     17  C   UNL     1       1.622   8.719  19.299  0.00  0.00    +0.000 A 
ATOM     18  C   UNL     1       2.040   8.761  17.967  0.00  0.00    +0.000 A 
ATOM     19  C   UNL     1       2.789   7.712  17.428  0.00  0.00    +0.000 A 
ENDBRANCH   1  14
TORSDOF 4
ENDMDL
MODEL 2
REMARK VINA RESULT:      -7.3      0.258      1.140
REMARK  Name = 
REMARK  5 active torsions:
REMARK  status: ('A' for Active; 'I' for Inactive)
REMARK    1  A    between atoms: C_2  and  C_3
REMARK    2  A    between atoms: C_3  and  C_4
REMARK    3  A    between atoms: C_4  and  N_5
REMARK    4  A    between atoms: N_5  and  C_9
REMARK    5  A    between atoms: C_6  and  C_7
REMARK                            x       y       z     vdW  Elec       q    Type
REMARK                         _______ _______ _______ _____ _____    ______ ____
ROOT
ATOM      1  N   UNL     1       3.845   5.219  17.629  0.00  0.00    +0.000 N 
ATOM      2  C   UNL     1       3.289   3.938  17.786  0.00  0.00    +0.000 C 
ATOM      3  C   UNL     1       1.767   3.831  17.775  0.00  0.00    +0.000 C 
ATOM      4  O   UNL     1       3.950   2.902  17.854  0.00  0.00    +0.000 OA
ENDROOT
BRANCH   1   5
ATOM      5  C   UNL     1       5.370   5.395  17.541  0.00  0.00    +0.000 C 
ATOM      6  C   UNL     1       6.015   5.107  18.935  0.00  0.00    +0.000 C 
ATOM      7  C   UNL     1       7.514   5.413  19.015  0.00  0.00    +0.000 C 
ATOM      8  C   UNL     1       7.829   6.836  18.576  0.00  0.00    +0.000 C 
ATOM      9  C   UNL     1       7.259   7.155  17.199  0.00  0.00    +0.000 C 
ATOM     10  C   UNL     1       5.760   6.856  17.130  0.00  0.00    +0.000 C 
BRANCH   5  11
ATOM     11  C   UNL     1       6.009   4.385  16.501  0.00  0.00    +0.000 C 
BRANCH  11  13
ATOM     12  C   UNL     1       6.514   4.349  14.044  0.00  0.00    +0.000 C 
ATOM     13  C   UNL     1       5.642   4.538  15.047  0.00  0.00    +0.000 C 
ENDBRANCH  11  13
ENDBRANCH   5  11
ENDBRANCH   1   5
BRANCH   1  14
ATOM     14  C   UNL     1       3.092   6.313  18.159  0.00  0.00    +0.000 A 
ATOM     15  C   UNL     1       2.816   7.432  17.364  0.00  0.00    +0.000 A 
ATOM     16  C   UNL     1       2.201   8.556  17.917  0.00  0.00    +0.000 A 
ATOM     17  C   UNL     1       1.860   8.565  19.268  0.00  0.00    +0.000 A 
ATOM     18  C   UNL     1       2.131   7.450  20.065  0.00  0.00    +0.000 A 
ATOM     19  C   UNL     1       2.751   6.325  19.516  0.00  0.00    +0.000 A 
ENDBRANCH   1  14
TORSDOF 4
ENDMDL
MODEL 3
REMARK VINA RESULT:      -6.9      2.042      3.514
REMARK  Name = 
REMARK  5 active torsions:
REMARK  status: ('A' for Active; 'I' for Inactive)
REMARK    1  A    between atoms: C_2  and  C_3
REMARK    2  A    between atoms: C_3  and  C_4
REMARK    3  A    between atoms: C_4  and  N_5
REMARK    4  A    between atoms: N_5  and  C_9
REMARK    5  A    between atoms: C_6  and  C_7
REMARK                            x       y       z     vdW  Elec       q    Type
REMARK                         _______ _______ _______ _____ _____    ______ ____
ROOT
ATOM      1  N   UNL     1       3.740   5.635  18.502  0.00  0.00    +0.000 N 
ATOM      2  C   UNL     1       3.432   6.889  17.948  0.00  0.00    +0.000 C 
ATOM      3  C   UNL     1       2.342   7.707  18.633  0.00  0.00    +0.000 C 
ATOM      4  O   UNL     1       4.036   7.392  17.001  0.00  0.00    +0.000 OA
ENDROOT
BRANCH   1   5
ATOM      5  C   UNL     1       4.887   4.793  17.921  0.00  0.00    +0.000 C 
ATOM      6  C   UNL     1       6.254   5.495  18.208  0.00  0.00    +0.000 C 
ATOM      7  C   UNL     1       7.460   4.835  17.531  0.00  0.00    +0.000 C 
ATOM      8  C   UNL     1       7.256   4.680  16.030  0.00  0.00    +0.000 C 
ATOM      9  C   UNL     1       5.955   3.960  15.696  0.00  0.00    +0.000 C 
ATOM     10  C   UNL     1       4.755   4.630  16.368  0.00  0.00    +0.000 C 
BRANCH   5  11
ATOM     11  C   UNL     1       4.941   3.354  18.581  0.00  0.00    +0.000 C 
BRANCH  11  13
ATOM     12  C   UNL     1       3.613   1.227  18.617  0.00  0.00    +0.000 C 
ATOM     13  C   UNL     1       4.153   2.245  17.930  0.00  0.00    +0.000 C 
ENDBRANCH  11  13
ENDBRANCH   5  11
ENDBRANCH   1   5
BRANCH   1  14
ATOM     14  C   UNL     1       2.664   4.929  19.125  0.00  0.00    +0.000 A 
ATOM     15  C   UNL     1       2.666   4.716  20.509  0.00  0.00    +0.000 A 
ATOM     16  C   UNL     1       1.689   3.912  21.101  0.00  0.00    +0.000 A 
ATOM     17  C   UNL     1       0.708   3.319  20.309  0.00  0.00    +0.000 A 
ATOM     18  C   UNL     1       0.701   3.531  18.928  0.00  0.00    +0.000 A 
ATOM     19  C   UNL     1       1.679   4.330  18.332  0.00  0.00    +0.000 A 
ENDBRANCH   1  14
TORSDOF 4
ENDMDL
MODEL 4
REMARK VINA RESULT:      -6.9      1.635      5.268
REMARK  Name = 
REMARK  5 active torsions:
REMARK  status: ('A' for Active; 'I' for Inactive)
REMARK    1  A    between atoms: C_2  and  C_3
REMARK    2  A    between atoms: C_3  and  C_4
REMARK    3  A    between atoms: C_4  and  N_5
REMARK    4  A    between atoms: N_5  and  C_9
REMARK    5  A    between atoms: C_6  and  C_7
REMARK                            x       y       z     vdW  Elec       q    Type
REMARK                         _______ _______ _______ _____ _____    ______ ____
ROOT
ATOM      1  N   UNL     1       5.205   5.221  18.044  0.00  0.00    +0.000 N 
ATOM      2  C   UNL     1       6.358   5.376  18.832  0.00  0.00    +0.000 C 
ATOM      3  C   UNL     1       7.583   5.994  18.165  0.00  0.00    +0.000 C 
ATOM      4  O   UNL     1       6.412   5.117  20.035  0.00  0.00    +0.000 OA
ENDROOT
BRANCH   1   5
ATOM      5  C   UNL     1       3.906   4.689  18.670  0.00  0.00    +0.000 C 
ATOM      6  C   UNL     1       4.227   3.471  19.596  0.00  0.00    +0.000 C 
ATOM      7  C   UNL     1       2.991   2.750  20.145  0.00  0.00    +0.000 C 
ATOM      8  C   UNL     1       2.038   2.328  19.036  0.00  0.00    +0.000 C 
ATOM      9  C   UNL     1       1.657   3.491  18.128  0.00  0.00    +0.000 C 
ATOM     10  C   UNL     1       2.895   4.200  17.576  0.00  0.00    +0.000 C 
BRANCH   5  11
ATOM     11  C   UNL     1       3.199   5.792  19.560  0.00  0.00    +0.000 C 
BRANCH  11  13
ATOM     12  C   UNL     1       2.898   7.811  18.103  0.00  0.00    +0.000 C 
ATOM     13  C   UNL     1       2.369   6.840  18.864  0.00  0.00    +0.000 C 
ENDBRANCH  11  13
ENDBRANCH   5  11
ENDBRANCH   1   5
BRANCH   1  14
ATOM     14  C   UNL     1       5.411   4.965  16.653  0.00  0.00    +0.000 A 
ATOM     15  C   UNL     1       5.922   3.731  16.229  0.00  0.00    +0.000 A 
ATOM     16  C   UNL     1       6.251   3.527  14.888  0.00  0.00    +0.000 A 
ATOM     17  C   UNL     1       6.070   4.556  13.966  0.00  0.00    +0.000 A 
ATOM     18  C   UNL     1       5.558   5.787  14.383  0.00  0.00    +0.000 A 
ATOM     19  C   UNL     1       5.232   5.997  15.725  0.00  0.00    +0.000 A 
ENDBRANCH   1  14
TORSDOF 4
ENDMDL
MODEL 5
REMARK VINA RESULT:      -6.9      1.690      5.304
REMARK  Name = 
REMARK  5 active torsions:
REMARK  status: ('A' for Active; 'I' for Inactive)
REMARK    1  A    between atoms: C_2  and  C_3
REMARK    2  A    between atoms: C_3  and  C_4
REMARK    3  A    between atoms: C_4  and  N_5
REMARK    4  A    between atoms: N_5  and  C_9
REMARK    5  A    between atoms: C_6  and  C_7
REMARK                            x       y       z     vdW  Elec       q    Type
REMARK                         _______ _______ _______ _____ _____    ______ ____
ROOT
ATOM      1  N   UNL     1       5.384   5.274  18.066  0.00  0.00    +0.000 N 
ATOM      2  C   UNL     1       6.500   5.500  18.890  0.00  0.00    +0.000 C 
ATOM      3  C   UNL     1       7.683   6.242  18.277  0.00  0.00    +0.000 C 
ATOM      4  O   UNL     1       6.546   5.206  20.085  0.00  0.00    +0.000 OA
ENDROOT
BRANCH   1   5
ATOM      5  C   UNL     1       4.120   4.613  18.639  0.00  0.00    +0.000 C 
ATOM      6  C   UNL     1       4.519   3.373  19.503  0.00  0.00    +0.000 C 
ATOM      7  C   UNL     1       3.334   2.532  19.991  0.00  0.00    +0.000 C 
ATOM      8  C   UNL     1       2.431   2.103  18.843  0.00  0.00    +0.000 C 
ATOM      9  C   UNL     1       1.976   3.282  17.993  0.00  0.00    +0.000 C 
ATOM     10  C   UNL     1       3.165   4.111  17.502  0.00  0.00    +0.000 C 
BRANCH   5  11
ATOM     11  C   UNL     1       3.320   5.609  19.575  0.00  0.00    +0.000 C 
BRANCH  11  13
ATOM     12  C   UNL     1       2.863   7.657  18.200  0.00  0.00    +0.000 C 
ATOM     13  C   UNL     1       2.411   6.620  18.921  0.00  0.00    +0.000 C 
ENDBRANCH  11  13
ENDBRANCH   5  11
ENDBRANCH   1   5
BRANCH   1  14
ATOM     14  C   UNL     1       5.646   5.083  16.674  0.00  0.00    +0.000 A 
ATOM     15  C   UNL     1       5.248   6.050  15.741  0.00  0.00    +0.000 A 
ATOM     16  C   UNL     1       5.379   5.805  14.372  0.00  0.00    +0.000 A 
ATOM     17  C   UNL     1       5.909   4.594  13.933  0.00  0.00    +0.000 A 
ATOM     18  C   UNL     1       6.308   3.628  14.860  0.00  0.00    +0.000 A 
ATOM     19  C   UNL     1       6.175   3.866  16.229  0.00  0.00    +0.000 A 
ENDBRANCH   1  14
TORSDOF 4
ENDMDL
MODEL 6
REMARK VINA RESULT:      -6.8      1.333      4.934
REMARK  Name = 
REMARK  5 active torsions:
REMARK  status: ('A' for Active; 'I' for Inactive)
REMARK    1  A    between atoms: C_2  and  C_3
REMARK    2  A    between atoms: C_3  and  C_4
REMARK    3  A    between atoms: C_4  and  N_5
REMARK    4  A    between atoms: N_5  and  C_9
REMARK    5  A    between atoms: C_6  and  C_7
REMARK                            x       y       z     vdW  Elec       q    Type
REMARK                         _______ _______ _______ _____ _____    ______ ____
ROOT
ATOM      1  N   UNL     1       4.601   4.605  17.717  0.00  0.00    +0.000 N 
ATOM      2  C   UNL     1       4.594   4.023  16.437  0.00  0.00    +0.000 C 
ATOM      3  C   UNL     1       5.946   3.746  15.788  0.00  0.00    +0.000 C 
ATOM      4  O   UNL     1       3.575   3.658  15.850  0.00  0.00    +0.000 OA
ENDROOT
BRANCH   1   5
ATOM      5  C   UNL     1       3.281   4.831  18.471  0.00  0.00    +0.000 C 
ATOM      6  C   UNL     1       3.580   5.207  19.958  0.00  0.00    +0.000 C 
ATOM      7  C   UNL     1       2.339   5.293  20.852  0.00  0.00    +0.000 C 
ATOM      8  C   UNL     1       1.505   4.021  20.791  0.00  0.00    +0.000 C 
ATOM      9  C   UNL     1       1.146   3.633  19.362  0.00  0.00    +0.000 C 
ATOM     10  C   UNL     1       2.391   3.541  18.477  0.00  0.00    +0.000 C 
BRANCH   5  11
ATOM     11  C   UNL     1       2.448   6.020  17.836  0.00  0.00    +0.000 C 
BRANCH  11  13
ATOM     12  C   UNL     1       2.299   8.523  17.762  0.00  0.00    +0.000 C 
ATOM     13  C   UNL     1       2.623   7.399  18.420  0.00  0.00    +0.000 C 
ENDBRANCH  11  13
ENDBRANCH   5  11
ENDBRANCH   1   5
BRANCH   1  14
ATOM     14  C   UNL     1       5.679   5.497  18.008  0.00  0.00    +0.000 A 
ATOM     15  C   UNL     1       5.859   6.661  17.249  0.00  0.00    +0.000 A 
ATOM     16  C   UNL     1       6.986   7.462  17.441  0.00  0.00    +0.000 A 
ATOM     17  C   UNL     1       7.937   7.102  18.394  0.00  0.00    +0.000 A 
ATOM     18  C   UNL     1       7.760   5.944  19.155  0.00  0.00    +0.000 A 
ATOM     19  C   UNL     1       6.637   5.137  18.962  0.00  0.00    +0.000 A 
ENDBRANCH   1  14
TORSDOF 4
ENDMDL
MODEL 7
REMARK VINA RESULT:      -6.7      2.282      3.649
REMARK  Name = 
REMARK  5 active torsions:
REMARK  status: ('A' for Active; 'I' for Inactive)
REMARK    1  A    between atoms: C_2  and  C_3
REMARK    2  A    between atoms: C_3  and  C_4
REMARK    3  A    between atoms: C_4  and  N_5
REMARK    4  A    between atoms: N_5  and  C_9
REMARK    5  A    between atoms: C_6  and  C_7
REMARK                            x       y       z     vdW  Elec       q    Type
REMARK                         _______ _______ _______ _____ _____    ______ ____
ROOT
ATOM      1  N   UNL     1       3.189   5.892  19.214  0.00  0.00    +0.000 N 
ATOM      2  C   UNL     1       2.586   7.160  19.152  0.00  0.00    +0.000 C 
ATOM      3  C   UNL     1       1.718   7.580  20.333  0.00  0.00    +0.000 C 
ATOM      4  O   UNL     1       2.778   7.972  18.246  0.00  0.00    +0.000 OA
ENDROOT
BRANCH   1   5
ATOM      5  C   UNL     1       4.148   5.436  18.102  0.00  0.00    +0.000 C 
ATOM      6  C   UNL     1       5.531   5.054  18.723  0.00  0.00    +0.000 C 
ATOM      7  C   UNL     1       6.623   4.743  17.695  0.00  0.00    +0.000 C 
ATOM      8  C   UNL     1       6.795   5.873  16.688  0.00  0.00    +0.000 C 
ATOM      9  C   UNL     1       5.480   6.255  16.019  0.00  0.00    +0.000 C 
ATOM     10  C   UNL     1       4.397   6.573  17.052  0.00  0.00    +0.000 C 
BRANCH   5  11
ATOM     11  C   UNL     1       3.594   4.158  17.348  0.00  0.00    +0.000 C 
BRANCH  11  13
ATOM     12  C   UNL     1       3.405   1.761  18.063  0.00  0.00    +0.000 C 
ATOM     13  C   UNL     1       4.165   2.813  17.719  0.00  0.00    +0.000 C 
ENDBRANCH  11  13
ENDBRANCH   5  11
ENDBRANCH   1   5
BRANCH   1  14
ATOM     14  C   UNL     1       2.466   4.874  19.909  0.00  0.00    +0.000 A 
ATOM     15  C   UNL     1       3.019   4.262  21.041  0.00  0.00    +0.000 A 
ATOM     16  C   UNL     1       2.378   3.176  21.641  0.00  0.00    +0.000 A 
ATOM     17  C   UNL     1       1.181   2.699  21.110  0.00  0.00    +0.000 A 
ATOM     18  C   UNL     1       0.624   3.308  19.982  0.00  0.00    +0.000 A 
ATOM     19  C   UNL     1       1.265   4.391  19.376  0.00  0.00    +0.000 A 
ENDBRANCH   1  14
TORSDOF 4
ENDMDL
MODEL 8
REMARK VINA RESULT:      -6.7      1.629      2.710
REMARK  Name = 
REMARK  5 active torsions:
REMARK  status: ('A' for Active; 'I' for Inactive)
REMARK    1  A    between atoms: C_2  and  C_3
REMARK    2  A    between atoms: C_3  and  C_4
REMARK    3  A    between atoms: C_4  and  N_5
REMARK    4  A    between atoms: N_5  and  C_9
REMARK    5  A    between atoms: C_6  and  C_7
REMARK                            x       y       z     vdW  Elec       q    Type
REMARK                         _______ _______ _______ _____ _____    ______ ____
ROOT
ATOM      1  N   UNL     1       3.519   6.443  18.321  0.00  0.00    +0.000 N 
ATOM      2  C   UNL     1       2.987   7.534  17.614  0.00  0.00    +0.000 C 
ATOM      3  C   UNL     1       1.600   8.023  18.021  0.00  0.00    +0.000 C 
ATOM      4  O   UNL     1       3.598   8.159  16.747  0.00  0.00    +0.000 OA
ENDROOT
BRANCH   1   5
ATOM      5  C   UNL     1       4.946   5.952  18.027  0.00  0.00    +0.000 C 
ATOM      6  C   UNL     1       5.591   5.392  19.336  0.00  0.00    +0.000 C 
ATOM      7  C   UNL     1       7.073   5.027  19.206  0.00  0.00    +0.000 C 
ATOM      8  C   UNL     1       7.900   6.187  18.669  0.00  0.00    +0.000 C 
ATOM      9  C   UNL     1       7.338   6.743  17.367  0.00  0.00    +0.000 C 
ATOM     10  C   UNL     1       5.860   7.114  17.507  0.00  0.00    +0.000 C 
BRANCH   5  11
ATOM     11  C   UNL     1       4.947   4.784  16.957  0.00  0.00    +0.000 C 
BRANCH  11  13
ATOM     12  C   UNL     1       5.837   4.466  14.634  0.00  0.00    +0.000 C 
ATOM     13  C   UNL     1       5.082   5.156  15.502  0.00  0.00    +0.000 C 
ENDBRANCH  11  13
ENDBRANCH   5  11
ENDBRANCH   1   5
BRANCH   1  14
ATOM     14  C   UNL     1       2.584   5.476  18.805  0.00  0.00    +0.000 A 
ATOM     15  C   UNL     1       2.317   5.374  20.176  0.00  0.00    +0.000 A 
ATOM     16  C   UNL     1       1.510   4.345  20.663  0.00  0.00    +0.000 A 
ATOM     17  C   UNL     1       0.966   3.414  19.781  0.00  0.00    +0.000 A 
ATOM     18  C   UNL     1       1.228   3.513  18.412  0.00  0.00    +0.000 A 
ATOM     19  C   UNL     1       2.039   4.538  17.921  0.00  0.00    +0.000 A 
ENDBRANCH   1  14
TORSDOF 4
ENDMDL
MODEL 9
REMARK VINA RESULT:      -6.7      1.415      4.914
REMARK  Name = 
REMARK  5 active torsions:
REMARK  status: ('A' for Active; 'I' for Inactive)
REMARK    1  A    between atoms: C_2  and  C_3
REMARK    2  A    between atoms: C_3  and  C_4
REMARK    3  A    between atoms: C_4  and  N_5
REMARK    4  A    between atoms: N_5  and  C_9
REMARK    5  A    between atoms: C_6  and  C_7
REMARK                            x       y       z     vdW  Elec       q    Type
REMARK                         _______ _______ _______ _____ _____    ______ ____
ROOT
ATOM      1  N   UNL     1       5.376   4.594  17.443  0.00  0.00    +0.000 N 
ATOM      2  C   UNL     1       5.391   4.246  16.082  0.00  0.00    +0.000 C 
ATOM      3  C   UNL     1       6.719   4.372  15.342  0.00  0.00    +0.000 C 
ATOM      4  O   UNL     1       4.424   3.779  15.478  0.00  0.00    +0.000 OA
ENDROOT
BRANCH   1   5
ATOM      5  C   UNL     1       4.097   4.409  18.275  0.00  0.00    +0.000 C 
ATOM      6  C   UNL     1       4.355   3.369  19.414  0.00  0.00    +0.000 C 
ATOM      7  C   UNL     1       3.104   2.976  20.207  0.00  0.00    +0.000 C 
ATOM      8  C   UNL     1       1.983   2.491  19.299  0.00  0.00    +0.000 C 
ATOM      9  C   UNL     1       1.661   3.491  18.195  0.00  0.00    +0.000 C 
ATOM     10  C   UNL     1       2.912   3.872  17.401  0.00  0.00    +0.000 C 
BRANCH   5  11
ATOM     11  C   UNL     1       3.651   5.766  18.960  0.00  0.00    +0.000 C 
BRANCH  11  13
ATOM     12  C   UNL     1       2.923   7.904  17.870  0.00  0.00    +0.000 C 
ATOM     13  C   UNL     1       2.662   6.638  18.228  0.00  0.00    +0.000 C 
ENDBRANCH  11  13
ENDBRANCH   5  11
ENDBRANCH   1   5
BRANCH   1  14
ATOM     14  C   UNL     1       6.273   5.631  17.848  0.00  0.00    +0.000 A 
ATOM     15  C   UNL     1       6.313   6.844  17.148  0.00  0.00    +0.000 A 
ATOM     16  C   UNL     1       7.279   7.804  17.455  0.00  0.00    +0.000 A 
ATOM     17  C   UNL     1       8.208   7.554  18.462  0.00  0.00    +0.000 A 
ATOM     18  C   UNL     1       8.171   6.347  19.164  0.00  0.00    +0.000 A 
ATOM     19  C   UNL     1       7.209   5.382  18.857  0.00  0.00    +0.000 A 
ENDBRANCH   1  14
TORSDOF 4
ENDMDL
