MODEL 1
REMARK VINA RESULT:      -9.1      0.000      0.000
REMARK  Name = 
REMARK  6 active torsions:
REMARK  status: ('A' for Active; 'I' for Inactive)
REMARK    1  A    between atoms: C_1  and  N_2
REMARK    2  A    between atoms: C_6  and  C_7
REMARK    3  A    between atoms: C_14  and  C_15
REMARK    4  A    between atoms: C_15  and  O_16
REMARK    5  A    between atoms: C_15  and  C_17
REMARK    6  A    between atoms: C_20  and  C_21
REMARK                            x       y       z     vdW  Elec       q    Type
REMARK                         _______ _______ _______ _____ _____    ______ ____
ROOT
ATOM      1  C   UNL     1       3.157   5.763  19.957  0.00  0.00    +0.000 C 
ENDROOT
BRANCH   1   8
ATOM      2  C   UNL     1       1.131   3.736  18.449  0.00  0.00    +0.000 C 
ATOM      3  N   UNL     1       2.562   3.672  18.657  0.00  0.00    +0.000 N 
ATOM      4  C   UNL     1       3.221   2.485  18.917  0.00  0.00    +0.000 C 
ATOM      5  O   UNL     1       2.723   1.375  18.987  0.00  0.00    +0.000 OA
ATOM      6  C   UNL     1       4.677   2.784  19.135  0.00  0.00    +0.000 C 
ATOM      7  C   UNL     1       4.848   4.242  18.687  0.00  0.00    +0.000 C 
ATOM      8  C   UNL     1       3.428   4.856  18.716  0.00  0.00    +0.000 C 
BRANCH   7   9
ATOM      9  C   UNL     1       5.508   4.374  17.326  0.00  0.00    +0.000 A 
ATOM     10  C   UNL     1       4.790   4.256  16.128  0.00  0.00    +0.000 A 
ATOM     11  C   UNL     1       5.431   4.412  14.895  0.00  0.00    +0.000 A 
ATOM     12  C   UNL     1       6.801   4.685  14.844  0.00  0.00    +0.000 A 
ATOM     13  C   UNL     1       7.525   4.800  16.023  0.00  0.00    +0.000 A 
ATOM     14  C   UNL     1       6.884   4.646  17.246  0.00  0.00    +0.000 A 
ATOM     15  F   UNL     1       7.609   4.759  18.367  0.00  0.00    +0.000 F 
ENDBRANCH   7   9
ENDBRANCH   1   8
BRANCH   1  16
ATOM     16  C   UNL     1       2.420   7.058  19.658  0.00  0.00    +0.000 A 
ATOM     17  C   UNL     1       2.496   7.632  18.384  0.00  0.00    +0.000 A 
ATOM     18  C   UNL     1       1.869   8.851  18.099  0.00  0.00    +0.000 A 
ATOM     19  C   UNL     1       1.154   9.558  19.080  0.00  0.00    +0.000 A 
ATOM     20  C   UNL     1       1.070   8.972  20.351  0.00  0.00    +0.000 A 
ATOM     21  C   UNL     1       1.680   7.742  20.635  0.00  0.00    +0.000 A 
BRANCH  19  22
ATOM     22  C   UNL     1       0.527  10.866  18.785  0.00  0.00    +0.000 A 
ATOM     23  C   UNL     1       1.278  12.056  18.807  0.00  0.00    +0.000 A 
ATOM     24  C   UNL     1       0.690  13.295  18.538  0.00  0.00    +0.000 A 
ATOM     25  C   UNL     1      -0.663  13.372  18.225  0.00  0.00    +0.000 A 
ATOM     26  C   UNL     1      -1.430  12.211  18.192  0.00  0.00    +0.000 A 
ATOM     27  C   UNL     1      -0.841  10.974  18.476  0.00  0.00    +0.000 A 
ENDBRANCH  19  22
ENDBRANCH   1  16
BRANCH   1  28
ATOM     28  O   UNL     1       2.382   5.055  20.939  0.00  0.00    +0.000 OA
ATOM     29  H   UNL     1       1.710   4.539  20.464  0.00  0.00    +0.000 HD
ENDBRANCH   1  28
TORSDOF 5
ENDMDL
MODEL 2
REMARK VINA RESULT:      -8.9      0.220      1.301
REMARK  Name = 
REMARK  6 active torsions:
REMARK  status: ('A' for Active; 'I' for Inactive)
REMARK    1  A    between atoms: C_1  and  N_2
REMARK    2  A    between atoms: C_6  and  C_7
REMARK    3  A    between atoms: C_14  and  C_15
REMARK    4  A    between atoms: C_15  and  O_16
REMARK    5  A    between atoms: C_15  and  C_17
REMARK    6  A    between atoms: C_20  and  C_21
REMARK                            x       y       z     vdW  Elec       q    Type
REMARK                         _______ _______ _______ _____ _____    ______ ____
ROOT
ATOM      1  C   UNL     1       2.880   5.587  20.058  0.00  0.00    +0.000 C 
ENDROOT
BRANCH   1   8
ATOM      2  C   UNL     1       1.024   3.500  18.419  0.00  0.00    +0.000 C 
ATOM      3  N   UNL     1       2.444   3.495  18.698  0.00  0.00    +0.000 N 
ATOM      4  C   UNL     1       3.142   2.333  18.973  0.00  0.00    +0.000 C 
ATOM      5  O   UNL     1       2.691   1.202  19.001  0.00  0.00    +0.000 OA
ATOM      6  C   UNL     1       4.570   2.692  19.269  0.00  0.00    +0.000 C 
ATOM      7  C   UNL     1       4.698   4.165  18.852  0.00  0.00    +0.000 C 
ATOM      8  C   UNL     1       3.252   4.715  18.818  0.00  0.00    +0.000 C 
BRANCH   7   9
ATOM      9  C   UNL     1       5.418   4.348  17.528  0.00  0.00    +0.000 A 
ATOM     10  C   UNL     1       4.774   4.193  16.293  0.00  0.00    +0.000 A 
ATOM     11  C   UNL     1       5.467   4.399  15.097  0.00  0.00    +0.000 A 
ATOM     12  C   UNL     1       6.817   4.760  15.119  0.00  0.00    +0.000 A 
ATOM     13  C   UNL     1       7.469   4.912  16.335  0.00  0.00    +0.000 A 
ATOM     14  C   UNL     1       6.776   4.709  17.522  0.00  0.00    +0.000 A 
ATOM     15  F   UNL     1       7.433   4.859  18.681  0.00  0.00    +0.000 F 
ENDBRANCH   7   9
ENDBRANCH   1   8
BRANCH   1  16
ATOM     16  C   UNL     1       2.340   6.971  19.731  0.00  0.00    +0.000 A 
ATOM     17  C   UNL     1       1.640   7.699  20.701  0.00  0.00    +0.000 A 
ATOM     18  C   UNL     1       1.089   8.952  20.407  0.00  0.00    +0.000 A 
ATOM     19  C   UNL     1       1.196   9.523  19.129  0.00  0.00    +0.000 A 
ATOM     20  C   UNL     1       1.910   8.795  18.166  0.00  0.00    +0.000 A 
ATOM     21  C   UNL     1       2.481   7.549  18.461  0.00  0.00    +0.000 A 
BRANCH  19  22
ATOM     22  C   UNL     1       0.577  10.830  18.814  0.00  0.00    +0.000 A 
ATOM     23  C   UNL     1      -0.793  10.933  18.510  0.00  0.00    +0.000 A 
ATOM     24  C   UNL     1      -1.383  12.163  18.202  0.00  0.00    +0.000 A 
ATOM     25  C   UNL     1      -0.617  13.323  18.206  0.00  0.00    +0.000 A 
ATOM     26  C   UNL     1       0.740  13.253  18.506  0.00  0.00    +0.000 A 
ATOM     27  C   UNL     1       1.330  12.018  18.800  0.00  0.00    +0.000 A 
ENDBRANCH  19  22
ENDBRANCH   1  16
BRANCH   1  28
ATOM     28  O   UNL     1       1.885   4.928  20.858  0.00  0.00    +0.000 OA
ATOM     29  H   UNL     1       1.413   4.303  20.283  0.00  0.00    +0.000 HD
ENDBRANCH   1  28
TORSDOF 5
ENDMDL
MODEL 3
REMARK VINA RESULT:      -8.8      4.034      6.647
REMARK  Name = 
REMARK  6 active torsions:
REMARK  status: ('A' for Active; 'I' for Inactive)
REMARK    1  A    between atoms: C_1  and  N_2
REMARK    2  A    between atoms: C_6  and  C_7
REMARK    3  A    between atoms: C_14  and  C_15
REMARK    4  A    between atoms: C_15  and  O_16
REMARK    5  A    between atoms: C_15  and  C_17
REMARK    6  A    between atoms: C_20  and  C_21
REMARK                            x       y       z     vdW  Elec       q    Type
REMARK                         _______ _______ _______ _____ _____    ______ ____
ROOT
ATOM      1  C   UNL     1       5.823   5.006  17.817  0.00  0.00    +0.000 C 
ENDROOT
BRANCH   1   8
ATOM      2  C   UNL     1       4.644   2.715  19.780  0.00  0.00    +0.000 C 
ATOM      3  N   UNL     1       3.975   3.672  18.925  0.00  0.00    +0.000 N 
ATOM      4  C   UNL     1       2.828   3.362  18.219  0.00  0.00    +0.000 C 
ATOM      5  O   UNL     1       2.233   2.299  18.227  0.00  0.00    +0.000 OA
ATOM      6  C   UNL     1       2.434   4.556  17.397  0.00  0.00    +0.000 C 
ATOM      7  C   UNL     1       3.314   5.700  17.922  0.00  0.00    +0.000 C 
ATOM      8  C   UNL     1       4.499   5.015  18.645  0.00  0.00    +0.000 C 
BRANCH   7   9
ATOM      9  C   UNL     1       2.564   6.662  18.824  0.00  0.00    +0.000 A 
ATOM     10  C   UNL     1       2.130   6.307  20.109  0.00  0.00    +0.000 A 
ATOM     11  C   UNL     1       1.467   7.233  20.919  0.00  0.00    +0.000 A 
ATOM     12  C   UNL     1       1.224   8.528  20.453  0.00  0.00    +0.000 A 
ATOM     13  C   UNL     1       1.643   8.893  19.181  0.00  0.00    +0.000 A 
ATOM     14  C   UNL     1       2.304   7.970  18.380  0.00  0.00    +0.000 A 
ATOM     15  F   UNL     1       2.694   8.349  17.155  0.00  0.00    +0.000 F 
ENDBRANCH   7   9
ENDBRANCH   1   8
BRANCH   1  16
ATOM     16  C   UNL     1       6.687   6.247  17.975  0.00  0.00    +0.000 A 
ATOM     17  C   UNL     1       7.745   6.255  18.891  0.00  0.00    +0.000 A 
ATOM     18  C   UNL     1       8.522   7.402  19.091  0.00  0.00    +0.000 A 
ATOM     19  C   UNL     1       8.263   8.597  18.399  0.00  0.00    +0.000 A 
ATOM     20  C   UNL     1       7.210   8.579  17.473  0.00  0.00    +0.000 A 
ATOM     21  C   UNL     1       6.443   7.426  17.255  0.00  0.00    +0.000 A 
BRANCH  19  22
ATOM     22  C   UNL     1       9.062   9.819  18.644  0.00  0.00    +0.000 A 
ATOM     23  C   UNL     1       9.584  10.575  17.579  0.00  0.00    +0.000 A 
ATOM     24  C   UNL     1      10.347  11.724  17.804  0.00  0.00    +0.000 A 
ATOM     25  C   UNL     1      10.593  12.154  19.103  0.00  0.00    +0.000 A 
ATOM     26  C   UNL     1      10.087  11.428  20.177  0.00  0.00    +0.000 A 
ATOM     27  C   UNL     1       9.336  10.270  19.949  0.00  0.00    +0.000 A 
ENDBRANCH  19  22
ENDBRANCH   1  16
BRANCH   1  28
ATOM     28  O   UNL     1       6.637   3.879  18.181  0.00  0.00    +0.000 OA
ATOM     29  H   UNL     1       6.389   3.618  19.083  0.00  0.00    +0.000 HD
ENDBRANCH   1  28
TORSDOF 5
ENDMDL
MODEL 4
REMARK VINA RESULT:      -8.6      2.712      4.337
REMARK  Name = 
REMARK  6 active torsions:
REMARK  status: ('A' for Active; 'I' for Inactive)
REMARK    1  A    between atoms: C_1  and  N_2
REMARK    2  A    between atoms: C_6  and  C_7
REMARK    3  A    between atoms: C_14  and  C_15
REMARK    4  A    between atoms: C_15  and  O_16
REMARK    5  A    between atoms: C_15  and  C_17
REMARK    6  A    between atoms: C_20  and  C_21
REMARK                            x       y       z     vdW  Elec       q    Type
REMARK                         _______ _______ _______ _____ _____    ______ ____
ROOT
ATOM      1  C   UNL     1       3.377   6.942  17.545  0.00  0.00    +0.000 C 
ENDROOT
BRANCH   1   8
ATOM      2  C   UNL     1       6.405   5.795  17.518  0.00  0.00    +0.000 C 
ATOM      3  N   UNL     1       5.130   5.114  17.476  0.00  0.00    +0.000 N 
ATOM      4  C   UNL     1       4.917   3.981  16.711  0.00  0.00    +0.000 C 
ATOM      5  O   UNL     1       5.736   3.411  16.013  0.00  0.00    +0.000 OA
ATOM      6  C   UNL     1       3.480   3.570  16.854  0.00  0.00    +0.000 C 
ATOM      7  C   UNL     1       2.944   4.418  18.017  0.00  0.00    +0.000 C 
ATOM      8  C   UNL     1       3.922   5.610  18.148  0.00  0.00    +0.000 C 
BRANCH   7   9
ATOM      9  C   UNL     1       2.807   3.636  19.311  0.00  0.00    +0.000 A 
ATOM     10  C   UNL     1       3.837   2.829  19.815  0.00  0.00    +0.000 A 
ATOM     11  C   UNL     1       3.681   2.147  21.025  0.00  0.00    +0.000 A 
ATOM     12  C   UNL     1       2.490   2.260  21.747  0.00  0.00    +0.000 A 
ATOM     13  C   UNL     1       1.459   3.052  21.258  0.00  0.00    +0.000 A 
ATOM     14  C   UNL     1       1.620   3.729  20.055  0.00  0.00    +0.000 A 
ATOM     15  F   UNL     1       0.606   4.483  19.606  0.00  0.00    +0.000 F 
ENDBRANCH   7   9
ENDBRANCH   1   8
BRANCH   1  16
ATOM     16  C   UNL     1       2.451   7.730  18.458  0.00  0.00    +0.000 A 
ATOM     17  C   UNL     1       1.793   8.869  17.978  0.00  0.00    +0.000 A 
ATOM     18  C   UNL     1       0.976   9.639  18.814  0.00  0.00    +0.000 A 
ATOM     19  C   UNL     1       0.797   9.317  20.169  0.00  0.00    +0.000 A 
ATOM     20  C   UNL     1       1.448   8.168  20.641  0.00  0.00    +0.000 A 
ATOM     21  C   UNL     1       2.250   7.382  19.802  0.00  0.00    +0.000 A 
BRANCH  19  22
ATOM     22  C   UNL     1      -0.036  10.159  21.058  0.00  0.00    +0.000 A 
ATOM     23  C   UNL     1      -0.581  11.376  20.609  0.00  0.00    +0.000 A 
ATOM     24  C   UNL     1      -1.360  12.180  21.446  0.00  0.00    +0.000 A 
ATOM     25  C   UNL     1      -1.625  11.777  22.750  0.00  0.00    +0.000 A 
ATOM     26  C   UNL     1      -1.102  10.577  23.221  0.00  0.00    +0.000 A 
ATOM     27  C   UNL     1      -0.310   9.781  22.385  0.00  0.00    +0.000 A 
ENDBRANCH  19  22
ENDBRANCH   1  16
BRANCH   1  28
ATOM     28  O   UNL     1       4.462   7.817  17.193  0.00  0.00    +0.000 OA
ATOM     29  H   UNL     1       5.289   7.372  17.439  0.00  0.00    +0.000 HD
ENDBRANCH   1  28
TORSDOF 5
ENDMDL
MODEL 5
REMARK VINA RESULT:      -8.6      4.281      9.343
REMARK  Name = 
REMARK  6 active torsions:
REMARK  status: ('A' for Active; 'I' for Inactive)
REMARK    1  A    between atoms: C_1  and  N_2
REMARK    2  A    between atoms: C_6  and  C_7
REMARK    3  A    between atoms: C_14  and  C_15
REMARK    4  A    between atoms: C_15  and  O_16
REMARK    5  A    between atoms: C_15  and  C_17
REMARK    6  A    between atoms: C_20  and  C_21
REMARK                            x       y       z     vdW  Elec       q    Type
REMARK                         _______ _______ _______ _____ _____    ______ ____
ROOT
ATOM      1  C   UNL     1       0.290  10.415  20.453  0.00  0.00    +0.000 C 
ENDROOT
BRANCH   1   8
ATOM      2  C   UNL     1       1.541  13.021  18.996  0.00  0.00    +0.000 C 
ATOM      3  N   UNL     1       0.184  12.711  19.388  0.00  0.00    +0.000 N 
ATOM      4  C   UNL     1      -0.681  13.666  19.890  0.00  0.00    +0.000 C 
ATOM      5  O   UNL     1      -0.444  14.851  20.049  0.00  0.00    +0.000 OA
ATOM      6  C   UNL     1      -1.978  12.998  20.246  0.00  0.00    +0.000 C 
ATOM      7  C   UNL     1      -1.879  11.597  19.626  0.00  0.00    +0.000 C 
ATOM      8  C   UNL     1      -0.369  11.351  19.392  0.00  0.00    +0.000 C 
BRANCH   7   9
ATOM      9  C   UNL     1      -2.694  11.449  18.354  0.00  0.00    +0.000 A 
ATOM     10  C   UNL     1      -2.111  11.132  17.120  0.00  0.00    +0.000 A 
ATOM     11  C   UNL     1      -2.901  10.977  15.977  0.00  0.00    +0.000 A 
ATOM     12  C   UNL     1      -4.286  11.141  16.053  0.00  0.00    +0.000 A 
ATOM     13  C   UNL     1      -4.878  11.460  17.268  0.00  0.00    +0.000 A 
ATOM     14  C   UNL     1      -4.088  11.611  18.401  0.00  0.00    +0.000 A 
ATOM     15  F   UNL     1      -4.686  11.923  19.560  0.00  0.00    +0.000 F 
ENDBRANCH   7   9
ENDBRANCH   1   8
BRANCH   1  16
ATOM     16  C   UNL     1       1.096   9.260  19.879  0.00  0.00    +0.000 A 
ATOM     17  C   UNL     1       1.449   9.255  18.524  0.00  0.00    +0.000 A 
ATOM     18  C   UNL     1       2.146   8.179  17.961  0.00  0.00    +0.000 A 
ATOM     19  C   UNL     1       2.503   7.054  18.722  0.00  0.00    +0.000 A 
ATOM     20  C   UNL     1       2.159   7.071  20.081  0.00  0.00    +0.000 A 
ATOM     21  C   UNL     1       1.479   8.155  20.653  0.00  0.00    +0.000 A 
BRANCH  19  22
ATOM     22  C   UNL     1       3.204   5.901  18.111  0.00  0.00    +0.000 A 
ATOM     23  C   UNL     1       2.518   4.713  17.801  0.00  0.00    +0.000 A 
ATOM     24  C   UNL     1       3.176   3.618  17.233  0.00  0.00    +0.000 A 
ATOM     25  C   UNL     1       4.534   3.692  16.948  0.00  0.00    +0.000 A 
ATOM     26  C   UNL     1       5.238   4.856  17.241  0.00  0.00    +0.000 A 
ATOM     27  C   UNL     1       4.580   5.945  17.823  0.00  0.00    +0.000 A 
ENDBRANCH  19  22
ENDBRANCH   1  16
BRANCH   1  28
ATOM     28  O   UNL     1       1.175  11.161  21.304  0.00  0.00    +0.000 OA
ATOM     29  H   UNL     1       2.032  11.225  20.852  0.00  0.00    +0.000 HD
ENDBRANCH   1  28
TORSDOF 5
ENDMDL
MODEL 6
REMARK VINA RESULT:      -8.6      4.287      9.002
REMARK  Name = 
REMARK  6 active torsions:
REMARK  status: ('A' for Active; 'I' for Inactive)
REMARK    1  A    between atoms: C_1  and  N_2
REMARK    2  A    between atoms: C_6  and  C_7
REMARK    3  A    between atoms: C_14  and  C_15
REMARK    4  A    between atoms: C_15  and  O_16
REMARK    5  A    between atoms: C_15  and  C_17
REMARK    6  A    between atoms: C_20  and  C_21
REMARK                            x       y       z     vdW  Elec       q    Type
REMARK                         _______ _______ _______ _____ _____    ______ ____
ROOT
ATOM      1  C   UNL     1       1.258  11.733  18.956  0.00  0.00    +0.000 C 
ENDROOT
BRANCH   1   8
ATOM      2  C   UNL     1      -0.014  14.711  18.959  0.00  0.00    +0.000 C 
ATOM      3  N   UNL     1      -0.611  13.421  19.229  0.00  0.00    +0.000 N 
ATOM      4  C   UNL     1      -1.571  13.238  20.207  0.00  0.00    +0.000 C 
ATOM      5  O   UNL     1      -2.043  14.094  20.934  0.00  0.00    +0.000 OA
ATOM      6  C   UNL     1      -1.930  11.780  20.258  0.00  0.00    +0.000 C 
ATOM      7  C   UNL     1      -1.286  11.174  19.003  0.00  0.00    +0.000 C 
ATOM      8  C   UNL     1      -0.188  12.177  18.573  0.00  0.00    +0.000 C 
BRANCH   7   9
ATOM      9  C   UNL     1      -2.285  10.900  17.894  0.00  0.00    +0.000 A 
ATOM     10  C   UNL     1      -3.513  11.569  17.805  0.00  0.00    +0.000 A 
ATOM     11  C   UNL     1      -4.394  11.307  16.751  0.00  0.00    +0.000 A 
ATOM     12  C   UNL     1      -4.059  10.367  15.773  0.00  0.00    +0.000 A 
ATOM     13  C   UNL     1      -2.848   9.693  15.850  0.00  0.00    +0.000 A 
ATOM     14  C   UNL     1      -1.975   9.958  16.898  0.00  0.00    +0.000 A 
ATOM     15  F   UNL     1      -0.815   9.289  16.950  0.00  0.00    +0.000 F 
ENDBRANCH   7   9
ENDBRANCH   1   8
BRANCH   1  16
ATOM     16  C   UNL     1       1.457  10.230  19.076  0.00  0.00    +0.000 A 
ATOM     17  C   UNL     1       1.164   9.576  20.279  0.00  0.00    +0.000 A 
ATOM     18  C   UNL     1       1.388   8.202  20.429  0.00  0.00    +0.000 A 
ATOM     19  C   UNL     1       1.933   7.427  19.392  0.00  0.00    +0.000 A 
ATOM     20  C   UNL     1       2.212   8.085  18.186  0.00  0.00    +0.000 A 
ATOM     21  C   UNL     1       1.970   9.456  18.024  0.00  0.00    +0.000 A 
BRANCH  19  22
ATOM     22  C   UNL     1       2.206   5.983  19.571  0.00  0.00    +0.000 A 
ATOM     23  C   UNL     1       1.833   5.311  20.750  0.00  0.00    +0.000 A 
ATOM     24  C   UNL     1       2.096   3.949  20.928  0.00  0.00    +0.000 A 
ATOM     25  C   UNL     1       2.727   3.224  19.924  0.00  0.00    +0.000 A 
ATOM     26  C   UNL     1       3.104   3.861  18.746  0.00  0.00    +0.000 A 
ATOM     27  C   UNL     1       2.852   5.227  18.576  0.00  0.00    +0.000 A 
ENDBRANCH  19  22
ENDBRANCH   1  16
BRANCH   1  28
ATOM     28  O   UNL     1       2.205  12.205  17.985  0.00  0.00    +0.000 OA
ATOM     29  H   UNL     1       1.741  12.277  17.135  0.00  0.00    +0.000 HD
ENDBRANCH   1  28
TORSDOF 5
ENDMDL
MODEL 7
REMARK VINA RESULT:      -8.6      3.719      8.847
REMARK  Name = 
REMARK  6 active torsions:
REMARK  status: ('A' for Active; 'I' for Inactive)
REMARK    1  A    between atoms: C_1  and  N_2
REMARK    2  A    between atoms: C_6  and  C_7
REMARK    3  A    between atoms: C_14  and  C_15
REMARK    4  A    between atoms: C_15  and  O_16
REMARK    5  A    between atoms: C_15  and  C_17
REMARK    6  A    between atoms: C_20  and  C_21
REMARK                            x       y       z     vdW  Elec       q    Type
REMARK                         _______ _______ _______ _____ _____    ______ ____
ROOT
ATOM      1  C   UNL     1       0.441   9.953  20.100  0.00  0.00    +0.000 C 
ENDROOT
BRANCH   1   8
ATOM      2  C   UNL     1       1.454  12.797  18.930  0.00  0.00    +0.000 C 
ATOM      3  N   UNL     1       0.126  12.316  19.245  0.00  0.00    +0.000 N 
ATOM      4  C   UNL     1      -0.845  13.129  19.800  0.00  0.00    +0.000 C 
ATOM      5  O   UNL     1      -0.737  14.311  20.074  0.00  0.00    +0.000 OA
ATOM      6  C   UNL     1      -2.076  12.303  20.048  0.00  0.00    +0.000 C 
ATOM      7  C   UNL     1      -1.816  10.983  19.308  0.00  0.00    +0.000 C 
ATOM      8  C   UNL     1      -0.283  10.913  19.106  0.00  0.00    +0.000 C 
BRANCH   7   9
ATOM      9  C   UNL     1      -2.578  10.874  17.999  0.00  0.00    +0.000 A 
ATOM     10  C   UNL     1      -3.743  11.610  17.744  0.00  0.00    +0.000 A 
ATOM     11  C   UNL     1      -4.400  11.502  16.514  0.00  0.00    +0.000 A 
ATOM     12  C   UNL     1      -3.901  10.652  15.524  0.00  0.00    +0.000 A 
ATOM     13  C   UNL     1      -2.750   9.913  15.764  0.00  0.00    +0.000 A 
ATOM     14  C   UNL     1      -2.100  10.025  16.987  0.00  0.00    +0.000 A 
ATOM     15  F   UNL     1      -0.994   9.297  17.193  0.00  0.00    +0.000 F 
ENDBRANCH   7   9
ENDBRANCH   1   8
BRANCH   1  16
ATOM     16  C   UNL     1       1.386   8.952  19.454  0.00  0.00    +0.000 A 
ATOM     17  C   UNL     1       1.894   9.193  18.172  0.00  0.00    +0.000 A 
ATOM     18  C   UNL     1       2.724   8.262  17.536  0.00  0.00    +0.000 A 
ATOM     19  C   UNL     1       3.067   7.043  18.144  0.00  0.00    +0.000 A 
ATOM     20  C   UNL     1       2.566   6.814  19.434  0.00  0.00    +0.000 A 
ATOM     21  C   UNL     1       1.751   7.752  20.082  0.00  0.00    +0.000 A 
BRANCH  19  22
ATOM     22  C   UNL     1       3.912   6.046  17.450  0.00  0.00    +0.000 A 
ATOM     23  C   UNL     1       4.913   6.442  16.544  0.00  0.00    +0.000 A 
ATOM     24  C   UNL     1       5.708   5.504  15.879  0.00  0.00    +0.000 A 
ATOM     25  C   UNL     1       5.530   4.146  16.115  0.00  0.00    +0.000 A 
ATOM     26  C   UNL     1       4.549   3.724  17.008  0.00  0.00    +0.000 A 
ATOM     27  C   UNL     1       3.745   4.665  17.662  0.00  0.00    +0.000 A 
ENDBRANCH  19  22
ENDBRANCH   1  16
BRANCH   1  28
ATOM     28  O   UNL     1       1.211  10.702  21.054  0.00  0.00    +0.000 OA
ATOM     29  H   UNL     1       1.160  11.638  20.801  0.00  0.00    +0.000 HD
ENDBRANCH   1  28
TORSDOF 5
ENDMDL
MODEL 8
REMARK VINA RESULT:      -8.5      2.737      4.401
REMARK  Name = 
REMARK  6 active torsions:
REMARK  status: ('A' for Active; 'I' for Inactive)
REMARK    1  A    between atoms: C_1  and  N_2
REMARK    2  A    between atoms: C_6  and  C_7
REMARK    3  A    between atoms: C_14  and  C_15
REMARK    4  A    between atoms: C_15  and  O_16
REMARK    5  A    between atoms: C_15  and  C_17
REMARK    6  A    between atoms: C_20  and  C_21
REMARK                            x       y       z     vdW  Elec       q    Type
REMARK                         _______ _______ _______ _____ _____    ______ ____
ROOT
ATOM      1  C   UNL     1       3.213   6.966  17.461  0.00  0.00    +0.000 C 
ENDROOT
BRANCH   1   8
ATOM      2  C   UNL     1       6.353   6.217  17.714  0.00  0.00    +0.000 C 
ATOM      3  N   UNL     1       5.183   5.377  17.587  0.00  0.00    +0.000 N 
ATOM      4  C   UNL     1       5.181   4.214  16.840  0.00  0.00    +0.000 C 
ATOM      5  O   UNL     1       6.121   3.741  16.227  0.00  0.00    +0.000 OA
ATOM      6  C   UNL     1       3.800   3.623  16.876  0.00  0.00    +0.000 C 
ATOM      7  C   UNL     1       3.065   4.415  17.967  0.00  0.00    +0.000 C 
ATOM      8  C   UNL     1       3.869   5.725  18.144  0.00  0.00    +0.000 C 
BRANCH   7   9
ATOM      9  C   UNL     1       2.919   3.645  19.267  0.00  0.00    +0.000 A 
ATOM     10  C   UNL     1       3.933   2.816  19.767  0.00  0.00    +0.000 A 
ATOM     11  C   UNL     1       3.770   2.145  20.983  0.00  0.00    +0.000 A 
ATOM     12  C   UNL     1       2.588   2.293  21.714  0.00  0.00    +0.000 A 
ATOM     13  C   UNL     1       1.574   3.108  21.229  0.00  0.00    +0.000 A 
ATOM     14  C   UNL     1       1.741   3.773  20.021  0.00  0.00    +0.000 A 
ATOM     15  F   UNL     1       0.744   4.550  19.575  0.00  0.00    +0.000 F 
ENDBRANCH   7   9
ENDBRANCH   1   8
BRANCH   1  16
ATOM     16  C   UNL     1       2.395   7.851  18.387  0.00  0.00    +0.000 A 
ATOM     17  C   UNL     1       2.203   7.482  19.724  0.00  0.00    +0.000 A 
ATOM     18  C   UNL     1       1.410   8.254  20.581  0.00  0.00    +0.000 A 
ATOM     19  C   UNL     1       0.760   9.417  20.137  0.00  0.00    +0.000 A 
ATOM     20  C   UNL     1       0.966   9.789  18.800  0.00  0.00    +0.000 A 
ATOM     21  C   UNL     1       1.776   9.030  17.944  0.00  0.00    +0.000 A 
BRANCH  19  22
ATOM     22  C   UNL     1      -0.110  10.207  21.037  0.00  0.00    +0.000 A 
ATOM     23  C   UNL     1      -0.308   9.827  22.378  0.00  0.00    +0.000 A 
ATOM     24  C   UNL     1      -1.135  10.563  23.231  0.00  0.00    +0.000 A 
ATOM     25  C   UNL     1      -1.773  11.708  22.766  0.00  0.00    +0.000 A 
ATOM     26  C   UNL     1      -1.593  12.110  21.446  0.00  0.00    +0.000 A 
ATOM     27  C   UNL     1      -0.776  11.363  20.591  0.00  0.00    +0.000 A 
ENDBRANCH  19  22
ENDBRANCH   1  16
BRANCH   1  28
ATOM     28  O   UNL     1       4.217   7.801  16.861  0.00  0.00    +0.000 OA
ATOM     29  H   UNL     1       3.938   7.985  15.949  0.00  0.00    +0.000 HD
ENDBRANCH   1  28
TORSDOF 5
ENDMDL
MODEL 9
REMARK VINA RESULT:      -8.5      4.162      9.097
REMARK  Name = 
REMARK  6 active torsions:
REMARK  status: ('A' for Active; 'I' for Inactive)
REMARK    1  A    between atoms: C_1  and  N_2
REMARK    2  A    between atoms: C_6  and  C_7
REMARK    3  A    between atoms: C_14  and  C_15
REMARK    4  A    between atoms: C_15  and  O_16
REMARK    5  A    between atoms: C_15  and  C_17
REMARK    6  A    between atoms: C_20  and  C_21
REMARK                            x       y       z     vdW  Elec       q    Type
REMARK                         _______ _______ _______ _____ _____    ______ ____
ROOT
ATOM      1  C   UNL     1       0.438   9.930  20.138  0.00  0.00    +0.000 C 
ENDROOT
BRANCH   1   8
ATOM      2  C   UNL     1       1.567  12.744  19.002  0.00  0.00    +0.000 C 
ATOM      3  N   UNL     1       0.219  12.311  19.300  0.00  0.00    +0.000 N 
ATOM      4  C   UNL     1      -0.727  13.154  19.853  0.00  0.00    +0.000 C 
ATOM      5  O   UNL     1      -0.577  14.329  20.138  0.00  0.00    +0.000 OA
ATOM      6  C   UNL     1      -1.989  12.373  20.082  0.00  0.00    +0.000 C 
ATOM      7  C   UNL     1      -1.771  11.050  19.333  0.00  0.00    +0.000 C 
ATOM      8  C   UNL     1      -0.240  10.925  19.145  0.00  0.00    +0.000 C 
BRANCH   7   9
ATOM      9  C   UNL     1      -2.524  10.980  18.017  0.00  0.00    +0.000 A 
ATOM     10  C   UNL     1      -1.972  10.403  16.865  0.00  0.00    +0.000 A 
ATOM     11  C   UNL     1      -2.710  10.333  15.679  0.00  0.00    +0.000 A 
ATOM     12  C   UNL     1      -4.010  10.843  15.629  0.00  0.00    +0.000 A 
ATOM     13  C   UNL     1      -4.568  11.422  16.761  0.00  0.00    +0.000 A 
ATOM     14  C   UNL     1      -3.832  11.487  17.938  0.00  0.00    +0.000 A 
ATOM     15  F   UNL     1      -4.394  12.054  19.014  0.00  0.00    +0.000 F 
ENDBRANCH   7   9
ENDBRANCH   1   8
BRANCH   1  16
ATOM     16  C   UNL     1       1.377   8.921  19.496  0.00  0.00    +0.000 A 
ATOM     17  C   UNL     1       1.851   9.131  18.195  0.00  0.00    +0.000 A 
ATOM     18  C   UNL     1       2.674   8.191  17.564  0.00  0.00    +0.000 A 
ATOM     19  C   UNL     1       3.043   6.992  18.196  0.00  0.00    +0.000 A 
ATOM     20  C   UNL     1       2.575   6.793  19.503  0.00  0.00    +0.000 A 
ATOM     21  C   UNL     1       1.768   7.741  20.147  0.00  0.00    +0.000 A 
BRANCH  19  22
ATOM     22  C   UNL     1       3.879   5.983  17.508  0.00  0.00    +0.000 A 
ATOM     23  C   UNL     1       4.860   6.364  16.574  0.00  0.00    +0.000 A 
ATOM     24  C   UNL     1       5.648   5.416  15.914  0.00  0.00    +0.000 A 
ATOM     25  C   UNL     1       5.482   4.062  16.184  0.00  0.00    +0.000 A 
ATOM     26  C   UNL     1       4.521   3.656  17.106  0.00  0.00    +0.000 A 
ATOM     27  C   UNL     1       3.725   4.606  17.754  0.00  0.00    +0.000 A 
ENDBRANCH  19  22
ENDBRANCH   1  16
BRANCH   1  28
ATOM     28  O   UNL     1       1.202  10.644  21.124  0.00  0.00    +0.000 OA
ATOM     29  H   UNL     1       1.609   9.987  21.711  0.00  0.00    +0.000 HD
ENDBRANCH   1  28
TORSDOF 5
ENDMDL
