MODEL 1
REMARK VINA RESULT:      -6.6      0.000      0.000
REMARK  Name = 
REMARK  6 active torsions:
REMARK  status: ('A' for Active; 'I' for Inactive)
REMARK    1  A    between atoms: C_1  and  C_2
REMARK    2  A    between atoms: C_2  and  C_3
REMARK    3  A    between atoms: C_3  and  C_4
REMARK    4  A    between atoms: C_3  and  N_5
REMARK    5  A    between atoms: C_6  and  C_8
REMARK    6  A    between atoms: C_9  and  C_10
REMARK                            x       y       z     vdW  Elec       q    Type
REMARK                         _______ _______ _______ _____ _____    ______ ____
ROOT
ATOM      1  C   UNL     1       5.627   4.927  15.837  0.00  0.00    +0.000 C 
ATOM      2  C   UNL     1       4.863   3.924  16.298  0.00  0.00    +0.000 C 
ENDROOT
BRANCH   2   3
ATOM      3  C   UNL     1       3.881   4.057  17.384  0.00  0.00    +0.000 A 
ATOM      4  C   UNL     1       2.605   3.478  17.311  0.00  0.00    +0.000 A 
ATOM      5  C   UNL     1       1.703   3.601  18.372  0.00  0.00    +0.000 A 
ATOM      6  C   UNL     1       2.075   4.293  19.520  0.00  0.00    +0.000 A 
ATOM      7 CL   UNL     1       0.961   4.447  20.822  0.00  0.00    +0.000 Cl
ATOM      8  C   UNL     1       3.345   4.855  19.621  0.00  0.00    +0.000 A 
ATOM      9  C   UNL     1       4.247   4.731  18.559  0.00  0.00    +0.000 A 
ENDBRANCH   2   3
BRANCH   1  11
ATOM     10  N   UNL     1       5.994   3.961  13.686  0.00  0.00    +0.000 N 
ATOM     11  C   UNL     1       6.560   4.683  14.709  0.00  0.00    +0.000 C 
ATOM     12  O   UNL     1       7.717   5.084  14.712  0.00  0.00    +0.000 OA
ATOM     13  H   UNL     1       5.009   3.738  13.710  0.00  0.00    +0.000 HD
BRANCH  10  14
ATOM     14  C   UNL     1       6.753   3.618  12.491  0.00  0.00    +0.000 C 
ATOM     15  C   UNL     1       7.259   4.889  11.807  0.00  0.00    +0.000 C 
BRANCH  14  17
ATOM     16  C   UNL     1       4.455   3.241  11.444  0.00  0.00    +0.000 C 
ATOM     17  C   UNL     1       5.908   2.786  11.514  0.00  0.00    +0.000 C 
ENDBRANCH  14  17
ENDBRANCH  10  14
ENDBRANCH   1  11
TORSDOF 4
ENDMDL
MODEL 2
REMARK VINA RESULT:      -6.6      7.122      8.352
REMARK  Name = 
REMARK  6 active torsions:
REMARK  status: ('A' for Active; 'I' for Inactive)
REMARK    1  A    between atoms: C_1  and  C_2
REMARK    2  A    between atoms: C_2  and  C_3
REMARK    3  A    between atoms: C_3  and  C_4
REMARK    4  A    between atoms: C_3  and  N_5
REMARK    5  A    between atoms: C_6  and  C_8
REMARK    6  A    between atoms: C_9  and  C_10
REMARK                            x       y       z     vdW  Elec       q    Type
REMARK                         _______ _______ _______ _____ _____    ______ ____
ROOT
ATOM      1  C   UNL     1       8.051   8.883  17.810  0.00  0.00    +0.000 C 
ATOM      2  C   UNL     1       8.844   9.355  18.785  0.00  0.00    +0.000 C 
ENDROOT
BRANCH   2   3
ATOM      3  C   UNL     1       9.290  10.752  18.893  0.00  0.00    +0.000 A 
ATOM      4  C   UNL     1       8.965  11.715  17.927  0.00  0.00    +0.000 A 
ATOM      5  C   UNL     1       9.383  13.042  18.072  0.00  0.00    +0.000 A 
ATOM      6  C   UNL     1      10.117  13.417  19.192  0.00  0.00    +0.000 A 
ATOM      7 CL   UNL     1      10.635  15.049  19.367  0.00  0.00    +0.000 Cl
ATOM      8  C   UNL     1      10.429  12.480  20.174  0.00  0.00    +0.000 A 
ATOM      9  C   UNL     1      10.010  11.154  20.028  0.00  0.00    +0.000 A 
ENDBRANCH   2   3
BRANCH   1  11
ATOM     10  N   UNL     1       6.848   7.115  16.751  0.00  0.00    +0.000 N 
ATOM     11  C   UNL     1       7.636   7.459  17.824  0.00  0.00    +0.000 C 
ATOM     12  O   UNL     1       7.963   6.685  18.715  0.00  0.00    +0.000 OA
ATOM     13  H   UNL     1       6.689   7.780  16.008  0.00  0.00    +0.000 HD
BRANCH  10  14
ATOM     14  C   UNL     1       6.339   5.759  16.590  0.00  0.00    +0.000 C 
ATOM     15  C   UNL     1       7.030   5.074  15.411  0.00  0.00    +0.000 C 
BRANCH  14  17
ATOM     16  C   UNL     1       4.079   4.920  17.432  0.00  0.00    +0.000 C 
ATOM     17  C   UNL     1       4.815   5.756  16.392  0.00  0.00    +0.000 C 
ENDBRANCH  14  17
ENDBRANCH  10  14
ENDBRANCH   1  11
TORSDOF 4
ENDMDL
MODEL 3
REMARK VINA RESULT:      -6.6      7.186      8.579
REMARK  Name = 
REMARK  6 active torsions:
REMARK  status: ('A' for Active; 'I' for Inactive)
REMARK    1  A    between atoms: C_1  and  C_2
REMARK    2  A    between atoms: C_2  and  C_3
REMARK    3  A    between atoms: C_3  and  C_4
REMARK    4  A    between atoms: C_3  and  N_5
REMARK    5  A    between atoms: C_6  and  C_8
REMARK    6  A    between atoms: C_9  and  C_10
REMARK                            x       y       z     vdW  Elec       q    Type
REMARK                         _______ _______ _______ _____ _____    ______ ____
ROOT
ATOM      1  C   UNL     1       8.268   8.762  17.841  0.00  0.00    +0.000 C 
ATOM      2  C   UNL     1       8.756   9.278  18.981  0.00  0.00    +0.000 C 
ENDROOT
BRANCH   2   3
ATOM      3  C   UNL     1       9.421  10.585  19.085  0.00  0.00    +0.000 A 
ATOM      4  C   UNL     1       9.901  11.082  20.306  0.00  0.00    +0.000 A 
ATOM      5  C   UNL     1      10.552  12.318  20.367  0.00  0.00    +0.000 A 
ATOM      6  C   UNL     1      10.738  13.061  19.206  0.00  0.00    +0.000 A 
ATOM      7 CL   UNL     1      11.534  14.584  19.284  0.00  0.00    +0.000 Cl
ATOM      8  C   UNL     1      10.290  12.573  17.980  0.00  0.00    +0.000 A 
ATOM      9  C   UNL     1       9.639  11.337  17.921  0.00  0.00    +0.000 A 
ENDBRANCH   2   3
BRANCH   1  11
ATOM     10  N   UNL     1       6.520   7.374  16.996  0.00  0.00    +0.000 N 
ATOM     11  C   UNL     1       7.583   7.446  17.864  0.00  0.00    +0.000 C 
ATOM     12  O   UNL     1       7.937   6.531  18.598  0.00  0.00    +0.000 OA
ATOM     13  H   UNL     1       6.339   8.135  16.356  0.00  0.00    +0.000 HD
BRANCH  10  14
ATOM     14  C   UNL     1       5.721   6.162  16.876  0.00  0.00    +0.000 C 
ATOM     15  C   UNL     1       5.734   5.664  15.430  0.00  0.00    +0.000 C 
BRANCH  14  17
ATOM     16  C   UNL     1       3.520   5.103  17.619  0.00  0.00    +0.000 C 
ATOM     17  C   UNL     1       4.278   6.398  17.348  0.00  0.00    +0.000 C 
ENDBRANCH  14  17
ENDBRANCH  10  14
ENDBRANCH   1  11
TORSDOF 4
ENDMDL
MODEL 4
REMARK VINA RESULT:      -6.6      6.178      7.365
REMARK  Name = 
REMARK  6 active torsions:
REMARK  status: ('A' for Active; 'I' for Inactive)
REMARK    1  A    between atoms: C_1  and  C_2
REMARK    2  A    between atoms: C_2  and  C_3
REMARK    3  A    between atoms: C_3  and  C_4
REMARK    4  A    between atoms: C_3  and  N_5
REMARK    5  A    between atoms: C_6  and  C_8
REMARK    6  A    between atoms: C_9  and  C_10
REMARK                            x       y       z     vdW  Elec       q    Type
REMARK                         _______ _______ _______ _____ _____    ______ ____
ROOT
ATOM      1  C   UNL     1       8.165   7.334  18.484  0.00  0.00    +0.000 C 
ATOM      2  C   UNL     1       7.979   8.483  17.815  0.00  0.00    +0.000 C 
ENDROOT
BRANCH   2   3
ATOM      3  C   UNL     1       8.542   9.780  18.217  0.00  0.00    +0.000 A 
ATOM      4  C   UNL     1       8.280  10.959  17.503  0.00  0.00    +0.000 A 
ATOM      5  C   UNL     1       8.810  12.182  17.926  0.00  0.00    +0.000 A 
ATOM      6  C   UNL     1       9.595  12.237  19.074  0.00  0.00    +0.000 A 
ATOM      7 CL   UNL     1      10.250  13.742  19.589  0.00  0.00    +0.000 Cl
ATOM      8  C   UNL     1       9.846  11.081  19.809  0.00  0.00    +0.000 A 
ATOM      9  C   UNL     1       9.315   9.859  19.385  0.00  0.00    +0.000 A 
ENDBRANCH   2   3
BRANCH   1  11
ATOM     10  N   UNL     1       7.252   6.142  16.628  0.00  0.00    +0.000 N 
ATOM     11  C   UNL     1       7.577   6.076  17.962  0.00  0.00    +0.000 C 
ATOM     12  O   UNL     1       7.396   5.090  18.667  0.00  0.00    +0.000 OA
ATOM     13  H   UNL     1       7.510   6.955  16.086  0.00  0.00    +0.000 HD
BRANCH  10  14
ATOM     14  C   UNL     1       6.661   5.006  15.935  0.00  0.00    +0.000 C 
ATOM     15  C   UNL     1       7.146   4.963  14.485  0.00  0.00    +0.000 C 
BRANCH  14  17
ATOM     16  C   UNL     1       4.514   3.931  16.803  0.00  0.00    +0.000 C 
ATOM     17  C   UNL     1       5.126   5.062  15.983  0.00  0.00    +0.000 C 
ENDBRANCH  14  17
ENDBRANCH  10  14
ENDBRANCH   1  11
TORSDOF 4
ENDMDL
MODEL 5
REMARK VINA RESULT:      -6.5      1.135      1.502
REMARK  Name = 
REMARK  6 active torsions:
REMARK  status: ('A' for Active; 'I' for Inactive)
REMARK    1  A    between atoms: C_1  and  C_2
REMARK    2  A    between atoms: C_2  and  C_3
REMARK    3  A    between atoms: C_3  and  C_4
REMARK    4  A    between atoms: C_3  and  N_5
REMARK    5  A    between atoms: C_6  and  C_8
REMARK    6  A    between atoms: C_9  and  C_10
REMARK                            x       y       z     vdW  Elec       q    Type
REMARK                         _______ _______ _______ _____ _____    ______ ____
ROOT
ATOM      1  C   UNL     1       5.542   4.061  16.032  0.00  0.00    +0.000 C 
ATOM      2  C   UNL     1       4.224   4.062  16.286  0.00  0.00    +0.000 C 
ENDROOT
BRANCH   2   3
ATOM      3  C   UNL     1       3.631   3.839  17.613  0.00  0.00    +0.000 A 
ATOM      4  C   UNL     1       2.345   4.291  17.940  0.00  0.00    +0.000 A 
ATOM      5  C   UNL     1       1.799   4.041  19.203  0.00  0.00    +0.000 A 
ATOM      6  C   UNL     1       2.531   3.322  20.143  0.00  0.00    +0.000 A 
ATOM      7 CL   UNL     1       1.861   3.019  21.698  0.00  0.00    +0.000 Cl
ATOM      8  C   UNL     1       3.801   2.844  19.828  0.00  0.00    +0.000 A 
ATOM      9  C   UNL     1       4.345   3.096  18.565  0.00  0.00    +0.000 A 
ENDBRANCH   2   3
BRANCH   1  11
ATOM     10  N   UNL     1       5.468   3.510  13.711  0.00  0.00    +0.000 N 
ATOM     11  C   UNL     1       6.027   4.336  14.657  0.00  0.00    +0.000 C 
ATOM     12  O   UNL     1       6.851   5.208  14.410  0.00  0.00    +0.000 OA
ATOM     13  H   UNL     1       4.729   2.871  13.972  0.00  0.00    +0.000 HD
BRANCH  10  14
ATOM     14  C   UNL     1       5.820   3.623  12.303  0.00  0.00    +0.000 C 
ATOM     15  C   UNL     1       4.581   3.414  11.432  0.00  0.00    +0.000 C 
BRANCH  14  17
ATOM     16  C   UNL     1       6.377   1.388  11.202  0.00  0.00    +0.000 C 
ATOM     17  C   UNL     1       6.918   2.619  11.920  0.00  0.00    +0.000 C 
ENDBRANCH  14  17
ENDBRANCH  10  14
ENDBRANCH   1  11
TORSDOF 4
ENDMDL
MODEL 6
REMARK VINA RESULT:      -6.5      3.707      4.659
REMARK  Name = 
REMARK  6 active torsions:
REMARK  status: ('A' for Active; 'I' for Inactive)
REMARK    1  A    between atoms: C_1  and  C_2
REMARK    2  A    between atoms: C_2  and  C_3
REMARK    3  A    between atoms: C_3  and  C_4
REMARK    4  A    between atoms: C_3  and  N_5
REMARK    5  A    between atoms: C_6  and  C_8
REMARK    6  A    between atoms: C_9  and  C_10
REMARK                            x       y       z     vdW  Elec       q    Type
REMARK                         _______ _______ _______ _____ _____    ______ ____
ROOT
ATOM      1  C   UNL     1       3.028   5.452  17.832  0.00  0.00    +0.000 C 
ATOM      2  C   UNL     1       3.356   6.703  18.190  0.00  0.00    +0.000 C 
ENDROOT
BRANCH   2   3
ATOM      3  C   UNL     1       2.399   7.709  18.674  0.00  0.00    +0.000 A 
ATOM      4  C   UNL     1       1.968   7.747  20.009  0.00  0.00    +0.000 A 
ATOM      5  C   UNL     1       1.076   8.732  20.444  0.00  0.00    +0.000 A 
ATOM      6  C   UNL     1       0.620   9.696  19.550  0.00  0.00    +0.000 A 
ATOM      7 CL   UNL     1      -0.481  10.905  20.086  0.00  0.00    +0.000 Cl
ATOM      8  C   UNL     1       1.055   9.689  18.227  0.00  0.00    +0.000 A 
ATOM      9  C   UNL     1       1.947   8.703  17.794  0.00  0.00    +0.000 A 
ENDBRANCH   2   3
BRANCH   1  11
ATOM     10  N   UNL     1       5.166   5.140  16.819  0.00  0.00    +0.000 N 
ATOM     11  C   UNL     1       4.087   4.511  17.393  0.00  0.00    +0.000 C 
ATOM     12  O   UNL     1       3.987   3.297  17.526  0.00  0.00    +0.000 OA
ATOM     13  H   UNL     1       5.221   6.149  16.821  0.00  0.00    +0.000 HD
BRANCH  10  14
ATOM     14  C   UNL     1       6.307   4.384  16.322  0.00  0.00    +0.000 C 
ATOM     15  C   UNL     1       7.497   4.544  17.269  0.00  0.00    +0.000 C 
BRANCH  14  17
ATOM     16  C   UNL     1       6.110   3.922  13.819  0.00  0.00    +0.000 C 
ATOM     17  C   UNL     1       6.692   4.825  14.901  0.00  0.00    +0.000 C 
ENDBRANCH  14  17
ENDBRANCH  10  14
ENDBRANCH   1  11
TORSDOF 4
ENDMDL
MODEL 7
REMARK VINA RESULT:      -6.5      1.205      1.531
REMARK  Name = 
REMARK  6 active torsions:
REMARK  status: ('A' for Active; 'I' for Inactive)
REMARK    1  A    between atoms: C_1  and  C_2
REMARK    2  A    between atoms: C_2  and  C_3
REMARK    3  A    between atoms: C_3  and  C_4
REMARK    4  A    between atoms: C_3  and  N_5
REMARK    5  A    between atoms: C_6  and  C_8
REMARK    6  A    between atoms: C_9  and  C_10
REMARK                            x       y       z     vdW  Elec       q    Type
REMARK                         _______ _______ _______ _____ _____    ______ ____
ROOT
ATOM      1  C   UNL     1       5.739   3.861  15.861  0.00  0.00    +0.000 C 
ATOM      2  C   UNL     1       4.497   4.177  16.262  0.00  0.00    +0.000 C 
ENDROOT
BRANCH   2   3
ATOM      3  C   UNL     1       3.961   3.907  17.605  0.00  0.00    +0.000 A 
ATOM      4  C   UNL     1       3.703   2.605  18.057  0.00  0.00    +0.000 A 
ATOM      5  C   UNL     1       3.217   2.380  19.349  0.00  0.00    +0.000 A 
ATOM      6  C   UNL     1       3.000   3.457  20.203  0.00  0.00    +0.000 A 
ATOM      7 CL   UNL     1       2.398   3.179  21.791  0.00  0.00    +0.000 Cl
ATOM      8  C   UNL     1       3.273   4.756  19.780  0.00  0.00    +0.000 A 
ATOM      9  C   UNL     1       3.759   4.978  18.488  0.00  0.00    +0.000 A 
ENDBRANCH   2   3
BRANCH   1  11
ATOM     10  N   UNL     1       5.797   3.297  13.543  0.00  0.00    +0.000 N 
ATOM     11  C   UNL     1       6.181   4.215  14.490  0.00  0.00    +0.000 C 
ATOM     12  O   UNL     1       6.833   5.224  14.248  0.00  0.00    +0.000 OA
ATOM     13  H   UNL     1       5.186   2.533  13.799  0.00  0.00    +0.000 HD
BRANCH  10  14
ATOM     14  C   UNL     1       6.140   3.469  12.138  0.00  0.00    +0.000 C 
ATOM     15  C   UNL     1       4.894   3.302  11.268  0.00  0.00    +0.000 C 
BRANCH  14  17
ATOM     16  C   UNL     1       6.676   1.259  10.977  0.00  0.00    +0.000 C 
ATOM     17  C   UNL     1       7.231   2.478  11.705  0.00  0.00    +0.000 C 
ENDBRANCH  14  17
ENDBRANCH  10  14
ENDBRANCH   1  11
TORSDOF 4
ENDMDL
MODEL 8
REMARK VINA RESULT:      -6.4      0.635      1.469
REMARK  Name = 
REMARK  6 active torsions:
REMARK  status: ('A' for Active; 'I' for Inactive)
REMARK    1  A    between atoms: C_1  and  C_2
REMARK    2  A    between atoms: C_2  and  C_3
REMARK    3  A    between atoms: C_3  and  C_4
REMARK    4  A    between atoms: C_3  and  N_5
REMARK    5  A    between atoms: C_6  and  C_8
REMARK    6  A    between atoms: C_9  and  C_10
REMARK                            x       y       z     vdW  Elec       q    Type
REMARK                         _______ _______ _______ _____ _____    ______ ____
ROOT
ATOM      1  C   UNL     1       6.062   4.820  15.831  0.00  0.00    +0.000 C 
ATOM      2  C   UNL     1       4.833   4.295  15.956  0.00  0.00    +0.000 C 
ENDROOT
BRANCH   2   3
ATOM      3  C   UNL     1       3.982   4.442  17.146  0.00  0.00    +0.000 A 
ATOM      4  C   UNL     1       4.229   5.416  18.124  0.00  0.00    +0.000 A 
ATOM      5  C   UNL     1       3.386   5.546  19.232  0.00  0.00    +0.000 A 
ATOM      6  C   UNL     1       2.281   4.711  19.363  0.00  0.00    +0.000 A 
ATOM      7 CL   UNL     1       1.247   4.869  20.729  0.00  0.00    +0.000 Cl
ATOM      8  C   UNL     1       2.005   3.753  18.389  0.00  0.00    +0.000 A 
ATOM      9  C   UNL     1       2.850   3.624  17.282  0.00  0.00    +0.000 A 
ENDBRANCH   2   3
BRANCH   1  11
ATOM     10  N   UNL     1       6.241   3.715  13.723  0.00  0.00    +0.000 N 
ATOM     11  C   UNL     1       6.815   4.636  14.566  0.00  0.00    +0.000 C 
ATOM     12  O   UNL     1       7.849   5.245  14.320  0.00  0.00    +0.000 OA
ATOM     13  H   UNL     1       5.341   3.315  13.950  0.00  0.00    +0.000 HD
BRANCH  10  14
ATOM     14  C   UNL     1       6.834   3.396  12.432  0.00  0.00    +0.000 C 
ATOM     15  C   UNL     1       7.120   4.680  11.652  0.00  0.00    +0.000 C 
BRANCH  14  17
ATOM     16  C   UNL     1       6.667   1.269  11.029  0.00  0.00    +0.000 C 
ATOM     17  C   UNL     1       5.925   2.465  11.615  0.00  0.00    +0.000 C 
ENDBRANCH  14  17
ENDBRANCH  10  14
ENDBRANCH   1  11
TORSDOF 4
ENDMDL
MODEL 9
REMARK VINA RESULT:      -6.4      1.544      1.902
REMARK  Name = 
REMARK  6 active torsions:
REMARK  status: ('A' for Active; 'I' for Inactive)
REMARK    1  A    between atoms: C_1  and  C_2
REMARK    2  A    between atoms: C_2  and  C_3
REMARK    3  A    between atoms: C_3  and  C_4
REMARK    4  A    between atoms: C_3  and  N_5
REMARK    5  A    between atoms: C_6  and  C_8
REMARK    6  A    between atoms: C_9  and  C_10
REMARK                            x       y       z     vdW  Elec       q    Type
REMARK                         _______ _______ _______ _____ _____    ______ ____
ROOT
ATOM      1  C   UNL     1       5.037   5.244  15.726  0.00  0.00    +0.000 C 
ATOM      2  C   UNL     1       5.203   5.286  17.058  0.00  0.00    +0.000 C 
ENDROOT
BRANCH   2   3
ATOM      3  C   UNL     1       4.211   5.819  18.004  0.00  0.00    +0.000 A 
ATOM      4  C   UNL     1       3.915   5.174  19.214  0.00  0.00    +0.000 A 
ATOM      5  C   UNL     1       2.985   5.720  20.104  0.00  0.00    +0.000 A 
ATOM      6  C   UNL     1       2.354   6.922  19.796  0.00  0.00    +0.000 A 
ATOM      7 CL   UNL     1       1.207   7.589  20.891  0.00  0.00    +0.000 Cl
ATOM      8  C   UNL     1       2.653   7.589  18.610  0.00  0.00    +0.000 A 
ATOM      9  C   UNL     1       3.584   7.041  17.721  0.00  0.00    +0.000 A 
ENDBRANCH   2   3
BRANCH   1  11
ATOM     10  N   UNL     1       5.618   4.174  13.673  0.00  0.00    +0.000 N 
ATOM     11  C   UNL     1       6.094   4.649  14.872  0.00  0.00    +0.000 C 
ATOM     12  O   UNL     1       7.267   4.587  15.221  0.00  0.00    +0.000 OA
ATOM     13  H   UNL     1       4.656   4.338  13.412  0.00  0.00    +0.000 HD
BRANCH  10  14
ATOM     14  C   UNL     1       6.504   3.552  12.699  0.00  0.00    +0.000 C 
ATOM     15  C   UNL     1       7.279   4.625  11.932  0.00  0.00    +0.000 C 
BRANCH  14  17
ATOM     16  C   UNL     1       4.325   3.189  11.419  0.00  0.00    +0.000 C 
ATOM     17  C   UNL     1       5.722   2.658  11.724  0.00  0.00    +0.000 C 
ENDBRANCH  14  17
ENDBRANCH  10  14
ENDBRANCH   1  11
TORSDOF 4
ENDMDL
