MODEL 1
REMARK VINA RESULT:      -8.2      0.000      0.000
REMARK  Name = 
REMARK  5 active torsions:
REMARK  status: ('A' for Active; 'I' for Inactive)
REMARK    1  A    between atoms: C_2  and  C_3
REMARK    2  A    between atoms: C_8  and  N_9
REMARK    3  A    between atoms: N_15  and  C_16
REMARK    4  A    between atoms: C_19  and  C_20
REMARK    5  A    between atoms: C_20  and  O_22
REMARK                            x       y       z     vdW  Elec       q    Type
REMARK                         _______ _______ _______ _____ _____    ______ ____
ROOT
ATOM      1  N   UNL     1       4.785   4.784  19.634  0.00  0.00    +0.000 N 
ATOM      2  C   UNL     1       5.994   5.228  19.033  0.00  0.00    +0.000 A 
ATOM      3  C   UNL     1       7.032   5.657  19.830  0.00  0.00    +0.000 A 
ATOM      4  C   UNL     1       8.140   6.138  19.172  0.00  0.00    +0.000 A 
ATOM      5  N   UNL     1       8.222   6.254  17.836  0.00  0.00    +0.000 NA
ATOM      6  C   UNL     1       7.161   5.836  17.132  0.00  0.00    +0.000 A 
ATOM      7  N   UNL     1       7.203   6.015  15.751  0.00  0.00    +0.000 N 
ATOM      8  N   UNL     1       6.069   5.308  17.695  0.00  0.00    +0.000 NA
ATOM      9  H   UNL     1       4.966   4.433  20.570  0.00  0.00    +0.000 HD
ATOM     10  H   UNL     1       8.069   6.472  15.499  0.00  0.00    +0.000 HD
ENDROOT
BRANCH   1  16
ATOM     11  C   UNL     1       3.858   2.527  19.249  0.00  0.00    +0.000 A 
ATOM     12  C   UNL     1       3.012   1.677  18.513  0.00  0.00    +0.000 A 
ATOM     13  C   UNL     1       2.195   2.182  17.503  0.00  0.00    +0.000 A 
ATOM     14  C   UNL     1       2.213   3.541  17.222  0.00  0.00    +0.000 A 
ATOM     15  C   UNL     1       3.048   4.390  17.946  0.00  0.00    +0.000 A 
ATOM     16  C   UNL     1       3.863   3.908  18.988  0.00  0.00    +0.000 A 
BRANCH  11  18
ATOM     17  N   UNL     1       5.315   1.498  21.137  0.00  0.00    +0.000 NA
ATOM     18  C   UNL     1       4.685   1.953  20.273  0.00  0.00    +0.000 C 
ENDBRANCH  11  18
ENDBRANCH   1  16
BRANCH   7  19
ATOM     19  C   UNL     1       6.676   5.170  14.761  0.00  0.00    +0.000 A 
ATOM     20  C   UNL     1       7.421   4.929  13.603  0.00  0.00    +0.000 A 
ATOM     21  C   UNL     1       6.931   4.092  12.595  0.00  0.00    +0.000 A 
ATOM     22  C   UNL     1       5.690   3.460  12.742  0.00  0.00    +0.000 A 
ATOM     23  C   UNL     1       4.953   3.663  13.913  0.00  0.00    +0.000 A 
ATOM     24  C   UNL     1       5.441   4.523  14.904  0.00  0.00    +0.000 A 
BRANCH  22  25
ATOM     25  C   UNL     1       5.238   2.548  11.660  0.00  0.00    +0.000 C 
ATOM     26  O   UNL     1       4.219   2.739  11.018  0.00  0.00    +0.000 OA
BRANCH  25  27
ATOM     27  O   UNL     1       6.034   1.475  11.466  0.00  0.00    +0.000 OA
ATOM     28  H   UNL     1       6.987   1.670  11.431  0.00  0.00    +0.000 HD
ENDBRANCH  25  27
ENDBRANCH  22  25
ENDBRANCH   7  19
TORSDOF 5
ENDMDL
MODEL 2
REMARK VINA RESULT:      -8.0      0.843      1.977
REMARK  Name = 
REMARK  5 active torsions:
REMARK  status: ('A' for Active; 'I' for Inactive)
REMARK    1  A    between atoms: C_2  and  C_3
REMARK    2  A    between atoms: C_8  and  N_9
REMARK    3  A    between atoms: N_15  and  C_16
REMARK    4  A    between atoms: C_19  and  C_20
REMARK    5  A    between atoms: C_20  and  O_22
REMARK                            x       y       z     vdW  Elec       q    Type
REMARK                         _______ _______ _______ _____ _____    ______ ____
ROOT
ATOM      1  N   UNL     1       4.763   4.852  19.597  0.00  0.00    +0.000 N 
ATOM      2  C   UNL     1       5.989   5.253  19.002  0.00  0.00    +0.000 A 
ATOM      3  C   UNL     1       7.036   5.651  19.805  0.00  0.00    +0.000 A 
ATOM      4  C   UNL     1       8.164   6.093  19.153  0.00  0.00    +0.000 A 
ATOM      5  N   UNL     1       8.258   6.201  17.817  0.00  0.00    +0.000 NA
ATOM      6  C   UNL     1       7.188   5.817  17.108  0.00  0.00    +0.000 A 
ATOM      7  N   UNL     1       7.245   5.989  15.726  0.00  0.00    +0.000 N 
ATOM      8  N   UNL     1       6.076   5.326  17.665  0.00  0.00    +0.000 NA
ATOM      9  H   UNL     1       4.927   4.498  20.536  0.00  0.00    +0.000 HD
ATOM     10  H   UNL     1       8.127   6.417  15.478  0.00  0.00    +0.000 HD
ENDROOT
BRANCH   1  16
ATOM     11  C   UNL     1       2.665   4.524  18.334  0.00  0.00    +0.000 A 
ATOM     12  C   UNL     1       1.700   3.651  17.800  0.00  0.00    +0.000 A 
ATOM     13  C   UNL     1       1.853   2.269  17.899  0.00  0.00    +0.000 A 
ATOM     14  C   UNL     1       2.975   1.747  18.527  0.00  0.00    +0.000 A 
ATOM     15  C   UNL     1       3.937   2.605  19.057  0.00  0.00    +0.000 A 
ATOM     16  C   UNL     1       3.817   4.003  18.948  0.00  0.00    +0.000 A 
BRANCH  11  18
ATOM     17  N   UNL     1       2.305   7.090  18.163  0.00  0.00    +0.000 NA
ATOM     18  C   UNL     1       2.454   5.939  18.212  0.00  0.00    +0.000 C 
ENDBRANCH  11  18
ENDBRANCH   1  16
BRANCH   7  19
ATOM     19  C   UNL     1       6.697   5.158  14.736  0.00  0.00    +0.000 A 
ATOM     20  C   UNL     1       7.423   4.924  13.563  0.00  0.00    +0.000 A 
ATOM     21  C   UNL     1       6.912   4.101  12.555  0.00  0.00    +0.000 A 
ATOM     22  C   UNL     1       5.669   3.477  12.714  0.00  0.00    +0.000 A 
ATOM     23  C   UNL     1       4.951   3.672  13.898  0.00  0.00    +0.000 A 
ATOM     24  C   UNL     1       5.460   4.518  14.890  0.00  0.00    +0.000 A 
BRANCH  22  25
ATOM     25  C   UNL     1       5.193   2.579  11.629  0.00  0.00    +0.000 C 
ATOM     26  O   UNL     1       4.192   2.809  10.974  0.00  0.00    +0.000 OA
BRANCH  25  27
ATOM     27  O   UNL     1       5.948   1.474  11.449  0.00  0.00    +0.000 OA
ATOM     28  H   UNL     1       6.379   1.407  10.579  0.00  0.00    +0.000 HD
ENDBRANCH  25  27
ENDBRANCH  22  25
ENDBRANCH   7  19
TORSDOF 5
ENDMDL
MODEL 3
REMARK VINA RESULT:      -7.5      4.799      6.493
REMARK  Name = 
REMARK  5 active torsions:
REMARK  status: ('A' for Active; 'I' for Inactive)
REMARK    1  A    between atoms: C_2  and  C_3
REMARK    2  A    between atoms: C_8  and  N_9
REMARK    3  A    between atoms: N_15  and  C_16
REMARK    4  A    between atoms: C_19  and  C_20
REMARK    5  A    between atoms: C_20  and  O_22
REMARK                            x       y       z     vdW  Elec       q    Type
REMARK                         _______ _______ _______ _____ _____    ______ ____
ROOT
ATOM      1  N   UNL     1       4.220   2.950  18.400  0.00  0.00    +0.000 N 
ATOM      2  C   UNL     1       4.451   3.987  17.457  0.00  0.00    +0.000 A 
ATOM      3  C   UNL     1       5.087   3.697  16.269  0.00  0.00    +0.000 A 
ATOM      4  C   UNL     1       5.337   4.766  15.441  0.00  0.00    +0.000 A 
ATOM      5  N   UNL     1       5.049   6.040  15.759  0.00  0.00    +0.000 NA
ATOM      6  C   UNL     1       4.453   6.241  16.943  0.00  0.00    +0.000 A 
ATOM      7  N   UNL     1       4.212   7.561  17.318  0.00  0.00    +0.000 N 
ATOM      8  N   UNL     1       4.129   5.249  17.779  0.00  0.00    +0.000 NA
ATOM      9  H   UNL     1       4.161   2.052  17.927  0.00  0.00    +0.000 HD
ATOM     10  H   UNL     1       4.564   8.182  16.601  0.00  0.00    +0.000 HD
ENDROOT
BRANCH   1  16
ATOM     11  C   UNL     1       3.355   2.373  20.641  0.00  0.00    +0.000 A 
ATOM     12  C   UNL     1       2.288   2.357  21.557  0.00  0.00    +0.000 A 
ATOM     13  C   UNL     1       1.063   2.940  21.238  0.00  0.00    +0.000 A 
ATOM     14  C   UNL     1       0.895   3.548  20.001  0.00  0.00    +0.000 A 
ATOM     15  C   UNL     1       1.947   3.568  19.088  0.00  0.00    +0.000 A 
ATOM     16  C   UNL     1       3.202   3.008  19.397  0.00  0.00    +0.000 A 
BRANCH  11  18
ATOM     17  N   UNL     1       5.572   1.231  21.369  0.00  0.00    +0.000 NA
ATOM     18  C   UNL     1       4.593   1.750  21.018  0.00  0.00    +0.000 C 
ENDBRANCH  11  18
ENDBRANCH   1  16
BRANCH   7  19
ATOM     19  C   UNL     1       3.117   8.060  18.041  0.00  0.00    +0.000 A 
ATOM     20  C   UNL     1       2.753   7.440  19.240  0.00  0.00    +0.000 A 
ATOM     21  C   UNL     1       1.669   7.909  19.990  0.00  0.00    +0.000 A 
ATOM     22  C   UNL     1       0.944   9.028  19.561  0.00  0.00    +0.000 A 
ATOM     23  C   UNL     1       1.323   9.679  18.384  0.00  0.00    +0.000 A 
ATOM     24  C   UNL     1       2.392   9.187  17.627  0.00  0.00    +0.000 A 
BRANCH  22  25
ATOM     25  C   UNL     1      -0.171   9.509  20.419  0.00  0.00    +0.000 C 
ATOM     26  O   UNL     1      -0.818  10.508  20.160  0.00  0.00    +0.000 OA
BRANCH  25  27
ATOM     27  O   UNL     1      -0.388   8.762  21.522  0.00  0.00    +0.000 OA
ATOM     28  H   UNL     1      -0.200   7.812  21.421  0.00  0.00    +0.000 HD
ENDBRANCH  25  27
ENDBRANCH  22  25
ENDBRANCH   7  19
TORSDOF 5
ENDMDL
MODEL 4
REMARK VINA RESULT:      -7.5      3.415      5.327
REMARK  Name = 
REMARK  5 active torsions:
REMARK  status: ('A' for Active; 'I' for Inactive)
REMARK    1  A    between atoms: C_2  and  C_3
REMARK    2  A    between atoms: C_8  and  N_9
REMARK    3  A    between atoms: N_15  and  C_16
REMARK    4  A    between atoms: C_19  and  C_20
REMARK    5  A    between atoms: C_20  and  O_22
REMARK                            x       y       z     vdW  Elec       q    Type
REMARK                         _______ _______ _______ _____ _____    ______ ____
ROOT
ATOM      1  N   UNL     1       1.893   6.327  20.767  0.00  0.00    +0.000 N 
ATOM      2  C   UNL     1       2.327   4.974  20.724  0.00  0.00    +0.000 A 
ATOM      3  C   UNL     1       1.687   4.031  21.498  0.00  0.00    +0.000 A 
ATOM      4  C   UNL     1       2.210   2.759  21.456  0.00  0.00    +0.000 A 
ATOM      5  N   UNL     1       3.313   2.429  20.763  0.00  0.00    +0.000 NA
ATOM      6  C   UNL     1       3.891   3.409  20.056  0.00  0.00    +0.000 A 
ATOM      7  N   UNL     1       5.075   3.099  19.388  0.00  0.00    +0.000 N 
ATOM      8  N   UNL     1       3.412   4.657  20.002  0.00  0.00    +0.000 NA
ATOM      9  H   UNL     1       0.911   6.373  21.024  0.00  0.00    +0.000 HD
ATOM     10  H   UNL     1       5.323   2.137  19.576  0.00  0.00    +0.000 HD
ENDROOT
BRANCH   1  16
ATOM     11  C   UNL     1       1.506   8.518  19.693  0.00  0.00    +0.000 A 
ATOM     12  C   UNL     1       1.680   9.369  18.587  0.00  0.00    +0.000 A 
ATOM     13  C   UNL     1       2.446   8.972  17.493  0.00  0.00    +0.000 A 
ATOM     14  C   UNL     1       3.049   7.722  17.496  0.00  0.00    +0.000 A 
ATOM     15  C   UNL     1       2.882   6.872  18.588  0.00  0.00    +0.000 A 
ATOM     16  C   UNL     1       2.134   7.261  19.716  0.00  0.00    +0.000 A 
BRANCH  11  18
ATOM     17  N   UNL     1       0.006   9.347  21.645  0.00  0.00    +0.000 NA
ATOM     18  C   UNL     1       0.700   8.974  20.791  0.00  0.00    +0.000 C 
ENDBRANCH  11  18
ENDBRANCH   1  16
BRANCH   7  19
ATOM     19  C   UNL     1       5.511   3.586  18.146  0.00  0.00    +0.000 A 
ATOM     20  C   UNL     1       6.772   4.183  18.052  0.00  0.00    +0.000 A 
ATOM     21  C   UNL     1       7.242   4.679  16.831  0.00  0.00    +0.000 A 
ATOM     22  C   UNL     1       6.464   4.563  15.674  0.00  0.00    +0.000 A 
ATOM     23  C   UNL     1       5.217   3.933  15.747  0.00  0.00    +0.000 A 
ATOM     24  C   UNL     1       4.744   3.464  16.978  0.00  0.00    +0.000 A 
BRANCH  22  25
ATOM     25  C   UNL     1       7.030   5.068  14.396  0.00  0.00    +0.000 C 
ATOM     26  O   UNL     1       8.008   5.794  14.349  0.00  0.00    +0.000 OA
BRANCH  25  27
ATOM     27  O   UNL     1       6.356   4.677  13.294  0.00  0.00    +0.000 OA
ATOM     28  H   UNL     1       5.397   4.843  13.317  0.00  0.00    +0.000 HD
ENDBRANCH  25  27
ENDBRANCH  22  25
ENDBRANCH   7  19
TORSDOF 5
ENDMDL
MODEL 5
REMARK VINA RESULT:      -7.3      3.478      5.481
REMARK  Name = 
REMARK  5 active torsions:
REMARK  status: ('A' for Active; 'I' for Inactive)
REMARK    1  A    between atoms: C_2  and  C_3
REMARK    2  A    between atoms: C_8  and  N_9
REMARK    3  A    between atoms: N_15  and  C_16
REMARK    4  A    between atoms: C_19  and  C_20
REMARK    5  A    between atoms: C_20  and  O_22
REMARK                            x       y       z     vdW  Elec       q    Type
REMARK                         _______ _______ _______ _____ _____    ______ ____
ROOT
ATOM      1  N   UNL     1       1.707   6.185  20.885  0.00  0.00    +0.000 N 
ATOM      2  C   UNL     1       2.201   4.856  20.787  0.00  0.00    +0.000 A 
ATOM      3  C   UNL     1       1.565   3.843  21.471  0.00  0.00    +0.000 A 
ATOM      4  C   UNL     1       2.145   2.598  21.383  0.00  0.00    +0.000 A 
ATOM      5  N   UNL     1       3.294   2.355  20.729  0.00  0.00    +0.000 NA
ATOM      6  C   UNL     1       3.862   3.399  20.110  0.00  0.00    +0.000 A 
ATOM      7  N   UNL     1       5.089   3.177  19.487  0.00  0.00    +0.000 N 
ATOM      8  N   UNL     1       3.333   4.626  20.103  0.00  0.00    +0.000 NA
ATOM      9  H   UNL     1       0.712   6.176  21.094  0.00  0.00    +0.000 HD
ATOM     10  H   UNL     1       5.369   2.216  19.631  0.00  0.00    +0.000 HD
ENDROOT
BRANCH   1  16
ATOM     11  C   UNL     1       1.375   8.465  19.993  0.00  0.00    +0.000 A 
ATOM     12  C   UNL     1       1.554   9.393  18.951  0.00  0.00    +0.000 A 
ATOM     13  C   UNL     1       2.281   9.055  17.810  0.00  0.00    +0.000 A 
ATOM     14  C   UNL     1       2.838   7.789  17.702  0.00  0.00    +0.000 A 
ATOM     15  C   UNL     1       2.665   6.863  18.730  0.00  0.00    +0.000 A 
ATOM     16  C   UNL     1       1.957   7.189  19.903  0.00  0.00    +0.000 A 
BRANCH  11  18
ATOM     17  N   UNL     1       0.016   9.231  22.069  0.00  0.00    +0.000 NA
ATOM     18  C   UNL     1       0.611   8.862  21.142  0.00  0.00    +0.000 C 
ENDBRANCH  11  18
ENDBRANCH   1  16
BRANCH   7  19
ATOM     19  C   UNL     1       5.563   3.755  18.298  0.00  0.00    +0.000 A 
ATOM     20  C   UNL     1       4.848   3.556  17.112  0.00  0.00    +0.000 A 
ATOM     21  C   UNL     1       5.288   4.117  15.908  0.00  0.00    +0.000 A 
ATOM     22  C   UNL     1       6.441   4.909  15.875  0.00  0.00    +0.000 A 
ATOM     23  C   UNL     1       7.142   5.146  17.062  0.00  0.00    +0.000 A 
ATOM     24  C   UNL     1       6.710   4.560  18.257  0.00  0.00    +0.000 A 
BRANCH  22  25
ATOM     25  C   UNL     1       6.838   5.514  14.578  0.00  0.00    +0.000 C 
ATOM     26  O   UNL     1       7.979   5.474  14.152  0.00  0.00    +0.000 OA
BRANCH  25  27
ATOM     27  O   UNL     1       5.835   6.137  13.923  0.00  0.00    +0.000 OA
ATOM     28  H   UNL     1       5.857   7.109  13.962  0.00  0.00    +0.000 HD
ENDBRANCH  25  27
ENDBRANCH  22  25
ENDBRANCH   7  19
TORSDOF 5
ENDMDL
MODEL 6
REMARK VINA RESULT:      -7.3     11.458     13.841
REMARK  Name = 
REMARK  5 active torsions:
REMARK  status: ('A' for Active; 'I' for Inactive)
REMARK    1  A    between atoms: C_2  and  C_3
REMARK    2  A    between atoms: C_8  and  N_9
REMARK    3  A    between atoms: N_15  and  C_16
REMARK    4  A    between atoms: C_19  and  C_20
REMARK    5  A    between atoms: C_20  and  O_22
REMARK                            x       y       z     vdW  Elec       q    Type
REMARK                         _______ _______ _______ _____ _____    ______ ____
ROOT
ATOM      1  N   UNL     1      -0.713  10.388  18.889  0.00  0.00    +0.000 N 
ATOM      2  C   UNL     1      -1.869  10.548  18.079  0.00  0.00    +0.000 A 
ATOM      3  C   UNL     1      -1.864  10.071  16.786  0.00  0.00    +0.000 A 
ATOM      4  C   UNL     1      -2.993  10.327  16.043  0.00  0.00    +0.000 A 
ATOM      5  N   UNL     1      -4.035  11.047  16.494  0.00  0.00    +0.000 NA
ATOM      6  C   UNL     1      -3.952  11.496  17.754  0.00  0.00    +0.000 A 
ATOM      7  N   UNL     1      -4.993  12.302  18.211  0.00  0.00    +0.000 N 
ATOM      8  N   UNL     1      -2.913  11.243  18.556  0.00  0.00    +0.000 NA
ATOM      9  H   UNL     1      -0.178   9.580  18.583  0.00  0.00    +0.000 HD
ATOM     10  H   UNL     1      -5.665  12.436  17.467  0.00  0.00    +0.000 HD
ENDROOT
BRANCH   1  16
ATOM     11  C   UNL     1      -0.740  11.603  21.041  0.00  0.00    +0.000 A 
ATOM     12  C   UNL     1      -0.662  11.575  22.445  0.00  0.00    +0.000 A 
ATOM     13  C   UNL     1      -0.562  10.366  23.131  0.00  0.00    +0.000 A 
ATOM     14  C   UNL     1      -0.542   9.174  22.422  0.00  0.00    +0.000 A 
ATOM     15  C   UNL     1      -0.619   9.192  21.030  0.00  0.00    +0.000 A 
ATOM     16  C   UNL     1      -0.747  10.399  20.315  0.00  0.00    +0.000 A 
BRANCH  11  18
ATOM     17  N   UNL     1      -0.906  13.929  19.898  0.00  0.00    +0.000 NA
ATOM     18  C   UNL     1      -0.833  12.876  20.382  0.00  0.00    +0.000 C 
ENDBRANCH  11  18
ENDBRANCH   1  16
BRANCH   7  19
ATOM     19  C   UNL     1      -5.533  12.351  19.506  0.00  0.00    +0.000 A 
ATOM     20  C   UNL     1      -6.714  11.653  19.779  0.00  0.00    +0.000 A 
ATOM     21  C   UNL     1      -7.282  11.675  21.057  0.00  0.00    +0.000 A 
ATOM     22  C   UNL     1      -6.661  12.381  22.094  0.00  0.00    +0.000 A 
ATOM     23  C   UNL     1      -5.460  13.052  21.843  0.00  0.00    +0.000 A 
ATOM     24  C   UNL     1      -4.913  13.044  20.555  0.00  0.00    +0.000 A 
BRANCH  22  25
ATOM     25  C   UNL     1      -7.285  12.336  23.442  0.00  0.00    +0.000 C 
ATOM     26  O   UNL     1      -7.387  13.319  24.156  0.00  0.00    +0.000 OA
BRANCH  25  27
ATOM     27  O   UNL     1      -7.705  11.110  23.821  0.00  0.00    +0.000 OA
ATOM     28  H   UNL     1      -8.104  11.067  24.708  0.00  0.00    +0.000 HD
ENDBRANCH  25  27
ENDBRANCH  22  25
ENDBRANCH   7  19
TORSDOF 5
ENDMDL
MODEL 7
REMARK VINA RESULT:      -7.3      4.293      7.168
REMARK  Name = 
REMARK  5 active torsions:
REMARK  status: ('A' for Active; 'I' for Inactive)
REMARK    1  A    between atoms: C_2  and  C_3
REMARK    2  A    between atoms: C_8  and  N_9
REMARK    3  A    between atoms: N_15  and  C_16
REMARK    4  A    between atoms: C_19  and  C_20
REMARK    5  A    between atoms: C_20  and  O_22
REMARK                            x       y       z     vdW  Elec       q    Type
REMARK                         _______ _______ _______ _____ _____    ______ ____
ROOT
ATOM      1  N   UNL     1       6.233   3.833  18.642  0.00  0.00    +0.000 N 
ATOM      2  C   UNL     1       5.001   3.626  19.320  0.00  0.00    +0.000 A 
ATOM      3  C   UNL     1       4.826   2.489  20.078  0.00  0.00    +0.000 A 
ATOM      4  C   UNL     1       3.583   2.326  20.645  0.00  0.00    +0.000 A 
ATOM      5  N   UNL     1       2.557   3.171  20.446  0.00  0.00    +0.000 NA
ATOM      6  C   UNL     1       2.801   4.240  19.677  0.00  0.00    +0.000 A 
ATOM      7  N   UNL     1       1.729   5.087  19.405  0.00  0.00    +0.000 N 
ATOM      8  N   UNL     1       3.997   4.497  19.135  0.00  0.00    +0.000 NA
ATOM      9  H   UNL     1       6.985   3.349  19.124  0.00  0.00    +0.000 HD
ATOM     10  H   UNL     1       0.894   4.722  19.844  0.00  0.00    +0.000 HD
ENDROOT
BRANCH   1  16
ATOM     11  C   UNL     1       6.514   5.594  16.933  0.00  0.00    +0.000 A 
ATOM     12  C   UNL     1       7.085   6.820  16.542  0.00  0.00    +0.000 A 
ATOM     13  C   UNL     1       7.863   7.561  17.430  0.00  0.00    +0.000 A 
ATOM     14  C   UNL     1       8.074   7.087  18.717  0.00  0.00    +0.000 A 
ATOM     15  C   UNL     1       7.511   5.874  19.113  0.00  0.00    +0.000 A 
ATOM     16  C   UNL     1       6.701   5.120  18.242  0.00  0.00    +0.000 A 
BRANCH  11  18
ATOM     17  N   UNL     1       5.137   4.268  15.175  0.00  0.00    +0.000 NA
ATOM     18  C   UNL     1       5.728   4.867  15.976  0.00  0.00    +0.000 C 
ENDBRANCH  11  18
ENDBRANCH   1  16
BRANCH   7  19
ATOM     19  C   UNL     1       1.755   6.484  19.264  0.00  0.00    +0.000 A 
ATOM     20  C   UNL     1       2.019   7.037  18.007  0.00  0.00    +0.000 A 
ATOM     21  C   UNL     1       2.052   8.424  17.826  0.00  0.00    +0.000 A 
ATOM     22  C   UNL     1       1.794   9.284  18.901  0.00  0.00    +0.000 A 
ATOM     23  C   UNL     1       1.490   8.742  20.153  0.00  0.00    +0.000 A 
ATOM     24  C   UNL     1       1.486   7.353  20.330  0.00  0.00    +0.000 A 
BRANCH  22  25
ATOM     25  C   UNL     1       1.799  10.747  18.642  0.00  0.00    +0.000 C 
ATOM     26  O   UNL     1       1.395  11.562  19.453  0.00  0.00    +0.000 OA
BRANCH  25  27
ATOM     27  O   UNL     1       2.264  11.096  17.423  0.00  0.00    +0.000 OA
ATOM     28  H   UNL     1       1.596  11.107  16.715  0.00  0.00    +0.000 HD
ENDBRANCH  25  27
ENDBRANCH  22  25
ENDBRANCH   7  19
TORSDOF 5
ENDMDL
MODEL 8
REMARK VINA RESULT:      -7.2     11.056     13.338
REMARK  Name = 
REMARK  5 active torsions:
REMARK  status: ('A' for Active; 'I' for Inactive)
REMARK    1  A    between atoms: C_2  and  C_3
REMARK    2  A    between atoms: C_8  and  N_9
REMARK    3  A    between atoms: N_15  and  C_16
REMARK    4  A    between atoms: C_19  and  C_20
REMARK    5  A    between atoms: C_20  and  O_22
REMARK                            x       y       z     vdW  Elec       q    Type
REMARK                         _______ _______ _______ _____ _____    ______ ____
ROOT
ATOM      1  N   UNL     1      -0.366  10.300  19.078  0.00  0.00    +0.000 N 
ATOM      2  C   UNL     1      -1.522  10.462  18.267  0.00  0.00    +0.000 A 
ATOM      3  C   UNL     1      -1.542   9.927  16.998  0.00  0.00    +0.000 A 
ATOM      4  C   UNL     1      -2.667  10.187  16.250  0.00  0.00    +0.000 A 
ATOM      5  N   UNL     1      -3.681  10.961  16.673  0.00  0.00    +0.000 NA
ATOM      6  C   UNL     1      -3.574  11.464  17.911  0.00  0.00    +0.000 A 
ATOM      7  N   UNL     1      -4.584  12.325  18.337  0.00  0.00    +0.000 N 
ATOM      8  N   UNL     1      -2.538  11.213  18.718  0.00  0.00    +0.000 NA
ATOM      9  H   UNL     1       0.140   9.462  18.805  0.00  0.00    +0.000 HD
ATOM     10  H   UNL     1      -5.256  12.448  17.592  0.00  0.00    +0.000 HD
ENDROOT
BRANCH   1  16
ATOM     11  C   UNL     1       0.287   9.437  21.299  0.00  0.00    +0.000 A 
ATOM     12  C   UNL     1       0.152   9.477  22.698  0.00  0.00    +0.000 A 
ATOM     13  C   UNL     1      -0.672  10.420  23.310  0.00  0.00    +0.000 A 
ATOM     14  C   UNL     1      -1.365  11.335  22.529  0.00  0.00    +0.000 A 
ATOM     15  C   UNL     1      -1.235  11.303  21.141  0.00  0.00    +0.000 A 
ATOM     16  C   UNL     1      -0.390  10.377  20.502  0.00  0.00    +0.000 A 
BRANCH  11  18
ATOM     17  N   UNL     1       1.793   7.599  20.251  0.00  0.00    +0.000 NA
ATOM     18  C   UNL     1       1.143   8.440  20.719  0.00  0.00    +0.000 C 
ENDBRANCH  11  18
ENDBRANCH   1  16
BRANCH   7  19
ATOM     19  C   UNL     1      -5.113  12.451  19.632  0.00  0.00    +0.000 A 
ATOM     20  C   UNL     1      -6.323  11.818  19.938  0.00  0.00    +0.000 A 
ATOM     21  C   UNL     1      -6.880  11.918  21.216  0.00  0.00    +0.000 A 
ATOM     22  C   UNL     1      -6.222  12.636  22.222  0.00  0.00    +0.000 A 
ATOM     23  C   UNL     1      -4.993  13.241  21.938  0.00  0.00    +0.000 A 
ATOM     24  C   UNL     1      -4.456  13.157  20.648  0.00  0.00    +0.000 A 
BRANCH  22  25
ATOM     25  C   UNL     1      -6.839  12.674  23.573  0.00  0.00    +0.000 C 
ATOM     26  O   UNL     1      -7.470  11.740  24.036  0.00  0.00    +0.000 OA
BRANCH  25  27
ATOM     27  O   UNL     1      -6.666  13.839  24.233  0.00  0.00    +0.000 OA
ATOM     28  H   UNL     1      -6.894  14.638  23.726  0.00  0.00    +0.000 HD
ENDBRANCH  25  27
ENDBRANCH  22  25
ENDBRANCH   7  19
TORSDOF 5
ENDMDL
MODEL 9
REMARK VINA RESULT:      -7.2      4.392      7.045
REMARK  Name = 
REMARK  5 active torsions:
REMARK  status: ('A' for Active; 'I' for Inactive)
REMARK    1  A    between atoms: C_2  and  C_3
REMARK    2  A    between atoms: C_8  and  N_9
REMARK    3  A    between atoms: N_15  and  C_16
REMARK    4  A    between atoms: C_19  and  C_20
REMARK    5  A    between atoms: C_20  and  O_22
REMARK                            x       y       z     vdW  Elec       q    Type
REMARK                         _______ _______ _______ _____ _____    ______ ____
ROOT
ATOM      1  N   UNL     1       5.307   3.399  18.204  0.00  0.00    +0.000 N 
ATOM      2  C   UNL     1       4.415   3.417  19.311  0.00  0.00    +0.000 A 
ATOM      3  C   UNL     1       4.480   2.412  20.251  0.00  0.00    +0.000 A 
ATOM      4  C   UNL     1       3.538   2.460  21.253  0.00  0.00    +0.000 A 
ATOM      5  N   UNL     1       2.559   3.380  21.312  0.00  0.00    +0.000 NA
ATOM      6  C   UNL     1       2.551   4.308  20.346  0.00  0.00    +0.000 A 
ATOM      7  N   UNL     1       1.502   5.226  20.355  0.00  0.00    +0.000 N 
ATOM      8  N   UNL     1       3.463   4.361  19.370  0.00  0.00    +0.000 NA
ATOM      9  H   UNL     1       6.159   2.901  18.448  0.00  0.00    +0.000 HD
ATOM     10  H   UNL     1       0.877   5.013  21.121  0.00  0.00    +0.000 HD
ENDROOT
BRANCH   1  16
ATOM     11  C   UNL     1       6.476   5.567  18.008  0.00  0.00    +0.000 A 
ATOM     12  C   UNL     1       6.709   6.753  17.289  0.00  0.00    +0.000 A 
ATOM     13  C   UNL     1       6.113   6.965  16.047  0.00  0.00    +0.000 A 
ATOM     14  C   UNL     1       5.281   5.992  15.511  0.00  0.00    +0.000 A 
ATOM     15  C   UNL     1       5.045   4.814  16.216  0.00  0.00    +0.000 A 
ATOM     16  C   UNL     1       5.656   4.565  17.460  0.00  0.00    +0.000 A 
BRANCH  11  18
ATOM     17  N   UNL     1       7.669   5.277  20.297  0.00  0.00    +0.000 NA
ATOM     18  C   UNL     1       7.109   5.403  19.286  0.00  0.00    +0.000 C 
ENDBRANCH  11  18
ENDBRANCH   1  16
BRANCH   7  19
ATOM     19  C   UNL     1       1.546   6.581  19.993  0.00  0.00    +0.000 A 
ATOM     20  C   UNL     1       2.007   6.932  18.719  0.00  0.00    +0.000 A 
ATOM     21  C   UNL     1       2.064   8.272  18.321  0.00  0.00    +0.000 A 
ATOM     22  C   UNL     1       1.636   9.286  19.186  0.00  0.00    +0.000 A 
ATOM     23  C   UNL     1       1.138   8.945  20.448  0.00  0.00    +0.000 A 
ATOM     24  C   UNL     1       1.109   7.603  20.847  0.00  0.00    +0.000 A 
BRANCH  22  25
ATOM     25  C   UNL     1       1.679  10.688  18.696  0.00  0.00    +0.000 C 
ATOM     26  O   UNL     1       1.316  11.635  19.372  0.00  0.00    +0.000 OA
BRANCH  25  27
ATOM     27  O   UNL     1       2.127  10.822  17.429  0.00  0.00    +0.000 OA
ATOM     28  H   UNL     1       2.714  11.583  17.278  0.00  0.00    +0.000 HD
ENDBRANCH  25  27
ENDBRANCH  22  25
ENDBRANCH   7  19
TORSDOF 5
ENDMDL
