MODEL 1
REMARK VINA RESULT:      -7.7      0.000      0.000
REMARK  Name = 
REMARK  9 active torsions:
REMARK  status: ('A' for Active; 'I' for Inactive)
REMARK    1  A    between atoms: C_1  and  C_2
REMARK    2  A    between atoms: C_2  and  C_3
REMARK    3  A    between atoms: C_3  and  C_4
REMARK    4  A    between atoms: C_4  and  C_5
REMARK    5  A    between atoms: C_5  and  C_6
REMARK    6  A    between atoms: N_8  and  C_9
REMARK    7  A    between atoms: C_12  and  C_13
REMARK    8  A    between atoms: C_13  and  C_14
REMARK    9  A    between atoms: C_14  and  N_15
REMARK                            x       y       z     vdW  Elec       q    Type
REMARK                         _______ _______ _______ _____ _____    ______ ____
ROOT
ATOM      1  C   UNL     1       5.324   5.299  16.207  0.00  0.00    +0.000 A 
ATOM      2  C   UNL     1       4.689   6.545  16.328  0.00  0.00    +0.000 A 
ATOM      3  C   UNL     1       4.076   6.903  17.526  0.00  0.00    +0.000 A 
ATOM      4  C   UNL     1       4.073   6.025  18.615  0.00  0.00    +0.000 A 
ATOM      5  C   UNL     1       4.718   4.786  18.495  0.00  0.00    +0.000 A 
ATOM      6  C   UNL     1       5.341   4.423  17.298  0.00  0.00    +0.000 A 
ENDROOT
BRANCH   1   9
ATOM      7  C   UNL     1       6.511   3.976  13.114  0.00  0.00    +0.000 A 
ATOM      8  C   UNL     1       5.568   3.938  14.112  0.00  0.00    +0.000 A 
ATOM      9  N   UNL     1       5.942   4.926  14.992  0.00  0.00    +0.000 N 
ATOM     10  N   UNL     1       7.058   5.540  14.528  0.00  0.00    +0.000 NA
ATOM     11  N   UNL     1       7.411   4.965  13.385  0.00  0.00    +0.000 NA
BRANCH   7  12
ATOM     12  C   UNL     1       6.613   3.136  11.900  0.00  0.00    +0.000 C 
BRANCH  12  13
ATOM     13  C   UNL     1       5.277   2.503  11.517  0.00  0.00    +0.000 C 
BRANCH  13  14
ATOM     14  C   UNL     1       4.216   3.578  11.297  0.00  0.00    +0.000 C 
BRANCH  14  16
ATOM     15  C   UNL     1       2.752   4.438   9.447  0.00  0.00    +0.000 C 
ATOM     16  C   UNL     1       3.265   3.202  10.164  0.00  0.00    +0.000 C 
ENDBRANCH  14  16
ENDBRANCH  13  14
ENDBRANCH  12  13
ENDBRANCH   7  12
ENDBRANCH   1   9
BRANCH   4  17
ATOM     17  C   UNL     1       3.400   6.413  19.910  0.00  0.00    +0.000 C 
BRANCH  17  18
ATOM     18  C   UNL     1       1.869   6.236  19.857  0.00  0.00    +0.000 C 
BRANCH  18  19
ATOM     19  N   UNL     1       1.407   4.875  20.200  0.00  0.00    +0.000 NA
ATOM     20  C   UNL     1       1.350   4.054  18.976  0.00  0.00    +0.000 C 
ATOM     21  C   UNL     1       0.827   2.646  19.263  0.00  0.00    +0.000 C 
ATOM     22  C   UNL     1       1.655   1.957  20.340  0.00  0.00    +0.000 C 
ATOM     23  C   UNL     1       1.757   2.841  21.572  0.00  0.00    +0.000 C 
ATOM     24  C   UNL     1       2.260   4.238  21.214  0.00  0.00    +0.000 C 
ENDBRANCH  18  19
ENDBRANCH  17  18
ENDBRANCH   4  17
TORSDOF 8
ENDMDL
MODEL 2
REMARK VINA RESULT:      -7.7      4.742      8.295
REMARK  Name = 
REMARK  9 active torsions:
REMARK  status: ('A' for Active; 'I' for Inactive)
REMARK    1  A    between atoms: C_1  and  C_2
REMARK    2  A    between atoms: C_2  and  C_3
REMARK    3  A    between atoms: C_3  and  C_4
REMARK    4  A    between atoms: C_4  and  C_5
REMARK    5  A    between atoms: C_5  and  C_6
REMARK    6  A    between atoms: N_8  and  C_9
REMARK    7  A    between atoms: C_12  and  C_13
REMARK    8  A    between atoms: C_13  and  C_14
REMARK    9  A    between atoms: C_14  and  N_15
REMARK                            x       y       z     vdW  Elec       q    Type
REMARK                         _______ _______ _______ _____ _____    ______ ____
ROOT
ATOM      1  C   UNL     1       5.941   5.341  18.269  0.00  0.00    +0.000 A 
ATOM      2  C   UNL     1       5.555   6.308  17.328  0.00  0.00    +0.000 A 
ATOM      3  C   UNL     1       6.384   7.396  17.066  0.00  0.00    +0.000 A 
ATOM      4  C   UNL     1       7.599   7.545  17.742  0.00  0.00    +0.000 A 
ATOM      5  C   UNL     1       7.987   6.571  18.672  0.00  0.00    +0.000 A 
ATOM      6  C   UNL     1       7.163   5.474  18.936  0.00  0.00    +0.000 A 
ENDROOT
BRANCH   1   9
ATOM      7  C   UNL     1       3.526   2.731  18.557  0.00  0.00    +0.000 A 
ATOM      8  C   UNL     1       3.975   3.832  17.870  0.00  0.00    +0.000 A 
ATOM      9  N   UNL     1       5.101   4.238  18.546  0.00  0.00    +0.000 N 
ATOM     10  N   UNL     1       5.323   3.401  19.589  0.00  0.00    +0.000 NA
ATOM     11  N   UNL     1       4.367   2.481  19.602  0.00  0.00    +0.000 NA
BRANCH   7  12
ATOM     12  C   UNL     1       2.346   1.881  18.281  0.00  0.00    +0.000 C 
BRANCH  12  13
ATOM     13  C   UNL     1       1.035   2.565  18.662  0.00  0.00    +0.000 C 
BRANCH  13  14
ATOM     14  C   UNL     1       1.001   2.864  20.159  0.00  0.00    +0.000 C 
BRANCH  14  16
ATOM     15  C   UNL     1       2.163   4.806  21.248  0.00  0.00    +0.000 C 
ATOM     16  C   UNL     1       0.963   4.366  20.429  0.00  0.00    +0.000 C 
ENDBRANCH  14  16
ENDBRANCH  13  14
ENDBRANCH  12  13
ENDBRANCH   7  12
ENDBRANCH   1   9
BRANCH   4  17
ATOM     17  C   UNL     1       8.491   8.731  17.460  0.00  0.00    +0.000 C 
BRANCH  17  18
ATOM     18  C   UNL     1       8.090   9.980  18.270  0.00  0.00    +0.000 C 
BRANCH  18  19
ATOM     19  N   UNL     1       9.229  10.831  18.671  0.00  0.00    +0.000 NA
ATOM     20  C   UNL     1       9.058  12.180  18.100  0.00  0.00    +0.000 C 
ATOM     21  C   UNL     1      10.237  13.092  18.440  0.00  0.00    +0.000 C 
ATOM     22  C   UNL     1      10.463  13.166  19.945  0.00  0.00    +0.000 C 
ATOM     23  C   UNL     1      10.576  11.767  20.529  0.00  0.00    +0.000 C 
ATOM     24  C   UNL     1       9.382  10.901  20.132  0.00  0.00    +0.000 C 
ENDBRANCH  18  19
ENDBRANCH  17  18
ENDBRANCH   4  17
TORSDOF 8
ENDMDL
MODEL 3
REMARK VINA RESULT:      -7.7      4.965      8.524
REMARK  Name = 
REMARK  9 active torsions:
REMARK  status: ('A' for Active; 'I' for Inactive)
REMARK    1  A    between atoms: C_1  and  C_2
REMARK    2  A    between atoms: C_2  and  C_3
REMARK    3  A    between atoms: C_3  and  C_4
REMARK    4  A    between atoms: C_4  and  C_5
REMARK    5  A    between atoms: C_5  and  C_6
REMARK    6  A    between atoms: N_8  and  C_9
REMARK    7  A    between atoms: C_12  and  C_13
REMARK    8  A    between atoms: C_13  and  C_14
REMARK    9  A    between atoms: C_14  and  N_15
REMARK                            x       y       z     vdW  Elec       q    Type
REMARK                         _______ _______ _______ _____ _____    ______ ____
ROOT
ATOM      1  C   UNL     1       6.161   5.713  18.279  0.00  0.00    +0.000 A 
ATOM      2  C   UNL     1       7.381   5.842  18.960  0.00  0.00    +0.000 A 
ATOM      3  C   UNL     1       8.168   6.975  18.774  0.00  0.00    +0.000 A 
ATOM      4  C   UNL     1       7.761   7.989  17.900  0.00  0.00    +0.000 A 
ATOM      5  C   UNL     1       6.536   7.863  17.231  0.00  0.00    +0.000 A 
ATOM      6  C   UNL     1       5.738   6.731  17.419  0.00  0.00    +0.000 A 
ENDROOT
BRANCH   1   9
ATOM      7  C   UNL     1       3.861   2.986  18.311  0.00  0.00    +0.000 A 
ATOM      8  C   UNL     1       4.296   4.135  17.699  0.00  0.00    +0.000 A 
ATOM      9  N   UNL     1       5.360   4.562  18.458  0.00  0.00    +0.000 N 
ATOM     10  N   UNL     1       5.561   3.690  19.478  0.00  0.00    +0.000 NA
ATOM     11  N   UNL     1       4.650   2.728  19.394  0.00  0.00    +0.000 NA
BRANCH   7  12
ATOM     12  C   UNL     1       2.741   2.097  17.929  0.00  0.00    +0.000 C 
BRANCH  12  13
ATOM     13  C   UNL     1       1.390   2.625  18.406  0.00  0.00    +0.000 C 
BRANCH  13  14
ATOM     14  C   UNL     1       1.332   2.654  19.931  0.00  0.00    +0.000 C 
BRANCH  14  16
ATOM     15  C   UNL     1       1.826   5.088  20.304  0.00  0.00    +0.000 C 
ATOM     16  C   UNL     1       0.790   3.986  20.444  0.00  0.00    +0.000 C 
ENDBRANCH  14  16
ENDBRANCH  13  14
ENDBRANCH  12  13
ENDBRANCH   7  12
ENDBRANCH   1   9
BRANCH   4  17
ATOM     17  C   UNL     1       8.621   9.213  17.695  0.00  0.00    +0.000 C 
BRANCH  17  18
ATOM     18  C   UNL     1       8.989   9.907  19.022  0.00  0.00    +0.000 C 
BRANCH  18  19
ATOM     19  N   UNL     1       9.515  11.279  18.860  0.00  0.00    +0.000 NA
ATOM     20  C   UNL     1      10.949  11.218  18.524  0.00  0.00    +0.000 C 
ATOM     21  C   UNL     1      11.560  12.614  18.395  0.00  0.00    +0.000 C 
ATOM     22  C   UNL     1      10.801  13.458  17.380  0.00  0.00    +0.000 C 
ATOM     23  C   UNL     1       9.316  13.461  17.704  0.00  0.00    +0.000 C 
ATOM     24  C   UNL     1       8.774  12.041  17.843  0.00  0.00    +0.000 C 
ENDBRANCH  18  19
ENDBRANCH  17  18
ENDBRANCH   4  17
TORSDOF 8
ENDMDL
MODEL 4
REMARK VINA RESULT:      -7.6      4.972      8.537
REMARK  Name = 
REMARK  9 active torsions:
REMARK  status: ('A' for Active; 'I' for Inactive)
REMARK    1  A    between atoms: C_1  and  C_2
REMARK    2  A    between atoms: C_2  and  C_3
REMARK    3  A    between atoms: C_3  and  C_4
REMARK    4  A    between atoms: C_4  and  C_5
REMARK    5  A    between atoms: C_5  and  C_6
REMARK    6  A    between atoms: N_8  and  C_9
REMARK    7  A    between atoms: C_12  and  C_13
REMARK    8  A    between atoms: C_13  and  C_14
REMARK    9  A    between atoms: C_14  and  N_15
REMARK                            x       y       z     vdW  Elec       q    Type
REMARK                         _______ _______ _______ _____ _____    ______ ____
ROOT
ATOM      1  C   UNL     1       6.042   5.539  18.318  0.00  0.00    +0.000 A 
ATOM      2  C   UNL     1       7.293   5.680  18.938  0.00  0.00    +0.000 A 
ATOM      3  C   UNL     1       8.084   6.794  18.670  0.00  0.00    +0.000 A 
ATOM      4  C   UNL     1       7.651   7.776  17.774  0.00  0.00    +0.000 A 
ATOM      5  C   UNL     1       6.396   7.639  17.165  0.00  0.00    +0.000 A 
ATOM      6  C   UNL     1       5.594   6.527  17.435  0.00  0.00    +0.000 A 
ENDROOT
BRANCH   1   9
ATOM      7  C   UNL     1       3.673   2.890  18.620  0.00  0.00    +0.000 A 
ATOM      8  C   UNL     1       4.046   4.053  17.992  0.00  0.00    +0.000 A 
ATOM      9  N   UNL     1       5.237   4.408  18.580  0.00  0.00    +0.000 N 
ATOM     10  N   UNL     1       5.568   3.482  19.514  0.00  0.00    +0.000 NA
ATOM     11  N   UNL     1       4.619   2.556  19.544  0.00  0.00    +0.000 NA
BRANCH   7  12
ATOM     12  C   UNL     1       2.470   2.057  18.393  0.00  0.00    +0.000 C 
BRANCH  12  13
ATOM     13  C   UNL     1       1.179   2.868  18.460  0.00  0.00    +0.000 C 
BRANCH  13  14
ATOM     14  C   UNL     1       0.550   2.764  19.847  0.00  0.00    +0.000 C 
BRANCH  14  16
ATOM     15  C   UNL     1       1.357   5.037  20.548  0.00  0.00    +0.000 C 
ATOM     16  C   UNL     1       1.346   3.555  20.883  0.00  0.00    +0.000 C 
ENDBRANCH  14  16
ENDBRANCH  13  14
ENDBRANCH  12  13
ENDBRANCH   7  12
ENDBRANCH   1   9
BRANCH   4  17
ATOM     17  C   UNL     1       8.515   8.979  17.480  0.00  0.00    +0.000 C 
BRANCH  17  18
ATOM     18  C   UNL     1       8.698   9.891  18.710  0.00  0.00    +0.000 C 
BRANCH  18  19
ATOM     19  N   UNL     1       9.802  10.865  18.581  0.00  0.00    +0.000 NA
ATOM     20  C   UNL     1       9.301  12.089  17.928  0.00  0.00    +0.000 C 
ATOM     21  C   UNL     1      10.414  13.116  17.720  0.00  0.00    +0.000 C 
ATOM     22  C   UNL     1      11.112  13.448  19.032  0.00  0.00    +0.000 C 
ATOM     23  C   UNL     1      11.568  12.174  19.724  0.00  0.00    +0.000 C 
ATOM     24  C   UNL     1      10.417  11.183  19.878  0.00  0.00    +0.000 C 
ENDBRANCH  18  19
ENDBRANCH  17  18
ENDBRANCH   4  17
TORSDOF 8
ENDMDL
MODEL 5
REMARK VINA RESULT:      -7.6      3.497      5.006
REMARK  Name = 
REMARK  9 active torsions:
REMARK  status: ('A' for Active; 'I' for Inactive)
REMARK    1  A    between atoms: C_1  and  C_2
REMARK    2  A    between atoms: C_2  and  C_3
REMARK    3  A    between atoms: C_3  and  C_4
REMARK    4  A    between atoms: C_4  and  C_5
REMARK    5  A    between atoms: C_5  and  C_6
REMARK    6  A    between atoms: N_8  and  C_9
REMARK    7  A    between atoms: C_12  and  C_13
REMARK    8  A    between atoms: C_13  and  C_14
REMARK    9  A    between atoms: C_14  and  N_15
REMARK                            x       y       z     vdW  Elec       q    Type
REMARK                         _______ _______ _______ _____ _____    ______ ____
ROOT
ATOM      1  C   UNL     1       3.416   6.611  18.147  0.00  0.00    +0.000 A 
ATOM      2  C   UNL     1       2.844   7.886  18.019  0.00  0.00    +0.000 A 
ATOM      3  C   UNL     1       1.986   8.368  19.004  0.00  0.00    +0.000 A 
ATOM      4  C   UNL     1       1.674   7.587  20.122  0.00  0.00    +0.000 A 
ATOM      5  C   UNL     1       2.255   6.319  20.252  0.00  0.00    +0.000 A 
ATOM      6  C   UNL     1       3.122   5.831  19.271  0.00  0.00    +0.000 A 
ENDROOT
BRANCH   1   9
ATOM      7  C   UNL     1       5.516   4.873  15.846  0.00  0.00    +0.000 A 
ATOM      8  C   UNL     1       4.643   4.808  16.904  0.00  0.00    +0.000 A 
ATOM      9  N   UNL     1       4.282   6.112  17.148  0.00  0.00    +0.000 N 
ATOM     10  N   UNL     1       4.906   6.923  16.258  0.00  0.00    +0.000 NA
ATOM     11  N   UNL     1       5.660   6.175  15.463  0.00  0.00    +0.000 NA
BRANCH   7  12
ATOM     12  C   UNL     1       6.224   3.771  15.156  0.00  0.00    +0.000 C 
BRANCH  12  13
ATOM     13  C   UNL     1       6.258   3.959  13.641  0.00  0.00    +0.000 C 
BRANCH  13  14
ATOM     14  C   UNL     1       4.907   3.603  13.025  0.00  0.00    +0.000 C 
BRANCH  14  16
ATOM     15  C   UNL     1       3.711   3.131  10.868  0.00  0.00    +0.000 C 
ATOM     16  C   UNL     1       5.056   3.156  11.573  0.00  0.00    +0.000 C 
ENDBRANCH  14  16
ENDBRANCH  13  14
ENDBRANCH  12  13
ENDBRANCH   7  12
ENDBRANCH   1   9
BRANCH   4  17
ATOM     17  C   UNL     1       0.736   8.110  21.184  0.00  0.00    +0.000 C 
BRANCH  17  18
ATOM     18  C   UNL     1       1.418   9.120  22.129  0.00  0.00    +0.000 C 
BRANCH  18  19
ATOM     19  N   UNL     1       0.624  10.340  22.384  0.00  0.00    +0.000 NA
ATOM     20  C   UNL     1       0.517  11.125  21.140  0.00  0.00    +0.000 C 
ATOM     21  C   UNL     1      -0.252  12.427  21.357  0.00  0.00    +0.000 C 
ATOM     22  C   UNL     1      -1.630  12.164  21.950  0.00  0.00    +0.000 C 
ATOM     23  C   UNL     1      -1.510  11.302  23.197  0.00  0.00    +0.000 C 
ATOM     24  C   UNL     1      -0.711  10.031  22.919  0.00  0.00    +0.000 C 
ENDBRANCH  18  19
ENDBRANCH  17  18
ENDBRANCH   4  17
TORSDOF 8
ENDMDL
MODEL 6
REMARK VINA RESULT:      -7.4      4.913      8.565
REMARK  Name = 
REMARK  9 active torsions:
REMARK  status: ('A' for Active; 'I' for Inactive)
REMARK    1  A    between atoms: C_1  and  C_2
REMARK    2  A    between atoms: C_2  and  C_3
REMARK    3  A    between atoms: C_3  and  C_4
REMARK    4  A    between atoms: C_4  and  C_5
REMARK    5  A    between atoms: C_5  and  C_6
REMARK    6  A    between atoms: N_8  and  C_9
REMARK    7  A    between atoms: C_12  and  C_13
REMARK    8  A    between atoms: C_13  and  C_14
REMARK    9  A    between atoms: C_14  and  N_15
REMARK                            x       y       z     vdW  Elec       q    Type
REMARK                         _______ _______ _______ _____ _____    ______ ____
ROOT
ATOM      1  C   UNL     1       6.004   5.626  18.080  0.00  0.00    +0.000 A 
ATOM      2  C   UNL     1       5.662   6.675  17.213  0.00  0.00    +0.000 A 
ATOM      3  C   UNL     1       6.504   7.777  17.084  0.00  0.00    +0.000 A 
ATOM      4  C   UNL     1       7.690   7.857  17.821  0.00  0.00    +0.000 A 
ATOM      5  C   UNL     1       8.035   6.802  18.677  0.00  0.00    +0.000 A 
ATOM      6  C   UNL     1       7.198   5.691  18.806  0.00  0.00    +0.000 A 
ENDROOT
BRANCH   1   9
ATOM      7  C   UNL     1       3.885   2.896  18.963  0.00  0.00    +0.000 A 
ATOM      8  C   UNL     1       4.618   3.982  19.374  0.00  0.00    +0.000 A 
ATOM      9  N   UNL     1       5.151   4.508  18.221  0.00  0.00    +0.000 N 
ATOM     10  N   UNL     1       4.739   3.771  17.160  0.00  0.00    +0.000 NA
ATOM     11  N   UNL     1       3.968   2.786  17.605  0.00  0.00    +0.000 NA
BRANCH   7  12
ATOM     12  C   UNL     1       3.091   1.948  19.777  0.00  0.00    +0.000 C 
BRANCH  12  13
ATOM     13  C   UNL     1       2.739   2.515  21.151  0.00  0.00    +0.000 C 
BRANCH  13  14
ATOM     14  C   UNL     1       1.248   2.832  21.235  0.00  0.00    +0.000 C 
BRANCH  14  16
ATOM     15  C   UNL     1       1.490   5.282  20.737  0.00  0.00    +0.000 C 
ATOM     16  C   UNL     1       0.865   3.971  20.292  0.00  0.00    +0.000 C 
ENDBRANCH  14  16
ENDBRANCH  13  14
ENDBRANCH  12  13
ENDBRANCH   7  12
ENDBRANCH   1   9
BRANCH   4  17
ATOM     17  C   UNL     1       8.596   9.057  17.684  0.00  0.00    +0.000 C 
BRANCH  17  18
ATOM     18  C   UNL     1       8.914   9.717  19.041  0.00  0.00    +0.000 C 
BRANCH  18  19
ATOM     19  N   UNL     1       9.866  10.844  18.956  0.00  0.00    +0.000 NA
ATOM     20  C   UNL     1       9.342  11.860  18.024  0.00  0.00    +0.000 C 
ATOM     21  C   UNL     1      10.312  13.029  17.856  0.00  0.00    +0.000 C 
ATOM     22  C   UNL     1      10.662  13.655  19.200  0.00  0.00    +0.000 C 
ATOM     23  C   UNL     1      11.143  12.587  20.169  0.00  0.00    +0.000 C 
ATOM     24  C   UNL     1      10.142  11.439  20.272  0.00  0.00    +0.000 C 
ENDBRANCH  18  19
ENDBRANCH  17  18
ENDBRANCH   4  17
TORSDOF 8
ENDMDL
MODEL 7
REMARK VINA RESULT:      -7.2      3.595      5.302
REMARK  Name = 
REMARK  9 active torsions:
REMARK  status: ('A' for Active; 'I' for Inactive)
REMARK    1  A    between atoms: C_1  and  C_2
REMARK    2  A    between atoms: C_2  and  C_3
REMARK    3  A    between atoms: C_3  and  C_4
REMARK    4  A    between atoms: C_4  and  C_5
REMARK    5  A    between atoms: C_5  and  C_6
REMARK    6  A    between atoms: N_8  and  C_9
REMARK    7  A    between atoms: C_12  and  C_13
REMARK    8  A    between atoms: C_13  and  C_14
REMARK    9  A    between atoms: C_14  and  N_15
REMARK                            x       y       z     vdW  Elec       q    Type
REMARK                         _______ _______ _______ _____ _____    ______ ____
ROOT
ATOM      1  C   UNL     1       3.128   5.945  18.612  0.00  0.00    +0.000 A 
ATOM      2  C   UNL     1       2.934   7.292  18.270  0.00  0.00    +0.000 A 
ATOM      3  C   UNL     1       2.208   8.129  19.113  0.00  0.00    +0.000 A 
ATOM      4  C   UNL     1       1.655   7.638  20.300  0.00  0.00    +0.000 A 
ATOM      5  C   UNL     1       1.860   6.295  20.644  0.00  0.00    +0.000 A 
ATOM      6  C   UNL     1       2.593   5.451  19.806  0.00  0.00    +0.000 A 
ENDROOT
BRANCH   1   9
ATOM      7  C   UNL     1       5.139   4.231  16.215  0.00  0.00    +0.000 A 
ATOM      8  C   UNL     1       4.719   5.428  16.740  0.00  0.00    +0.000 A 
ATOM      9  N   UNL     1       3.858   5.088  17.757  0.00  0.00    +0.000 N 
ATOM     10  N   UNL     1       3.779   3.737  17.843  0.00  0.00    +0.000 NA
ATOM     11  N   UNL     1       4.556   3.209  16.906  0.00  0.00    +0.000 NA
BRANCH   7  12
ATOM     12  C   UNL     1       6.076   3.985  15.096  0.00  0.00    +0.000 C 
BRANCH  12  13
ATOM     13  C   UNL     1       5.380   4.018  13.737  0.00  0.00    +0.000 C 
BRANCH  13  14
ATOM     14  C   UNL     1       6.320   3.525  12.640  0.00  0.00    +0.000 C 
BRANCH  14  16
ATOM     15  C   UNL     1       4.221   3.114  11.324  0.00  0.00    +0.000 C 
ATOM     16  C   UNL     1       5.604   2.589  11.669  0.00  0.00    +0.000 C 
ENDBRANCH  14  16
ENDBRANCH  13  14
ENDBRANCH  12  13
ENDBRANCH   7  12
ENDBRANCH   1   9
BRANCH   4  17
ATOM     17  C   UNL     1       0.862   8.547  21.209  0.00  0.00    +0.000 C 
BRANCH  17  18
ATOM     18  C   UNL     1       0.768   9.988  20.668  0.00  0.00    +0.000 C 
BRANCH  18  19
ATOM     19  N   UNL     1      -0.574  10.361  20.173  0.00  0.00    +0.000 NA
ATOM     20  C   UNL     1      -0.846  11.771  20.510  0.00  0.00    +0.000 C 
ATOM     21  C   UNL     1      -2.246  12.198  20.067  0.00  0.00    +0.000 C 
ATOM     22  C   UNL     1      -2.455  11.946  18.579  0.00  0.00    +0.000 C 
ATOM     23  C   UNL     1      -2.112  10.506  18.235  0.00  0.00    +0.000 C 
ATOM     24  C   UNL     1      -0.714  10.136  18.726  0.00  0.00    +0.000 C 
ENDBRANCH  18  19
ENDBRANCH  17  18
ENDBRANCH   4  17
TORSDOF 8
ENDMDL
MODEL 8
REMARK VINA RESULT:      -7.2      5.034      8.680
REMARK  Name = 
REMARK  9 active torsions:
REMARK  status: ('A' for Active; 'I' for Inactive)
REMARK    1  A    between atoms: C_1  and  C_2
REMARK    2  A    between atoms: C_2  and  C_3
REMARK    3  A    between atoms: C_3  and  C_4
REMARK    4  A    between atoms: C_4  and  C_5
REMARK    5  A    between atoms: C_5  and  C_6
REMARK    6  A    between atoms: N_8  and  C_9
REMARK    7  A    between atoms: C_12  and  C_13
REMARK    8  A    between atoms: C_13  and  C_14
REMARK    9  A    between atoms: C_14  and  N_15
REMARK                            x       y       z     vdW  Elec       q    Type
REMARK                         _______ _______ _______ _____ _____    ______ ____
ROOT
ATOM      1  C   UNL     1       6.211   5.910  18.047  0.00  0.00    +0.000 A 
ATOM      2  C   UNL     1       7.402   5.970  18.787  0.00  0.00    +0.000 A 
ATOM      3  C   UNL     1       8.215   7.098  18.711  0.00  0.00    +0.000 A 
ATOM      4  C   UNL     1       7.864   8.175  17.889  0.00  0.00    +0.000 A 
ATOM      5  C   UNL     1       6.669   8.115  17.160  0.00  0.00    +0.000 A 
ATOM      6  C   UNL     1       5.845   6.990  17.237  0.00  0.00    +0.000 A 
ENDROOT
BRANCH   1   9
ATOM      7  C   UNL     1       4.205   3.044  18.746  0.00  0.00    +0.000 A 
ATOM      8  C   UNL     1       4.961   4.083  19.231  0.00  0.00    +0.000 A 
ATOM      9  N   UNL     1       5.385   4.765  18.114  0.00  0.00    +0.000 N 
ATOM     10  N   UNL     1       4.888   4.162  17.006  0.00  0.00    +0.000 NA
ATOM     11  N   UNL     1       4.169   3.112  17.384  0.00  0.00    +0.000 NA
BRANCH   7  12
ATOM     12  C   UNL     1       3.496   1.983  19.496  0.00  0.00    +0.000 C 
BRANCH  12  13
ATOM     13  C   UNL     1       2.785   2.521  20.735  0.00  0.00    +0.000 C 
BRANCH  13  14
ATOM     14  C   UNL     1       1.286   2.658  20.477  0.00  0.00    +0.000 C 
BRANCH  14  16
ATOM     15  C   UNL     1       1.870   5.074  20.841  0.00  0.00    +0.000 C 
ATOM     16  C   UNL     1       0.899   4.106  20.187  0.00  0.00    +0.000 C 
ENDBRANCH  14  16
ENDBRANCH  13  14
ENDBRANCH  12  13
ENDBRANCH   7  12
ENDBRANCH   1   9
BRANCH   4  17
ATOM     17  C   UNL     1       8.753   9.392  17.802  0.00  0.00    +0.000 C 
BRANCH  17  18
ATOM     18  C   UNL     1       9.120   9.956  19.190  0.00  0.00    +0.000 C 
BRANCH  18  19
ATOM     19  N   UNL     1       9.484  11.388  19.182  0.00  0.00    +0.000 NA
ATOM     20  C   UNL     1      10.926  11.529  19.460  0.00  0.00    +0.000 C 
ATOM     21  C   UNL     1      11.351  12.997  19.516  0.00  0.00    +0.000 C 
ATOM     22  C   UNL     1      10.971  13.732  18.237  0.00  0.00    +0.000 C 
ATOM     23  C   UNL     1       9.497  13.527  17.930  0.00  0.00    +0.000 C 
ATOM     24  C   UNL     1       9.134  12.044  17.913  0.00  0.00    +0.000 C 
ENDBRANCH  18  19
ENDBRANCH  17  18
ENDBRANCH   4  17
TORSDOF 8
ENDMDL
MODEL 9
REMARK VINA RESULT:      -7.2      4.064      8.619
REMARK  Name = 
REMARK  9 active torsions:
REMARK  status: ('A' for Active; 'I' for Inactive)
REMARK    1  A    between atoms: C_1  and  C_2
REMARK    2  A    between atoms: C_2  and  C_3
REMARK    3  A    between atoms: C_3  and  C_4
REMARK    4  A    between atoms: C_4  and  C_5
REMARK    5  A    between atoms: C_5  and  C_6
REMARK    6  A    between atoms: N_8  and  C_9
REMARK    7  A    between atoms: C_12  and  C_13
REMARK    8  A    between atoms: C_13  and  C_14
REMARK    9  A    between atoms: C_14  and  N_15
REMARK                            x       y       z     vdW  Elec       q    Type
REMARK                         _______ _______ _______ _____ _____    ______ ____
ROOT
ATOM      1  C   UNL     1       1.804   7.672  19.988  0.00  0.00    +0.000 A 
ATOM      2  C   UNL     1       1.767   6.495  20.750  0.00  0.00    +0.000 A 
ATOM      3  C   UNL     1       2.302   5.315  20.239  0.00  0.00    +0.000 A 
ATOM      4  C   UNL     1       2.868   5.285  18.960  0.00  0.00    +0.000 A 
ATOM      5  C   UNL     1       2.914   6.466  18.206  0.00  0.00    +0.000 A 
ATOM      6  C   UNL     1       2.385   7.654  18.716  0.00  0.00    +0.000 A 
ENDROOT
BRANCH   1   9
ATOM      7  C   UNL     1       0.349  10.836  20.764  0.00  0.00    +0.000 A 
ATOM      8  C   UNL     1       0.701   9.919  19.803  0.00  0.00    +0.000 A 
ATOM      9  N   UNL     1       1.257   8.872  20.498  0.00  0.00    +0.000 N 
ATOM     10  N   UNL     1       1.224   9.147  21.825  0.00  0.00    +0.000 NA
ATOM     11  N   UNL     1       0.673  10.342  21.994  0.00  0.00    +0.000 NA
BRANCH   7  12
ATOM     12  C   UNL     1      -0.292  12.159  20.595  0.00  0.00    +0.000 C 
BRANCH  12  13
ATOM     13  C   UNL     1      -0.801  12.382  19.172  0.00  0.00    +0.000 C 
BRANCH  13  14
ATOM     14  C   UNL     1      -2.248  11.913  19.040  0.00  0.00    +0.000 C 
BRANCH  14  16
ATOM     15  C   UNL     1      -3.851  10.496  17.725  0.00  0.00    +0.000 C 
ATOM     16  C   UNL     1      -2.391  10.834  17.970  0.00  0.00    +0.000 C 
ENDBRANCH  14  16
ENDBRANCH  13  14
ENDBRANCH  12  13
ENDBRANCH   7  12
ENDBRANCH   1   9
BRANCH   4  17
ATOM     17  C   UNL     1       3.440   4.002  18.406  0.00  0.00    +0.000 C 
BRANCH  17  18
ATOM     18  C   UNL     1       4.736   3.574  19.122  0.00  0.00    +0.000 C 
BRANCH  18  19
ATOM     19  N   UNL     1       5.960   4.203  18.583  0.00  0.00    +0.000 NA
ATOM     20  C   UNL     1       5.769   4.498  17.151  0.00  0.00    +0.000 C 
ATOM     21  C   UNL     1       7.025   5.104  16.526  0.00  0.00    +0.000 C 
ATOM     22  C   UNL     1       7.473   6.350  17.280  0.00  0.00    +0.000 C 
ATOM     23  C   UNL     1       7.605   6.047  18.764  0.00  0.00    +0.000 C 
ATOM     24  C   UNL     1       6.328   5.421  19.320  0.00  0.00    +0.000 C 
ENDBRANCH  18  19
ENDBRANCH  17  18
ENDBRANCH   4  17
TORSDOF 8
ENDMDL
