MODEL 1
REMARK VINA RESULT:      -8.3      0.000      0.000
REMARK  Name = 
REMARK  7 active torsions:
REMARK  status: ('A' for Active; 'I' for Inactive)
REMARK    1  A    between atoms: N_1  and  C_2
REMARK    2  A    between atoms: C_8  and  C_9
REMARK    3  A    between atoms: C_9  and  N_10
REMARK    4  A    between atoms: N_10  and  S_11
REMARK    5  A    between atoms: S_11  and  C_14
REMARK    6  A    between atoms: C_20  and  C_21
REMARK    7  A    between atoms: C_21  and  C_22
REMARK                            x       y       z     vdW  Elec       q    Type
REMARK                         _______ _______ _______ _____ _____    ______ ____
ROOT
ATOM      1  C   UNL     1       6.357   4.795  17.878  0.00  0.00    +0.000 C 
ATOM      2  C   UNL     1       5.577   3.674  18.561  0.00  0.00    +0.000 C 
ATOM      3  C   UNL     1       4.556   4.300  19.507  0.00  0.00    +0.000 C 
ATOM      4  C   UNL     1       3.913   5.577  19.002  0.00  0.00    +0.000 A 
ATOM      5  C   UNL     1       2.874   6.134  19.759  0.00  0.00    +0.000 A 
ATOM      6  C   UNL     1       2.255   7.320  19.351  0.00  0.00    +0.000 A 
ATOM      7  C   UNL     1       2.663   7.971  18.180  0.00  0.00    +0.000 A 
ATOM      8  C   UNL     1       3.691   7.405  17.410  0.00  0.00    +0.000 A 
ATOM      9  C   UNL     1       4.326   6.221  17.815  0.00  0.00    +0.000 A 
ATOM     10  C   UNL     1       5.409   5.600  16.939  0.00  0.00    +0.000 C 
ENDROOT
BRANCH   1  11
ATOM     11  N   UNL     1       7.612   4.328  17.305  0.00  0.00    +0.000 NA
ATOM     12  H   UNL     1       8.106   5.056  16.797  0.00  0.00    +0.000 HD
ATOM     13  H   UNL     1       8.226   3.912  17.994  0.00  0.00    +0.000 HD
ENDBRANCH   1  11
BRANCH   7  14
ATOM     14  C   UNL     1       2.014   9.248  17.714  0.00  0.00    +0.000 C 
BRANCH  14  15
ATOM     15  N   UNL     1       0.729   9.524  18.367  0.00  0.00    +0.000 NA
ATOM     16  H   UNL     1       0.464   8.763  19.028  0.00  0.00    +0.000 HD
BRANCH  15  17
ATOM     17  S   UNL     1       0.644  11.002  19.201  0.00  0.00    +0.000 S 
ATOM     18  O   UNL     1       1.834  11.718  18.831  0.00  0.00    +0.000 OA
ATOM     19  O   UNL     1      -0.662  11.555  18.876  0.00  0.00    +0.000 OA
BRANCH  17  20
ATOM     20  C   UNL     1       0.685  10.577  20.941  0.00  0.00    +0.000 C 
ATOM     21  C   UNL     1      -0.341  11.317  21.829  0.00  0.00    +0.000 C 
ATOM     22  C   UNL     1      -0.484  10.002  22.622  0.00  0.00    +0.000 C 
ATOM     23  C   UNL     1      -0.028   9.268  21.342  0.00  0.00    +0.000 C 
ENDBRANCH  17  20
ENDBRANCH  15  17
ENDBRANCH  14  15
ENDBRANCH   7  14
BRANCH  10  24
ATOM     24  C   UNL     1       4.802   4.839  15.716  0.00  0.00    +0.000 C 
BRANCH  24  25
ATOM     25  C   UNL     1       5.684   4.569  14.508  0.00  0.00    +0.000 A 
ATOM     26  C   UNL     1       6.889   5.255  14.352  0.00  0.00    +0.000 A 
ATOM     27  C   UNL     1       7.653   5.092  13.191  0.00  0.00    +0.000 A 
ATOM     28  C   UNL     1       7.246   4.187  12.208  0.00  0.00    +0.000 A 
ATOM     29  C   UNL     1       6.116   3.430  12.408  0.00  0.00    +0.000 A 
ATOM     30  F   UNL     1       5.754   2.500  11.508  0.00  0.00    +0.000 F 
ATOM     31  C   UNL     1       5.321   3.630  13.526  0.00  0.00    +0.000 A 
ENDBRANCH  24  25
ENDBRANCH  10  24
TORSDOF 7
ENDMDL
MODEL 2
REMARK VINA RESULT:      -8.2      0.926      1.296
REMARK  Name = 
REMARK  7 active torsions:
REMARK  status: ('A' for Active; 'I' for Inactive)
REMARK    1  A    between atoms: N_1  and  C_2
REMARK    2  A    between atoms: C_8  and  C_9
REMARK    3  A    between atoms: C_9  and  N_10
REMARK    4  A    between atoms: N_10  and  S_11
REMARK    5  A    between atoms: S_11  and  C_14
REMARK    6  A    between atoms: C_20  and  C_21
REMARK    7  A    between atoms: C_21  and  C_22
REMARK                            x       y       z     vdW  Elec       q    Type
REMARK                         _______ _______ _______ _____ _____    ______ ____
ROOT
ATOM      1  C   UNL     1       6.385   4.790  17.903  0.00  0.00    +0.000 C 
ATOM      2  C   UNL     1       5.622   3.676  18.617  0.00  0.00    +0.000 C 
ATOM      3  C   UNL     1       4.598   4.313  19.551  0.00  0.00    +0.000 C 
ATOM      4  C   UNL     1       3.936   5.570  19.018  0.00  0.00    +0.000 A 
ATOM      5  C   UNL     1       2.894   6.132  19.766  0.00  0.00    +0.000 A 
ATOM      6  C   UNL     1       2.258   7.300  19.332  0.00  0.00    +0.000 A 
ATOM      7  C   UNL     1       2.654   7.928  18.144  0.00  0.00    +0.000 A 
ATOM      8  C   UNL     1       3.685   7.355  17.383  0.00  0.00    +0.000 A 
ATOM      9  C   UNL     1       4.337   6.189  17.814  0.00  0.00    +0.000 A 
ATOM     10  C   UNL     1       5.424   5.560  16.949  0.00  0.00    +0.000 C 
ENDROOT
BRANCH   1  11
ATOM     11  N   UNL     1       7.644   4.324  17.336  0.00  0.00    +0.000 NA
ATOM     12  H   UNL     1       8.301   5.081  17.167  0.00  0.00    +0.000 HD
ATOM     13  H   UNL     1       8.083   3.606  17.897  0.00  0.00    +0.000 HD
ENDBRANCH   1  11
BRANCH   7  14
ATOM     14  C   UNL     1       1.987   9.184  17.650  0.00  0.00    +0.000 C 
BRANCH  14  15
ATOM     15  N   UNL     1       0.807   9.568  18.433  0.00  0.00    +0.000 NA
ATOM     16  H   UNL     1       0.682   8.952  19.264  0.00  0.00    +0.000 HD
BRANCH  15  17
ATOM     17  S   UNL     1       0.784  11.182  18.963  0.00  0.00    +0.000 S 
ATOM     18  O   UNL     1       2.022  11.752  18.506  0.00  0.00    +0.000 OA
ATOM     19  O   UNL     1      -0.481  11.726  18.493  0.00  0.00    +0.000 OA
BRANCH  17  20
ATOM     20  C   UNL     1       0.758  11.101  20.753  0.00  0.00    +0.000 C 
ATOM     21  C   UNL     1      -0.575  11.517  21.417  0.00  0.00    +0.000 C 
ATOM     22  C   UNL     1      -0.318  10.402  22.450  0.00  0.00    +0.000 C 
ATOM     23  C   UNL     1       0.539   9.703  21.371  0.00  0.00    +0.000 C 
ENDBRANCH  17  20
ENDBRANCH  15  17
ENDBRANCH  14  15
ENDBRANCH   7  14
BRANCH  10  24
ATOM     24  C   UNL     1       4.821   4.763  15.748  0.00  0.00    +0.000 C 
BRANCH  24  25
ATOM     25  C   UNL     1       5.655   4.590  14.489  0.00  0.00    +0.000 A 
ATOM     26  C   UNL     1       5.228   3.729  13.477  0.00  0.00    +0.000 A 
ATOM     27  C   UNL     1       6.041   3.481  12.365  0.00  0.00    +0.000 A 
ATOM     28  C   UNL     1       7.261   4.149  12.229  0.00  0.00    +0.000 A 
ATOM     29  C   UNL     1       7.635   5.078  13.170  0.00  0.00    +0.000 A 
ATOM     30  F   UNL     1       8.767   5.785  13.014  0.00  0.00    +0.000 F 
ATOM     31  C   UNL     1       6.865   5.284  14.305  0.00  0.00    +0.000 A 
ENDBRANCH  24  25
ENDBRANCH  10  24
TORSDOF 7
ENDMDL
MODEL 3
REMARK VINA RESULT:      -8.1      1.658      1.799
REMARK  Name = 
REMARK  7 active torsions:
REMARK  status: ('A' for Active; 'I' for Inactive)
REMARK    1  A    between atoms: N_1  and  C_2
REMARK    2  A    between atoms: C_8  and  C_9
REMARK    3  A    between atoms: C_9  and  N_10
REMARK    4  A    between atoms: N_10  and  S_11
REMARK    5  A    between atoms: S_11  and  C_14
REMARK    6  A    between atoms: C_20  and  C_21
REMARK    7  A    between atoms: C_21  and  C_22
REMARK                            x       y       z     vdW  Elec       q    Type
REMARK                         _______ _______ _______ _____ _____    ______ ____
ROOT
ATOM      1  C   UNL     1       6.495   4.676  17.793  0.00  0.00    +0.000 C 
ATOM      2  C   UNL     1       5.696   3.559  18.461  0.00  0.00    +0.000 C 
ATOM      3  C   UNL     1       4.677   4.190  19.405  0.00  0.00    +0.000 C 
ATOM      4  C   UNL     1       4.053   5.479  18.906  0.00  0.00    +0.000 A 
ATOM      5  C   UNL     1       3.015   6.042  19.661  0.00  0.00    +0.000 A 
ATOM      6  C   UNL     1       2.414   7.239  19.259  0.00  0.00    +0.000 A 
ATOM      7  C   UNL     1       2.838   7.895  18.097  0.00  0.00    +0.000 A 
ATOM      8  C   UNL     1       3.864   7.323  17.328  0.00  0.00    +0.000 A 
ATOM      9  C   UNL     1       4.482   6.128  17.728  0.00  0.00    +0.000 A 
ATOM     10  C   UNL     1       5.564   5.501  16.854  0.00  0.00    +0.000 C 
ENDROOT
BRANCH   1  11
ATOM     11  N   UNL     1       7.749   4.199  17.224  0.00  0.00    +0.000 NA
ATOM     12  H   UNL     1       8.396   3.861  17.931  0.00  0.00    +0.000 HD
ATOM     13  H   UNL     1       7.612   3.490  16.516  0.00  0.00    +0.000 HD
ENDBRANCH   1  11
BRANCH   7  14
ATOM     14  C   UNL     1       2.207   9.184  17.637  0.00  0.00    +0.000 C 
BRANCH  14  15
ATOM     15  N   UNL     1       0.779   9.283  17.956  0.00  0.00    +0.000 NA
ATOM     16  H   UNL     1       0.404   8.381  18.320  0.00  0.00    +0.000 HD
BRANCH  15  17
ATOM     17  S   UNL     1       0.367  10.509  19.058  0.00  0.00    +0.000 S 
ATOM     18  O   UNL     1       0.600   9.948  20.360  0.00  0.00    +0.000 OA
ATOM     19  O   UNL     1       1.118  11.681  18.631  0.00  0.00    +0.000 OA
BRANCH  17  20
ATOM     20  C   UNL     1      -1.381  10.812  18.811  0.00  0.00    +0.000 C 
ATOM     21  C   UNL     1      -1.728  12.089  18.011  0.00  0.00    +0.000 C 
ATOM     22  C   UNL     1      -2.883  11.285  17.381  0.00  0.00    +0.000 C 
ATOM     23  C   UNL     1      -2.061  10.012  17.678  0.00  0.00    +0.000 C 
ENDBRANCH  17  20
ENDBRANCH  15  17
ENDBRANCH  14  15
ENDBRANCH   7  14
BRANCH  10  24
ATOM     24  C   UNL     1       4.956   4.758  15.621  0.00  0.00    +0.000 C 
BRANCH  24  25
ATOM     25  C   UNL     1       5.830   4.528  14.399  0.00  0.00    +0.000 A 
ATOM     26  C   UNL     1       6.991   5.280  14.215  0.00  0.00    +0.000 A 
ATOM     27  C   UNL     1       7.742   5.151  13.041  0.00  0.00    +0.000 A 
ATOM     28  C   UNL     1       7.369   4.216  12.072  0.00  0.00    +0.000 A 
ATOM     29  C   UNL     1       6.288   3.398  12.299  0.00  0.00    +0.000 A 
ATOM     30  F   UNL     1       5.963   2.441  11.413  0.00  0.00    +0.000 F 
ATOM     31  C   UNL     1       5.503   3.562  13.430  0.00  0.00    +0.000 A 
ENDBRANCH  24  25
ENDBRANCH  10  24
TORSDOF 7
ENDMDL
MODEL 4
REMARK VINA RESULT:      -8.1      2.314      3.151
REMARK  Name = 
REMARK  7 active torsions:
REMARK  status: ('A' for Active; 'I' for Inactive)
REMARK    1  A    between atoms: N_1  and  C_2
REMARK    2  A    between atoms: C_8  and  C_9
REMARK    3  A    between atoms: C_9  and  N_10
REMARK    4  A    between atoms: N_10  and  S_11
REMARK    5  A    between atoms: S_11  and  C_14
REMARK    6  A    between atoms: C_20  and  C_21
REMARK    7  A    between atoms: C_21  and  C_22
REMARK                            x       y       z     vdW  Elec       q    Type
REMARK                         _______ _______ _______ _____ _____    ______ ____
ROOT
ATOM      1  C   UNL     1       4.284   2.091  19.480  0.00  0.00    +0.000 C 
ATOM      2  C   UNL     1       3.932   1.679  18.053  0.00  0.00    +0.000 C 
ATOM      3  C   UNL     1       2.665   2.418  17.633  0.00  0.00    +0.000 C 
ATOM      4  C   UNL     1       2.555   3.843  18.142  0.00  0.00    +0.000 A 
ATOM      5  C   UNL     1       1.483   4.622  17.688  0.00  0.00    +0.000 A 
ATOM      6  C   UNL     1       1.321   5.937  18.137  0.00  0.00    +0.000 A 
ATOM      7  C   UNL     1       2.227   6.496  19.047  0.00  0.00    +0.000 A 
ATOM      8  C   UNL     1       3.313   5.724  19.488  0.00  0.00    +0.000 A 
ATOM      9  C   UNL     1       3.479   4.400  19.053  0.00  0.00    +0.000 A 
ATOM     10  C   UNL     1       4.691   3.595  19.510  0.00  0.00    +0.000 C 
ENDROOT
BRANCH   1  11
ATOM     11  N   UNL     1       5.192   1.149  20.122  0.00  0.00    +0.000 NA
ATOM     12  H   UNL     1       5.842   1.603  20.758  0.00  0.00    +0.000 HD
ATOM     13  H   UNL     1       4.705   0.403  20.602  0.00  0.00    +0.000 HD
ENDBRANCH   1  11
BRANCH   7  14
ATOM     14  C   UNL     1       2.080   7.910  19.545  0.00  0.00    +0.000 C 
BRANCH  14  15
ATOM     15  N   UNL     1       1.768   7.997  20.976  0.00  0.00    +0.000 NA
ATOM     16  H   UNL     1       2.628   8.139  21.548  0.00  0.00    +0.000 HD
BRANCH  15  17
ATOM     17  S   UNL     1       0.648   9.202  21.400  0.00  0.00    +0.000 S 
ATOM     18  O   UNL     1      -0.582   8.506  21.660  0.00  0.00    +0.000 OA
ATOM     19  O   UNL     1       1.285   9.966  22.462  0.00  0.00    +0.000 OA
BRANCH  17  20
ATOM     20  C   UNL     1       0.484  10.240  19.949  0.00  0.00    +0.000 C 
ATOM     21  C   UNL     1      -0.884  10.166  19.231  0.00  0.00    +0.000 C 
ATOM     22  C   UNL     1      -0.736  11.677  18.963  0.00  0.00    +0.000 C 
ATOM     23  C   UNL     1       0.179  11.732  20.206  0.00  0.00    +0.000 C 
ENDBRANCH  17  20
ENDBRANCH  15  17
ENDBRANCH  14  15
ENDBRANCH   7  14
BRANCH  10  24
ATOM     24  C   UNL     1       5.984   3.999  18.731  0.00  0.00    +0.000 C 
BRANCH  24  25
ATOM     25  C   UNL     1       5.848   4.581  17.333  0.00  0.00    +0.000 A 
ATOM     26  C   UNL     1       5.580   5.939  17.162  0.00  0.00    +0.000 A 
ATOM     27  C   UNL     1       5.346   6.462  15.885  0.00  0.00    +0.000 A 
ATOM     28  C   UNL     1       5.447   5.635  14.763  0.00  0.00    +0.000 A 
ATOM     29  C   UNL     1       5.817   4.321  14.919  0.00  0.00    +0.000 A 
ATOM     30  F   UNL     1       5.993   3.533  13.845  0.00  0.00    +0.000 F 
ATOM     31  C   UNL     1       5.989   3.781  16.185  0.00  0.00    +0.000 A 
ENDBRANCH  24  25
ENDBRANCH  10  24
TORSDOF 7
ENDMDL
MODEL 5
REMARK VINA RESULT:      -8.0      1.714      2.219
REMARK  Name = 
REMARK  7 active torsions:
REMARK  status: ('A' for Active; 'I' for Inactive)
REMARK    1  A    between atoms: N_1  and  C_2
REMARK    2  A    between atoms: C_8  and  C_9
REMARK    3  A    between atoms: C_9  and  N_10
REMARK    4  A    between atoms: N_10  and  S_11
REMARK    5  A    between atoms: S_11  and  C_14
REMARK    6  A    between atoms: C_20  and  C_21
REMARK    7  A    between atoms: C_21  and  C_22
REMARK                            x       y       z     vdW  Elec       q    Type
REMARK                         _______ _______ _______ _____ _____    ______ ____
ROOT
ATOM      1  C   UNL     1       6.407   4.765  17.844  0.00  0.00    +0.000 C 
ATOM      2  C   UNL     1       5.662   3.643  18.564  0.00  0.00    +0.000 C 
ATOM      3  C   UNL     1       4.647   4.268  19.516  0.00  0.00    +0.000 C 
ATOM      4  C   UNL     1       3.969   5.522  18.997  0.00  0.00    +0.000 A 
ATOM      5  C   UNL     1       2.933   6.074  19.763  0.00  0.00    +0.000 A 
ATOM      6  C   UNL     1       2.283   7.238  19.343  0.00  0.00    +0.000 A 
ATOM      7  C   UNL     1       2.656   7.874  18.152  0.00  0.00    +0.000 A 
ATOM      8  C   UNL     1       3.680   7.312  17.374  0.00  0.00    +0.000 A 
ATOM      9  C   UNL     1       4.347   6.149  17.790  0.00  0.00    +0.000 A 
ATOM     10  C   UNL     1       5.426   5.532  16.907  0.00  0.00    +0.000 C 
ENDROOT
BRANCH   1  11
ATOM     11  N   UNL     1       7.661   4.311  17.256  0.00  0.00    +0.000 NA
ATOM     12  H   UNL     1       8.139   5.044  16.741  0.00  0.00    +0.000 HD
ATOM     13  H   UNL     1       8.288   3.905  17.939  0.00  0.00    +0.000 HD
ENDBRANCH   1  11
BRANCH   7  14
ATOM     14  C   UNL     1       1.973   9.128  17.673  0.00  0.00    +0.000 C 
BRANCH  14  15
ATOM     15  N   UNL     1       1.607  10.046  18.757  0.00  0.00    +0.000 NA
ATOM     16  H   UNL     1       2.045  10.983  18.630  0.00  0.00    +0.000 HD
BRANCH  15  17
ATOM     17  S   UNL     1      -0.062  10.270  18.983  0.00  0.00    +0.000 S 
ATOM     18  O   UNL     1      -0.668   9.915  17.729  0.00  0.00    +0.000 OA
ATOM     19  O   UNL     1      -0.394   9.520  20.185  0.00  0.00    +0.000 OA
BRANCH  17  20
ATOM     20  C   UNL     1      -0.274  12.020  19.306  0.00  0.00    +0.000 C 
ATOM     21  C   UNL     1       0.950  12.908  18.984  0.00  0.00    +0.000 C 
ATOM     22  C   UNL     1      -0.052  13.979  18.507  0.00  0.00    +0.000 C 
ATOM     23  C   UNL     1      -1.042  12.825  18.235  0.00  0.00    +0.000 C 
ENDBRANCH  17  20
ENDBRANCH  15  17
ENDBRANCH  14  15
ENDBRANCH   7  14
BRANCH  10  24
ATOM     24  C   UNL     1       4.812   4.735  15.711  0.00  0.00    +0.000 C 
BRANCH  24  25
ATOM     25  C   UNL     1       5.638   4.554  14.448  0.00  0.00    +0.000 A 
ATOM     26  C   UNL     1       5.205   3.685  13.445  0.00  0.00    +0.000 A 
ATOM     27  C   UNL     1       6.011   3.430  12.330  0.00  0.00    +0.000 A 
ATOM     28  C   UNL     1       7.229   4.099  12.181  0.00  0.00    +0.000 A 
ATOM     29  C   UNL     1       7.608   5.035  13.113  0.00  0.00    +0.000 A 
ATOM     30  F   UNL     1       8.738   5.742  12.944  0.00  0.00    +0.000 F 
ATOM     31  C   UNL     1       6.845   5.248  14.251  0.00  0.00    +0.000 A 
ENDBRANCH  24  25
ENDBRANCH  10  24
TORSDOF 7
ENDMDL
MODEL 6
REMARK VINA RESULT:      -7.9      3.915      8.204
REMARK  Name = 
REMARK  7 active torsions:
REMARK  status: ('A' for Active; 'I' for Inactive)
REMARK    1  A    between atoms: N_1  and  C_2
REMARK    2  A    between atoms: C_8  and  C_9
REMARK    3  A    between atoms: C_9  and  N_10
REMARK    4  A    between atoms: N_10  and  S_11
REMARK    5  A    between atoms: S_11  and  C_14
REMARK    6  A    between atoms: C_20  and  C_21
REMARK    7  A    between atoms: C_21  and  C_22
REMARK                            x       y       z     vdW  Elec       q    Type
REMARK                         _______ _______ _______ _____ _____    ______ ____
ROOT
ATOM      1  C   UNL     1       1.542   8.623  21.033  0.00  0.00    +0.000 C 
ATOM      2  C   UNL     1       0.595   9.070  19.922  0.00  0.00    +0.000 C 
ATOM      3  C   UNL     1       1.376   9.124  18.612  0.00  0.00    +0.000 C 
ATOM      4  C   UNL     1       2.411   8.029  18.436  0.00  0.00    +0.000 A 
ATOM      5  C   UNL     1       3.072   7.941  17.204  0.00  0.00    +0.000 A 
ATOM      6  C   UNL     1       4.048   6.962  16.991  0.00  0.00    +0.000 A 
ATOM      7  C   UNL     1       4.382   6.055  18.005  0.00  0.00    +0.000 A 
ATOM      8  C   UNL     1       3.707   6.129  19.233  0.00  0.00    +0.000 A 
ATOM      9  C   UNL     1       2.733   7.114  19.462  0.00  0.00    +0.000 A 
ATOM     10  C   UNL     1       1.982   7.148  20.789  0.00  0.00    +0.000 C 
ENDROOT
BRANCH   1  11
ATOM     11  N   UNL     1       1.035   8.949  22.359  0.00  0.00    +0.000 NA
ATOM     12  H   UNL     1       1.642   9.588  22.864  0.00  0.00    +0.000 HD
ATOM     13  H   UNL     1       0.092   9.314  22.338  0.00  0.00    +0.000 HD
ENDBRANCH   1  11
BRANCH   7  14
ATOM     14  C   UNL     1       5.426   4.988  17.803  0.00  0.00    +0.000 C 
BRANCH  14  15
ATOM     15  N   UNL     1       5.321   4.302  16.511  0.00  0.00    +0.000 NA
ATOM     16  H   UNL     1       4.400   4.478  16.057  0.00  0.00    +0.000 HD
BRANCH  15  17
ATOM     17  S   UNL     1       6.541   4.681  15.390  0.00  0.00    +0.000 S 
ATOM     18  O   UNL     1       6.280   6.035  14.984  0.00  0.00    +0.000 OA
ATOM     19  O   UNL     1       7.793   4.355  16.057  0.00  0.00    +0.000 OA
BRANCH  17  20
ATOM     20  C   UNL     1       6.299   3.559  14.015  0.00  0.00    +0.000 C 
ATOM     21  C   UNL     1       4.950   3.699  13.274  0.00  0.00    +0.000 C 
ATOM     22  C   UNL     1       5.724   3.403  11.973  0.00  0.00    +0.000 C 
ATOM     23  C   UNL     1       6.981   3.949  12.685  0.00  0.00    +0.000 C 
ENDBRANCH  17  20
ENDBRANCH  15  17
ENDBRANCH  14  15
ENDBRANCH   7  14
BRANCH  10  24
ATOM     24  C   UNL     1       0.869   6.052  20.854  0.00  0.00    +0.000 C 
BRANCH  24  25
ATOM     25  C   UNL     1       1.261   4.595  20.673  0.00  0.00    +0.000 A 
ATOM     26  C   UNL     1       2.108   3.977  21.594  0.00  0.00    +0.000 A 
ATOM     27  C   UNL     1       2.560   2.670  21.377  0.00  0.00    +0.000 A 
ATOM     28  C   UNL     1       2.112   1.952  20.266  0.00  0.00    +0.000 A 
ATOM     29  C   UNL     1       1.195   2.519  19.415  0.00  0.00    +0.000 A 
ATOM     30  F   UNL     1       0.695   1.814  18.386  0.00  0.00    +0.000 F 
ATOM     31  C   UNL     1       0.789   3.834  19.588  0.00  0.00    +0.000 A 
ENDBRANCH  24  25
ENDBRANCH  10  24
TORSDOF 7
ENDMDL
MODEL 7
REMARK VINA RESULT:      -7.9      1.440      1.805
REMARK  Name = 
REMARK  7 active torsions:
REMARK  status: ('A' for Active; 'I' for Inactive)
REMARK    1  A    between atoms: N_1  and  C_2
REMARK    2  A    between atoms: C_8  and  C_9
REMARK    3  A    between atoms: C_9  and  N_10
REMARK    4  A    between atoms: N_10  and  S_11
REMARK    5  A    between atoms: S_11  and  C_14
REMARK    6  A    between atoms: C_20  and  C_21
REMARK    7  A    between atoms: C_21  and  C_22
REMARK                            x       y       z     vdW  Elec       q    Type
REMARK                         _______ _______ _______ _____ _____    ______ ____
ROOT
ATOM      1  C   UNL     1       6.278   4.695  18.166  0.00  0.00    +0.000 C 
ATOM      2  C   UNL     1       5.479   3.597  18.866  0.00  0.00    +0.000 C 
ATOM      3  C   UNL     1       4.423   4.254  19.749  0.00  0.00    +0.000 C 
ATOM      4  C   UNL     1       3.792   5.507  19.171  0.00  0.00    +0.000 A 
ATOM      5  C   UNL     1       2.724   6.087  19.868  0.00  0.00    +0.000 A 
ATOM      6  C   UNL     1       2.115   7.252  19.392  0.00  0.00    +0.000 A 
ATOM      7  C   UNL     1       2.562   7.859  18.211  0.00  0.00    +0.000 A 
ATOM      8  C   UNL     1       3.619   7.269  17.500  0.00  0.00    +0.000 A 
ATOM      9  C   UNL     1       4.245   6.106  17.975  0.00  0.00    +0.000 A 
ATOM     10  C   UNL     1       5.361   5.457  17.163  0.00  0.00    +0.000 C 
ENDROOT
BRANCH   1  11
ATOM     11  N   UNL     1       7.555   4.213  17.657  0.00  0.00    +0.000 NA
ATOM     12  H   UNL     1       8.309   4.880  17.795  0.00  0.00    +0.000 HD
ATOM     13  H   UNL     1       7.816   3.315  18.043  0.00  0.00    +0.000 HD
ENDBRANCH   1  11
BRANCH   7  14
ATOM     14  C   UNL     1       1.924   9.113  17.672  0.00  0.00    +0.000 C 
BRANCH  14  15
ATOM     15  N   UNL     1       1.646  10.119  18.703  0.00  0.00    +0.000 NA
ATOM     16  H   UNL     1       2.042  11.048  18.448  0.00  0.00    +0.000 HD
BRANCH  15  17
ATOM     17  S   UNL     1       0.004  10.331  19.083  0.00  0.00    +0.000 S 
ATOM     18  O   UNL     1      -0.714   9.974  17.890  0.00  0.00    +0.000 OA
ATOM     19  O   UNL     1      -0.211   9.576  20.309  0.00  0.00    +0.000 OA
BRANCH  17  20
ATOM     20  C   UNL     1      -0.190  12.078  19.429  0.00  0.00    +0.000 C 
ATOM     21  C   UNL     1       1.110  12.914  19.373  0.00  0.00    +0.000 C 
ATOM     22  C   UNL     1       0.261  14.047  18.761  0.00  0.00    +0.000 C 
ATOM     23  C   UNL     1      -0.709  12.952  18.266  0.00  0.00    +0.000 C 
ENDBRANCH  17  20
ENDBRANCH  15  17
ENDBRANCH  14  15
ENDBRANCH   7  14
BRANCH  10  24
ATOM     24  C   UNL     1       4.801   4.645  15.951  0.00  0.00    +0.000 C 
BRANCH  24  25
ATOM     25  C   UNL     1       5.671   4.476  14.716  0.00  0.00    +0.000 A 
ATOM     26  C   UNL     1       6.846   5.217  14.579  0.00  0.00    +0.000 A 
ATOM     27  C   UNL     1       7.595   5.148  13.398  0.00  0.00    +0.000 A 
ATOM     28  C   UNL     1       7.205   4.283  12.373  0.00  0.00    +0.000 A 
ATOM     29  C   UNL     1       6.109   3.472  12.549  0.00  0.00    +0.000 A 
ATOM     30  F   UNL     1       5.767   2.579  11.604  0.00  0.00    +0.000 F 
ATOM     31  C   UNL     1       5.327   3.579  13.689  0.00  0.00    +0.000 A 
ENDBRANCH  24  25
ENDBRANCH  10  24
TORSDOF 7
ENDMDL
MODEL 8
REMARK VINA RESULT:      -7.9      2.068      2.786
REMARK  Name = 
REMARK  7 active torsions:
REMARK  status: ('A' for Active; 'I' for Inactive)
REMARK    1  A    between atoms: N_1  and  C_2
REMARK    2  A    between atoms: C_8  and  C_9
REMARK    3  A    between atoms: C_9  and  N_10
REMARK    4  A    between atoms: N_10  and  S_11
REMARK    5  A    between atoms: S_11  and  C_14
REMARK    6  A    between atoms: C_20  and  C_21
REMARK    7  A    between atoms: C_21  and  C_22
REMARK                            x       y       z     vdW  Elec       q    Type
REMARK                         _______ _______ _______ _____ _____    ______ ____
ROOT
ATOM      1  C   UNL     1       4.268   2.503  19.760  0.00  0.00    +0.000 C 
ATOM      2  C   UNL     1       3.841   1.793  18.477  0.00  0.00    +0.000 C 
ATOM      3  C   UNL     1       2.577   2.464  17.949  0.00  0.00    +0.000 C 
ATOM      4  C   UNL     1       2.529   3.970  18.125  0.00  0.00    +0.000 A 
ATOM      5  C   UNL     1       1.458   4.666  17.547  0.00  0.00    +0.000 A 
ATOM      6  C   UNL     1       1.353   6.053  17.692  0.00  0.00    +0.000 A 
ATOM      7  C   UNL     1       2.313   6.770  18.417  0.00  0.00    +0.000 A 
ATOM      8  C   UNL     1       3.397   6.077  18.980  0.00  0.00    +0.000 A 
ATOM      9  C   UNL     1       3.507   4.684  18.851  0.00  0.00    +0.000 A 
ATOM     10  C   UNL     1       4.716   3.959  19.432  0.00  0.00    +0.000 C 
ENDROOT
BRANCH   1  11
ATOM     11  N   UNL     1       5.178   1.697  20.564  0.00  0.00    +0.000 NA
ATOM     12  H   UNL     1       5.890   1.236  20.005  0.00  0.00    +0.000 HD
ATOM     13  H   UNL     1       5.613   2.226  21.308  0.00  0.00    +0.000 HD
ENDBRANCH   1  11
BRANCH   7  14
ATOM     14  C   UNL     1       2.228   8.264  18.587  0.00  0.00    +0.000 C 
BRANCH  14  15
ATOM     15  N   UNL     1       1.494   8.675  19.790  0.00  0.00    +0.000 NA
ATOM     16  H   UNL     1       2.136   8.826  20.597  0.00  0.00    +0.000 HD
BRANCH  15  17
ATOM     17  S   UNL     1       0.534  10.066  19.611  0.00  0.00    +0.000 S 
ATOM     18  O   UNL     1       1.445  11.173  19.707  0.00  0.00    +0.000 OA
ATOM     19  O   UNL     1      -0.225   9.857  18.387  0.00  0.00    +0.000 OA
BRANCH  17  20
ATOM     20  C   UNL     1      -0.590  10.058  21.006  0.00  0.00    +0.000 C 
ATOM     21  C   UNL     1      -0.279   9.014  22.104  0.00  0.00    +0.000 C 
ATOM     22  C   UNL     1      -0.733  10.074  23.129  0.00  0.00    +0.000 C 
ATOM     23  C   UNL     1      -0.354  11.143  22.080  0.00  0.00    +0.000 C 
ENDBRANCH  17  20
ENDBRANCH  15  17
ENDBRANCH  14  15
ENDBRANCH   7  14
BRANCH  10  24
ATOM     24  C   UNL     1       5.984   4.129  18.534  0.00  0.00    +0.000 C 
BRANCH  24  25
ATOM     25  C   UNL     1       5.801   4.454  17.060  0.00  0.00    +0.000 A 
ATOM     26  C   UNL     1       5.997   3.465  16.095  0.00  0.00    +0.000 A 
ATOM     27  C   UNL     1       5.938   3.781  14.733  0.00  0.00    +0.000 A 
ATOM     28  C   UNL     1       5.614   5.079  14.330  0.00  0.00    +0.000 A 
ATOM     29  C   UNL     1       5.315   6.029  15.278  0.00  0.00    +0.000 A 
ATOM     30  F   UNL     1       4.926   7.261  14.905  0.00  0.00    +0.000 F 
ATOM     31  C   UNL     1       5.432   5.740  16.629  0.00  0.00    +0.000 A 
ENDBRANCH  24  25
ENDBRANCH  10  24
TORSDOF 7
ENDMDL
MODEL 9
REMARK VINA RESULT:      -7.9      2.947      3.667
REMARK  Name = 
REMARK  7 active torsions:
REMARK  status: ('A' for Active; 'I' for Inactive)
REMARK    1  A    between atoms: N_1  and  C_2
REMARK    2  A    between atoms: C_8  and  C_9
REMARK    3  A    between atoms: C_9  and  N_10
REMARK    4  A    between atoms: N_10  and  S_11
REMARK    5  A    between atoms: S_11  and  C_14
REMARK    6  A    between atoms: C_20  and  C_21
REMARK    7  A    between atoms: C_21  and  C_22
REMARK                            x       y       z     vdW  Elec       q    Type
REMARK                         _______ _______ _______ _____ _____    ______ ____
ROOT
ATOM      1  C   UNL     1       4.267   2.305  19.694  0.00  0.00    +0.000 C 
ATOM      2  C   UNL     1       3.719   1.613  18.448  0.00  0.00    +0.000 C 
ATOM      3  C   UNL     1       2.453   2.341  18.007  0.00  0.00    +0.000 C 
ATOM      4  C   UNL     1       2.486   3.848  18.179  0.00  0.00    +0.000 A 
ATOM      5  C   UNL     1       1.410   4.591  17.675  0.00  0.00    +0.000 A 
ATOM      6  C   UNL     1       1.379   5.981  17.820  0.00  0.00    +0.000 A 
ATOM      7  C   UNL     1       2.420   6.655  18.472  0.00  0.00    +0.000 A 
ATOM      8  C   UNL     1       3.508   5.914  18.961  0.00  0.00    +0.000 A 
ATOM      9  C   UNL     1       3.545   4.517  18.830  0.00  0.00    +0.000 A 
ATOM     10  C   UNL     1       4.757   3.738  19.329  0.00  0.00    +0.000 C 
ENDROOT
BRANCH   1  11
ATOM     11  N   UNL     1       5.194   1.460  20.436  0.00  0.00    +0.000 NA
ATOM     12  H   UNL     1       5.215   0.505  20.091  0.00  0.00    +0.000 HD
ATOM     13  H   UNL     1       6.132   1.838  20.462  0.00  0.00    +0.000 HD
ENDBRANCH   1  11
BRANCH   7  14
ATOM     14  C   UNL     1       2.415   8.151  18.641  0.00  0.00    +0.000 C 
BRANCH  14  15
ATOM     15  N   UNL     1       1.243   8.804  18.045  0.00  0.00    +0.000 NA
ATOM     16  H   UNL     1       0.487   8.118  17.838  0.00  0.00    +0.000 HD
BRANCH  15  17
ATOM     17  S   UNL     1       0.575  10.068  18.963  0.00  0.00    +0.000 S 
ATOM     18  O   UNL     1       1.351  11.231  18.634  0.00  0.00    +0.000 OA
ATOM     19  O   UNL     1      -0.851  10.044  18.673  0.00  0.00    +0.000 OA
BRANCH  17  20
ATOM     20  C   UNL     1       0.832   9.608  20.675  0.00  0.00    +0.000 C 
ATOM     21  C   UNL     1       0.330  10.631  21.720  0.00  0.00    +0.000 C 
ATOM     22  C   UNL     1      -0.083   9.423  22.587  0.00  0.00    +0.000 C 
ATOM     23  C   UNL     1      -0.184   8.612  21.277  0.00  0.00    +0.000 C 
ENDBRANCH  17  20
ENDBRANCH  15  17
ENDBRANCH  14  15
ENDBRANCH   7  14
BRANCH  10  24
ATOM     24  C   UNL     1       5.965   3.849  18.343  0.00  0.00    +0.000 C 
BRANCH  24  25
ATOM     25  C   UNL     1       6.503   5.227  17.993  0.00  0.00    +0.000 A 
ATOM     26  C   UNL     1       6.028   5.900  16.867  0.00  0.00    +0.000 A 
ATOM     27  C   UNL     1       6.595   7.119  16.477  0.00  0.00    +0.000 A 
ATOM     28  C   UNL     1       7.598   7.703  17.254  0.00  0.00    +0.000 A 
ATOM     29  C   UNL     1       7.993   7.095  18.422  0.00  0.00    +0.000 A 
ATOM     30  F   UNL     1       8.902   7.683  19.219  0.00  0.00    +0.000 F 
ATOM     31  C   UNL     1       7.481   5.858  18.782  0.00  0.00    +0.000 A 
ENDBRANCH  24  25
ENDBRANCH  10  24
TORSDOF 7
ENDMDL
