MODEL 1
REMARK VINA RESULT:      -6.9      0.000      0.000
REMARK  Name = 
REMARK  7 active torsions:
REMARK  status: ('A' for Active; 'I' for Inactive)
REMARK    1  A    between atoms: C_2  and  C_3
REMARK    2  A    between atoms: C_2  and  C_4
REMARK    3  A    between atoms: C_4  and  N_5
REMARK    4  A    between atoms: C_9  and  O_10
REMARK    5  A    between atoms: O_10  and  C_11
REMARK    6  A    between atoms: C_14  and  N_15
REMARK    7  A    between atoms: N_15  and  C_16
REMARK                            x       y       z     vdW  Elec       q    Type
REMARK                         _______ _______ _______ _____ _____    ______ ____
ROOT
ATOM      1  N   UNL     1       2.555   7.073  19.135  0.00  0.00    +0.000 N 
ATOM      2  C   UNL     1       2.803   7.626  17.900  0.00  0.00    +0.000 A 
ATOM      3  C   UNL     1       2.061   8.784  17.797  0.00  0.00    +0.000 A 
ATOM      4  C   UNL     1       1.367   8.959  19.024  0.00  0.00    +0.000 A 
ATOM      5  C   UNL     1       0.487   9.896  19.568  0.00  0.00    +0.000 A 
ATOM      6  N   UNL     1       0.026   9.726  20.832  0.00  0.00    +0.000 NA
ATOM      7  C   UNL     1       0.484   8.672  21.531  0.00  0.00    +0.000 A 
ATOM      8  N   UNL     1       1.326   7.710  21.120  0.00  0.00    +0.000 NA
ATOM      9  C   UNL     1       1.725   7.902  19.850  0.00  0.00    +0.000 A 
ENDROOT
BRANCH   1  10
ATOM     10  C   UNL     1       3.118   5.821  19.624  0.00  0.00    +0.000 C 
BRANCH  10  12
ATOM     11  C   UNL     1       1.621   4.097  20.654  0.00  0.00    +0.000 C 
ATOM     12  C   UNL     1       2.143   4.664  19.551  0.00  0.00    +0.000 C 
ATOM     13  C   UNL     1       1.736   4.204  18.177  0.00  0.00    +0.000 C 
ENDBRANCH  10  12
ENDBRANCH   1  10
BRANCH   5  14
ATOM     14  O   UNL     1       0.063  10.981  18.806  0.00  0.00    +0.000 OA
BRANCH  14  15
ATOM     15  C   UNL     1      -1.242  10.976  18.368  0.00  0.00    +0.000 A 
ATOM     16  C   UNL     1      -1.692  10.176  17.321  0.00  0.00    +0.000 A 
ATOM     17  C   UNL     1      -3.021  10.255  16.899  0.00  0.00    +0.000 A 
ATOM     18  C   UNL     1      -3.948  11.081  17.552  0.00  0.00    +0.000 A 
ATOM     19  C   UNL     1      -3.492  11.834  18.641  0.00  0.00    +0.000 A 
ATOM     20  C   UNL     1      -2.152  11.781  19.052  0.00  0.00    +0.000 A 
BRANCH  18  21
ATOM     21  N   UNL     1      -5.226  11.205  17.008  0.00  0.00    +0.000 N 
ATOM     22  C   UNL     1      -5.968  12.445  17.133  0.00  0.00    +0.000 C 
ATOM     23  H   UNL     1      -5.810  10.399  17.205  0.00  0.00    +0.000 HD
ENDBRANCH  18  21
ENDBRANCH  14  15
ENDBRANCH   5  14
TORSDOF 5
ENDMDL
MODEL 2
REMARK VINA RESULT:      -6.9      0.370      1.087
REMARK  Name = 
REMARK  7 active torsions:
REMARK  status: ('A' for Active; 'I' for Inactive)
REMARK    1  A    between atoms: C_2  and  C_3
REMARK    2  A    between atoms: C_2  and  C_4
REMARK    3  A    between atoms: C_4  and  N_5
REMARK    4  A    between atoms: C_9  and  O_10
REMARK    5  A    between atoms: O_10  and  C_11
REMARK    6  A    between atoms: C_14  and  N_15
REMARK    7  A    between atoms: N_15  and  C_16
REMARK                            x       y       z     vdW  Elec       q    Type
REMARK                         _______ _______ _______ _____ _____    ______ ____
ROOT
ATOM      1  N   UNL     1       2.391   7.355  19.100  0.00  0.00    +0.000 N 
ATOM      2  C   UNL     1       2.600   7.963  17.884  0.00  0.00    +0.000 A 
ATOM      3  C   UNL     1       1.849   9.120  17.855  0.00  0.00    +0.000 A 
ATOM      4  C   UNL     1       1.191   9.237  19.108  0.00  0.00    +0.000 A 
ATOM      5  C   UNL     1       0.324  10.144  19.719  0.00  0.00    +0.000 A 
ATOM      6  N   UNL     1      -0.098   9.915  20.987  0.00  0.00    +0.000 NA
ATOM      7  C   UNL     1       0.385   8.834  21.625  0.00  0.00    +0.000 A 
ATOM      8  N   UNL     1       1.219   7.897  21.147  0.00  0.00    +0.000 NA
ATOM      9  C   UNL     1       1.579   8.147  19.876  0.00  0.00    +0.000 A 
ENDROOT
BRANCH   1  10
ATOM     10  C   UNL     1       2.974   6.086  19.518  0.00  0.00    +0.000 C 
BRANCH  10  12
ATOM     11  C   UNL     1       1.364   4.356  20.346  0.00  0.00    +0.000 C 
ATOM     12  C   UNL     1       2.039   4.911  19.323  0.00  0.00    +0.000 C 
ATOM     13  C   UNL     1       1.852   4.418  17.914  0.00  0.00    +0.000 C 
ENDBRANCH  10  12
ENDBRANCH   1  10
BRANCH   5  14
ATOM     14  O   UNL     1      -0.128  11.258  19.019  0.00  0.00    +0.000 OA
BRANCH  14  15
ATOM     15  C   UNL     1      -1.445  11.263  18.615  0.00  0.00    +0.000 A 
ATOM     16  C   UNL     1      -2.428  12.034  19.229  0.00  0.00    +0.000 A 
ATOM     17  C   UNL     1      -3.753  11.956  18.796  0.00  0.00    +0.000 A 
ATOM     18  C   UNL     1      -4.119  11.163  17.698  0.00  0.00    +0.000 A 
ATOM     19  C   UNL     1      -3.107  10.440  17.054  0.00  0.00    +0.000 A 
ATOM     20  C   UNL     1      -1.778  10.492  17.502  0.00  0.00    +0.000 A 
BRANCH  18  21
ATOM     21  N   UNL     1      -5.473  11.036  17.391  0.00  0.00    +0.000 N 
ATOM     22  C   UNL     1      -6.375  12.163  17.539  0.00  0.00    +0.000 C 
ATOM     23  H   UNL     1      -5.876  10.184  17.766  0.00  0.00    +0.000 HD
ENDBRANCH  18  21
ENDBRANCH  14  15
ENDBRANCH   5  14
TORSDOF 5
ENDMDL
MODEL 3
REMARK VINA RESULT:      -6.8      0.841      1.013
REMARK  Name = 
REMARK  7 active torsions:
REMARK  status: ('A' for Active; 'I' for Inactive)
REMARK    1  A    between atoms: C_2  and  C_3
REMARK    2  A    between atoms: C_2  and  C_4
REMARK    3  A    between atoms: C_4  and  N_5
REMARK    4  A    between atoms: C_9  and  O_10
REMARK    5  A    between atoms: O_10  and  C_11
REMARK    6  A    between atoms: C_14  and  N_15
REMARK    7  A    between atoms: N_15  and  C_16
REMARK                            x       y       z     vdW  Elec       q    Type
REMARK                         _______ _______ _______ _____ _____    ______ ____
ROOT
ATOM      1  N   UNL     1       2.423   7.471  18.970  0.00  0.00    +0.000 N 
ATOM      2  C   UNL     1       2.599   8.150  17.787  0.00  0.00    +0.000 A 
ATOM      3  C   UNL     1       1.794   9.270  17.818  0.00  0.00    +0.000 A 
ATOM      4  C   UNL     1       1.135   9.290  19.077  0.00  0.00    +0.000 A 
ATOM      5  C   UNL     1       0.227  10.121  19.734  0.00  0.00    +0.000 A 
ATOM      6  N   UNL     1      -0.180   9.807  20.988  0.00  0.00    +0.000 NA
ATOM      7  C   UNL     1       0.357   8.720  21.570  0.00  0.00    +0.000 A 
ATOM      8  N   UNL     1       1.233   7.849  21.043  0.00  0.00    +0.000 NA
ATOM      9  C   UNL     1       1.577   8.181  19.786  0.00  0.00    +0.000 A 
ENDROOT
BRANCH   1  10
ATOM     10  C   UNL     1       3.068   6.211  19.321  0.00  0.00    +0.000 C 
BRANCH  10  12
ATOM     11  C   UNL     1       1.812   4.549  17.930  0.00  0.00    +0.000 C 
ATOM     12  C   UNL     1       2.970   5.170  18.226  0.00  0.00    +0.000 C 
ATOM     13  C   UNL     1       4.220   4.894  17.436  0.00  0.00    +0.000 C 
ENDBRANCH  10  12
ENDBRANCH   1  10
BRANCH   5  14
ATOM     14  O   UNL     1      -0.281  11.247  19.093  0.00  0.00    +0.000 OA
BRANCH  14  15
ATOM     15  C   UNL     1      -1.576  11.185  18.630  0.00  0.00    +0.000 A 
ATOM     16  C   UNL     1      -1.983  10.323  17.615  0.00  0.00    +0.000 A 
ATOM     17  C   UNL     1      -3.304  10.344  17.165  0.00  0.00    +0.000 A 
ATOM     18  C   UNL     1      -4.267  11.172  17.760  0.00  0.00    +0.000 A 
ATOM     19  C   UNL     1      -3.854  11.989  18.820  0.00  0.00    +0.000 A 
ATOM     20  C   UNL     1      -2.521  11.994  19.259  0.00  0.00    +0.000 A 
BRANCH  18  21
ATOM     21  N   UNL     1      -5.537  11.234  17.187  0.00  0.00    +0.000 N 
ATOM     22  C   UNL     1      -6.686  11.642  17.973  0.00  0.00    +0.000 C 
ATOM     23  H   UNL     1      -5.744  10.420  16.617  0.00  0.00    +0.000 HD
ENDBRANCH  18  21
ENDBRANCH  14  15
ENDBRANCH   5  14
TORSDOF 5
ENDMDL
MODEL 4
REMARK VINA RESULT:      -6.8      0.870      1.480
REMARK  Name = 
REMARK  7 active torsions:
REMARK  status: ('A' for Active; 'I' for Inactive)
REMARK    1  A    between atoms: C_2  and  C_3
REMARK    2  A    between atoms: C_2  and  C_4
REMARK    3  A    between atoms: C_4  and  N_5
REMARK    4  A    between atoms: C_9  and  O_10
REMARK    5  A    between atoms: O_10  and  C_11
REMARK    6  A    between atoms: C_14  and  N_15
REMARK    7  A    between atoms: N_15  and  C_16
REMARK                            x       y       z     vdW  Elec       q    Type
REMARK                         _______ _______ _______ _____ _____    ______ ____
ROOT
ATOM      1  N   UNL     1       2.592   7.252  18.932  0.00  0.00    +0.000 N 
ATOM      2  C   UNL     1       2.822   7.924  17.753  0.00  0.00    +0.000 A 
ATOM      3  C   UNL     1       2.038   9.058  17.751  0.00  0.00    +0.000 A 
ATOM      4  C   UNL     1       1.334   9.095  18.985  0.00  0.00    +0.000 A 
ATOM      5  C   UNL     1       0.418   9.946  19.605  0.00  0.00    +0.000 A 
ATOM      6  N   UNL     1      -0.039   9.645  20.846  0.00  0.00    +0.000 NA
ATOM      7  C   UNL     1       0.456   8.550  21.450  0.00  0.00    +0.000 A 
ATOM      8  N   UNL     1       1.334   7.661  20.959  0.00  0.00    +0.000 NA
ATOM      9  C   UNL     1       1.729   7.982  19.714  0.00  0.00    +0.000 A 
ENDROOT
BRANCH   1  10
ATOM     10  C   UNL     1       3.200   5.983  19.311  0.00  0.00    +0.000 C 
BRANCH  10  12
ATOM     11  C   UNL     1       4.198   4.464  17.586  0.00  0.00    +0.000 C 
ATOM     12  C   UNL     1       3.108   4.934  18.222  0.00  0.00    +0.000 C 
ATOM     13  C   UNL     1       1.738   4.393  17.914  0.00  0.00    +0.000 C 
ENDBRANCH  10  12
ENDBRANCH   1  10
BRANCH   5  14
ATOM     14  O   UNL     1      -0.045  11.078  18.942  0.00  0.00    +0.000 OA
BRANCH  14  15
ATOM     15  C   UNL     1      -1.368  11.094  18.562  0.00  0.00    +0.000 A 
ATOM     16  C   UNL     1      -2.305  11.972  19.101  0.00  0.00    +0.000 A 
ATOM     17  C   UNL     1      -3.641  11.903  18.700  0.00  0.00    +0.000 A 
ATOM     18  C   UNL     1      -4.062  11.008  17.705  0.00  0.00    +0.000 A 
ATOM     19  C   UNL     1      -3.095  10.174  17.131  0.00  0.00    +0.000 A 
ATOM     20  C   UNL     1      -1.756  10.218  17.549  0.00  0.00    +0.000 A 
BRANCH  18  21
ATOM     21  N   UNL     1      -5.427  10.906  17.437  0.00  0.00    +0.000 N 
ATOM     22  C   UNL     1      -6.384  10.744  18.515  0.00  0.00    +0.000 C 
ATOM     23  H   UNL     1      -5.624  10.277  16.665  0.00  0.00    +0.000 HD
ENDBRANCH  18  21
ENDBRANCH  14  15
ENDBRANCH   5  14
TORSDOF 5
ENDMDL
MODEL 5
REMARK VINA RESULT:      -6.7      5.371      8.513
REMARK  Name = 
REMARK  7 active torsions:
REMARK  status: ('A' for Active; 'I' for Inactive)
REMARK    1  A    between atoms: C_2  and  C_3
REMARK    2  A    between atoms: C_2  and  C_4
REMARK    3  A    between atoms: C_4  and  N_5
REMARK    4  A    between atoms: C_9  and  O_10
REMARK    5  A    between atoms: O_10  and  C_11
REMARK    6  A    between atoms: C_14  and  N_15
REMARK    7  A    between atoms: N_15  and  C_16
REMARK                            x       y       z     vdW  Elec       q    Type
REMARK                         _______ _______ _______ _____ _____    ______ ____
ROOT
ATOM      1  N   UNL     1       3.162   4.760  19.886  0.00  0.00    +0.000 N 
ATOM      2  C   UNL     1       4.215   3.878  19.964  0.00  0.00    +0.000 A 
ATOM      3  C   UNL     1       5.153   4.254  19.025  0.00  0.00    +0.000 A 
ATOM      4  C   UNL     1       4.670   5.424  18.380  0.00  0.00    +0.000 A 
ATOM      5  C   UNL     1       5.116   6.290  17.381  0.00  0.00    +0.000 A 
ATOM      6  N   UNL     1       4.353   7.354  17.029  0.00  0.00    +0.000 NA
ATOM      7  C   UNL     1       3.207   7.556  17.703  0.00  0.00    +0.000 A 
ATOM      8  N   UNL     1       2.676   6.799  18.677  0.00  0.00    +0.000 NA
ATOM      9  C   UNL     1       3.450   5.737  18.964  0.00  0.00    +0.000 A 
ENDROOT
BRANCH   1  10
ATOM     10  C   UNL     1       1.946   4.692  20.687  0.00  0.00    +0.000 C 
BRANCH  10  12
ATOM     11  C   UNL     1       1.274   2.553  21.804  0.00  0.00    +0.000 C 
ATOM     12  C   UNL     1       1.318   3.313  20.694  0.00  0.00    +0.000 C 
ATOM     13  C   UNL     1       0.691   2.846  19.409  0.00  0.00    +0.000 C 
ENDBRANCH  10  12
ENDBRANCH   1  10
BRANCH   5  14
ATOM     14  O   UNL     1       6.321   6.045  16.731  0.00  0.00    +0.000 OA
BRANCH  14  15
ATOM     15  C   UNL     1       6.282   5.277  15.589  0.00  0.00    +0.000 A 
ATOM     16  C   UNL     1       5.269   4.359  15.322  0.00  0.00    +0.000 A 
ATOM     17  C   UNL     1       5.316   3.581  14.164  0.00  0.00    +0.000 A 
ATOM     18  C   UNL     1       6.333   3.745  13.211  0.00  0.00    +0.000 A 
ATOM     19  C   UNL     1       7.311   4.715  13.468  0.00  0.00    +0.000 A 
ATOM     20  C   UNL     1       7.286   5.480  14.643  0.00  0.00    +0.000 A 
BRANCH  18  21
ATOM     21  N   UNL     1       6.389   2.857  12.139  0.00  0.00    +0.000 N 
ATOM     22  C   UNL     1       5.176   2.430  11.465  0.00  0.00    +0.000 C 
ATOM     23  H   UNL     1       7.012   2.076  12.315  0.00  0.00    +0.000 HD
ENDBRANCH  18  21
ENDBRANCH  14  15
ENDBRANCH   5  14
TORSDOF 5
ENDMDL
MODEL 6
REMARK VINA RESULT:      -6.7      6.889      9.428
REMARK  Name = 
REMARK  7 active torsions:
REMARK  status: ('A' for Active; 'I' for Inactive)
REMARK    1  A    between atoms: C_2  and  C_3
REMARK    2  A    between atoms: C_2  and  C_4
REMARK    3  A    between atoms: C_4  and  N_5
REMARK    4  A    between atoms: C_9  and  O_10
REMARK    5  A    between atoms: O_10  and  C_11
REMARK    6  A    between atoms: C_14  and  N_15
REMARK    7  A    between atoms: N_15  and  C_16
REMARK                            x       y       z     vdW  Elec       q    Type
REMARK                         _______ _______ _______ _____ _____    ______ ____
ROOT
ATOM      1  N   UNL     1       3.672   3.270  18.881  0.00  0.00    +0.000 N 
ATOM      2  C   UNL     1       2.791   3.132  17.833  0.00  0.00    +0.000 A 
ATOM      3  C   UNL     1       3.283   3.858  16.768  0.00  0.00    +0.000 A 
ATOM      4  C   UNL     1       4.521   4.425  17.170  0.00  0.00    +0.000 A 
ATOM      5  C   UNL     1       5.505   5.229  16.593  0.00  0.00    +0.000 A 
ATOM      6  N   UNL     1       6.601   5.568  17.316  0.00  0.00    +0.000 NA
ATOM      7  C   UNL     1       6.715   5.065  18.558  0.00  0.00    +0.000 A 
ATOM      8  N   UNL     1       5.842   4.286  19.217  0.00  0.00    +0.000 NA
ATOM      9  C   UNL     1       4.756   4.009  18.474  0.00  0.00    +0.000 A 
ENDROOT
BRANCH   1  10
ATOM     10  C   UNL     1       3.501   2.686  20.206  0.00  0.00    +0.000 C 
BRANCH  10  12
ATOM     11  C   UNL     1       2.262   4.703  21.023  0.00  0.00    +0.000 C 
ATOM     12  C   UNL     1       2.419   3.367  21.018  0.00  0.00    +0.000 C 
ATOM     13  C   UNL     1       1.483   2.474  21.786  0.00  0.00    +0.000 C 
ENDBRANCH  10  12
ENDBRANCH   1  10
BRANCH   5  14
ATOM     14  O   UNL     1       5.346   5.705  15.295  0.00  0.00    +0.000 OA
BRANCH  14  15
ATOM     15  C   UNL     1       5.777   4.898  14.266  0.00  0.00    +0.000 A 
ATOM     16  C   UNL     1       4.944   4.006  13.596  0.00  0.00    +0.000 A 
ATOM     17  C   UNL     1       5.460   3.186  12.591  0.00  0.00    +0.000 A 
ATOM     18  C   UNL     1       6.798   3.282  12.181  0.00  0.00    +0.000 A 
ATOM     19  C   UNL     1       7.607   4.227  12.825  0.00  0.00    +0.000 A 
ATOM     20  C   UNL     1       7.102   5.034  13.855  0.00  0.00    +0.000 A 
BRANCH  18  21
ATOM     21  N   UNL     1       7.279   2.355  11.258  0.00  0.00    +0.000 N 
ATOM     22  C   UNL     1       6.564   1.116  11.009  0.00  0.00    +0.000 C 
ATOM     23  H   UNL     1       8.277   2.198  11.351  0.00  0.00    +0.000 HD
ENDBRANCH  18  21
ENDBRANCH  14  15
ENDBRANCH   5  14
TORSDOF 5
ENDMDL
MODEL 7
REMARK VINA RESULT:      -6.6      3.502      5.663
REMARK  Name = 
REMARK  7 active torsions:
REMARK  status: ('A' for Active; 'I' for Inactive)
REMARK    1  A    between atoms: C_2  and  C_3
REMARK    2  A    between atoms: C_2  and  C_4
REMARK    3  A    between atoms: C_4  and  N_5
REMARK    4  A    between atoms: C_9  and  O_10
REMARK    5  A    between atoms: O_10  and  C_11
REMARK    6  A    between atoms: C_14  and  N_15
REMARK    7  A    between atoms: N_15  and  C_16
REMARK                            x       y       z     vdW  Elec       q    Type
REMARK                         _______ _______ _______ _____ _____    ______ ____
ROOT
ATOM      1  N   UNL     1       5.489   4.273  16.838  0.00  0.00    +0.000 N 
ATOM      2  C   UNL     1       6.247   5.190  17.530  0.00  0.00    +0.000 A 
ATOM      3  C   UNL     1       5.420   5.832  18.428  0.00  0.00    +0.000 A 
ATOM      4  C   UNL     1       4.125   5.261  18.303  0.00  0.00    +0.000 A 
ATOM      5  C   UNL     1       2.877   5.435  18.902  0.00  0.00    +0.000 A 
ATOM      6  N   UNL     1       1.834   4.660  18.511  0.00  0.00    +0.000 NA
ATOM      7  C   UNL     1       2.067   3.712  17.586  0.00  0.00    +0.000 A 
ATOM      8  N   UNL     1       3.216   3.450  16.942  0.00  0.00    +0.000 NA
ATOM      9  C   UNL     1       4.209   4.268  17.336  0.00  0.00    +0.000 A 
ENDROOT
BRANCH   1  10
ATOM     10  C   UNL     1       5.980   3.411  15.770  0.00  0.00    +0.000 C 
BRANCH  10  12
ATOM     11  C   UNL     1       5.231   3.936  13.438  0.00  0.00    +0.000 C 
ATOM     12  C   UNL     1       6.107   4.128  14.442  0.00  0.00    +0.000 C 
ATOM     13  C   UNL     1       7.234   5.116  14.307  0.00  0.00    +0.000 C 
ENDBRANCH  10  12
ENDBRANCH   1  10
BRANCH   5  14
ATOM     14  O   UNL     1       2.697   6.417  19.870  0.00  0.00    +0.000 OA
BRANCH  14  15
ATOM     15  C   UNL     1       2.168   7.621  19.463  0.00  0.00    +0.000 A 
ATOM     16  C   UNL     1       2.317   8.122  18.172  0.00  0.00    +0.000 A 
ATOM     17  C   UNL     1       1.791   9.372  17.841  0.00  0.00    +0.000 A 
ATOM     18  C   UNL     1       1.047  10.122  18.763  0.00  0.00    +0.000 A 
ATOM     19  C   UNL     1       0.857   9.576  20.039  0.00  0.00    +0.000 A 
ATOM     20  C   UNL     1       1.406   8.333  20.388  0.00  0.00    +0.000 A 
BRANCH  18  21
ATOM     21  N   UNL     1       0.653  11.411  18.408  0.00  0.00    +0.000 N 
ATOM     22  C   UNL     1       1.543  12.540  18.609  0.00  0.00    +0.000 C 
ATOM     23  H   UNL     1      -0.293  11.623  18.708  0.00  0.00    +0.000 HD
ENDBRANCH  18  21
ENDBRANCH  14  15
ENDBRANCH   5  14
TORSDOF 5
ENDMDL
MODEL 8
REMARK VINA RESULT:      -6.6      3.438      5.651
REMARK  Name = 
REMARK  7 active torsions:
REMARK  status: ('A' for Active; 'I' for Inactive)
REMARK    1  A    between atoms: C_2  and  C_3
REMARK    2  A    between atoms: C_2  and  C_4
REMARK    3  A    between atoms: C_4  and  N_5
REMARK    4  A    between atoms: C_9  and  O_10
REMARK    5  A    between atoms: O_10  and  C_11
REMARK    6  A    between atoms: C_14  and  N_15
REMARK    7  A    between atoms: N_15  and  C_16
REMARK                            x       y       z     vdW  Elec       q    Type
REMARK                         _______ _______ _______ _____ _____    ______ ____
ROOT
ATOM      1  N   UNL     1       5.578   4.280  16.775  0.00  0.00    +0.000 N 
ATOM      2  C   UNL     1       6.350   5.185  17.467  0.00  0.00    +0.000 A 
ATOM      3  C   UNL     1       5.537   5.824  18.380  0.00  0.00    +0.000 A 
ATOM      4  C   UNL     1       4.237   5.263  18.265  0.00  0.00    +0.000 A 
ATOM      5  C   UNL     1       2.997   5.439  18.880  0.00  0.00    +0.000 A 
ATOM      6  N   UNL     1       1.945   4.675  18.495  0.00  0.00    +0.000 NA
ATOM      7  C   UNL     1       2.161   3.735  17.558  0.00  0.00    +0.000 A 
ATOM      8  N   UNL     1       3.300   3.471  16.898  0.00  0.00    +0.000 NA
ATOM      9  C   UNL     1       4.303   4.278  17.288  0.00  0.00    +0.000 A 
ENDROOT
BRANCH   1  10
ATOM     10  C   UNL     1       6.050   3.425  15.693  0.00  0.00    +0.000 C 
BRANCH  10  12
ATOM     11  C   UNL     1       5.158   3.955  13.413  0.00  0.00    +0.000 C 
ATOM     12  C   UNL     1       6.101   4.136  14.356  0.00  0.00    +0.000 C 
ATOM     13  C   UNL     1       7.233   5.104  14.144  0.00  0.00    +0.000 C 
ENDBRANCH  10  12
ENDBRANCH   1  10
BRANCH   5  14
ATOM     14  O   UNL     1       2.836   6.413  19.860  0.00  0.00    +0.000 OA
BRANCH  14  15
ATOM     15  C   UNL     1       2.194   7.577  19.499  0.00  0.00    +0.000 A 
ATOM     16  C   UNL     1       1.424   8.329  20.382  0.00  0.00    +0.000 A 
ATOM     17  C   UNL     1       0.765   9.476  19.936  0.00  0.00    +0.000 A 
ATOM     18  C   UNL     1       0.912   9.940  18.620  0.00  0.00    +0.000 A 
ATOM     19  C   UNL     1       1.739   9.204  17.761  0.00  0.00    +0.000 A 
ATOM     20  C   UNL     1       2.381   8.034  18.195  0.00  0.00    +0.000 A 
BRANCH  18  21
ATOM     21  N   UNL     1       0.135  11.020  18.206  0.00  0.00    +0.000 N 
ATOM     22  C   UNL     1      -0.457  11.924  19.175  0.00  0.00    +0.000 C 
ATOM     23  H   UNL     1      -0.528  10.765  17.480  0.00  0.00    +0.000 HD
ENDBRANCH  18  21
ENDBRANCH  14  15
ENDBRANCH   5  14
TORSDOF 5
ENDMDL
MODEL 9
REMARK VINA RESULT:      -6.5      1.144      1.805
REMARK  Name = 
REMARK  7 active torsions:
REMARK  status: ('A' for Active; 'I' for Inactive)
REMARK    1  A    between atoms: C_2  and  C_3
REMARK    2  A    between atoms: C_2  and  C_4
REMARK    3  A    between atoms: C_4  and  N_5
REMARK    4  A    between atoms: C_9  and  O_10
REMARK    5  A    between atoms: O_10  and  C_11
REMARK    6  A    between atoms: C_14  and  N_15
REMARK    7  A    between atoms: N_15  and  C_16
REMARK                            x       y       z     vdW  Elec       q    Type
REMARK                         _______ _______ _______ _____ _____    ______ ____
ROOT
ATOM      1  N   UNL     1       2.921   5.874  19.083  0.00  0.00    +0.000 N 
ATOM      2  C   UNL     1       3.395   6.365  17.888  0.00  0.00    +0.000 A 
ATOM      3  C   UNL     1       2.914   7.650  17.737  0.00  0.00    +0.000 A 
ATOM      4  C   UNL     1       2.154   7.962  18.896  0.00  0.00    +0.000 A 
ATOM      5  C   UNL     1       1.433   9.058  19.372  0.00  0.00    +0.000 A 
ATOM      6  N   UNL     1       0.827   8.985  20.582  0.00  0.00    +0.000 NA
ATOM      7  C   UNL     1       0.993   7.860  21.302  0.00  0.00    +0.000 A 
ATOM      8  N   UNL     1       1.660   6.748  20.954  0.00  0.00    +0.000 NA
ATOM      9  C   UNL     1       2.210   6.855  19.732  0.00  0.00    +0.000 A 
ENDROOT
BRANCH   1  10
ATOM     10  C   UNL     1       3.171   4.534  19.600  0.00  0.00    +0.000 C 
BRANCH  10  12
ATOM     11  C   UNL     1       1.723   3.070  18.173  0.00  0.00    +0.000 C 
ATOM     12  C   UNL     1       2.007   3.589  19.382  0.00  0.00    +0.000 C 
ATOM     13  C   UNL     1       1.205   3.208  20.597  0.00  0.00    +0.000 C 
ENDBRANCH  10  12
ENDBRANCH   1  10
BRANCH   5  14
ATOM     14  O   UNL     1       1.311  10.205  18.594  0.00  0.00    +0.000 OA
BRANCH  14  15
ATOM     15  C   UNL     1       0.045  10.712  18.404  0.00  0.00    +0.000 A 
ATOM     16  C   UNL     1      -0.352  11.965  18.863  0.00  0.00    +0.000 A 
ATOM     17  C   UNL     1      -1.666  12.396  18.673  0.00  0.00    +0.000 A 
ATOM     18  C   UNL     1      -2.596  11.623  17.962  0.00  0.00    +0.000 A 
ATOM     19  C   UNL     1      -2.162  10.392  17.455  0.00  0.00    +0.000 A 
ATOM     20  C   UNL     1      -0.851   9.939  17.667  0.00  0.00    +0.000 A 
BRANCH  18  21
ATOM     21  N   UNL     1      -3.920  12.056  17.910  0.00  0.00    +0.000 N 
ATOM     22  C   UNL     1      -4.918  11.307  17.170  0.00  0.00    +0.000 C 
ATOM     23  H   UNL     1      -3.995  13.053  17.734  0.00  0.00    +0.000 HD
ENDBRANCH  18  21
ENDBRANCH  14  15
ENDBRANCH   5  14
TORSDOF 5
ENDMDL
