MODEL 1
REMARK VINA RESULT:      -7.1      0.000      0.000
REMARK  Name = 
REMARK  4 active torsions:
REMARK  status: ('A' for Active; 'I' for Inactive)
REMARK    1  A    between atoms: C_1  and  C_2
REMARK    2  A    between atoms: C_5  and  C_6
REMARK    3  A    between atoms: N_8  and  C_9
REMARK    4  A    between atoms: C_15  and  N_16
REMARK                            x       y       z     vdW  Elec       q    Type
REMARK                         _______ _______ _______ _____ _____    ______ ____
ROOT
ATOM      1  C   UNL     1       2.717   5.945  18.983  0.00  0.00    +0.000 A 
ATOM      2  C   UNL     1       2.571   7.317  19.231  0.00  0.00    +0.000 A 
ATOM      3  C   UNL     1       1.719   7.744  20.243  0.00  0.00    +0.000 A 
ATOM      4 CL   UNL     1       1.504   9.426  20.527  0.00  0.00    +0.000 Cl
ATOM      5  C   UNL     1       1.041   6.818  21.022  0.00  0.00    +0.000 A 
ATOM      6  C   UNL     1       1.221   5.449  20.788  0.00  0.00    +0.000 A 
ATOM      7  C   UNL     1       2.068   4.966  19.772  0.00  0.00    +0.000 A 
ENDROOT
BRANCH   7   8
ATOM      8  N   UNL     1       2.283   3.600  19.643  0.00  0.00    +0.000 N 
ATOM      9  C   UNL     1       3.297   2.903  20.436  0.00  0.00    +0.000 C 
ATOM     10  C   UNL     1       4.344   2.285  19.508  0.00  0.00    +0.000 C 
ATOM     11  C   UNL     1       3.687   1.386  18.464  0.00  0.00    +0.000 C 
ATOM     12  C   UNL     1       2.612   2.149  17.695  0.00  0.00    +0.000 C 
ATOM     13  C   UNL     1       1.593   2.796  18.633  0.00  0.00    +0.000 C 
ENDBRANCH   7   8
BRANCH   1  16
ATOM     14  C   UNL     1       4.953   5.443  18.109  0.00  0.00    +0.000 C 
ATOM     15  O   UNL     1       5.528   5.560  19.188  0.00  0.00    +0.000 OA
ATOM     16  N   UNL     1       3.591   5.587  17.939  0.00  0.00    +0.000 N 
ATOM     17  H   UNL     1       3.197   5.081  17.160  0.00  0.00    +0.000 HD
BRANCH  14  22
ATOM     18  C   UNL     1       6.220   3.701  13.238  0.00  0.00    +0.000 C 
ATOM     19  C   UNL     1       6.276   4.273  14.614  0.00  0.00    +0.000 A 
ATOM     20  C   UNL     1       7.349   4.826  15.278  0.00  0.00    +0.000 A 
ATOM     21  C   UNL     1       6.999   5.283  16.585  0.00  0.00    +0.000 A 
ATOM     22  C   UNL     1       5.665   5.068  16.883  0.00  0.00    +0.000 A 
ATOM     23  S   UNL     1       4.866   4.293  15.577  0.00  0.00    +0.000 S 
ENDBRANCH  14  22
ENDBRANCH   1  16
TORSDOF 3
ENDMDL
MODEL 2
REMARK VINA RESULT:      -6.7      3.097      5.828
REMARK  Name = 
REMARK  4 active torsions:
REMARK  status: ('A' for Active; 'I' for Inactive)
REMARK    1  A    between atoms: C_1  and  C_2
REMARK    2  A    between atoms: C_5  and  C_6
REMARK    3  A    between atoms: N_8  and  C_9
REMARK    4  A    between atoms: C_15  and  N_16
REMARK                            x       y       z     vdW  Elec       q    Type
REMARK                         _______ _______ _______ _____ _____    ______ ____
ROOT
ATOM      1  C   UNL     1       3.023   5.057  19.451  0.00  0.00    +0.000 A 
ATOM      2  C   UNL     1       2.202   4.466  20.421  0.00  0.00    +0.000 A 
ATOM      3  C   UNL     1       2.460   3.166  20.839  0.00  0.00    +0.000 A 
ATOM      4 CL   UNL     1       1.434   2.420  22.000  0.00  0.00    +0.000 Cl
ATOM      5  C   UNL     1       3.542   2.468  20.321  0.00  0.00    +0.000 A 
ATOM      6  C   UNL     1       4.376   3.080  19.378  0.00  0.00    +0.000 A 
ATOM      7  C   UNL     1       4.154   4.392  18.918  0.00  0.00    +0.000 A 
ENDROOT
BRANCH   7   8
ATOM      8  N   UNL     1       5.064   4.984  18.052  0.00  0.00    +0.000 N 
ATOM      9  C   UNL     1       4.796   5.103  16.618  0.00  0.00    +0.000 C 
ATOM     10  C   UNL     1       5.852   4.330  15.828  0.00  0.00    +0.000 C 
ATOM     11  C   UNL     1       7.260   4.784  16.207  0.00  0.00    +0.000 C 
ATOM     12  C   UNL     1       7.473   4.678  17.715  0.00  0.00    +0.000 C 
ATOM     13  C   UNL     1       6.389   5.420  18.496  0.00  0.00    +0.000 C 
ENDBRANCH   7   8
BRANCH   1  16
ATOM     14  C   UNL     1       1.967   7.230  19.868  0.00  0.00    +0.000 C 
ATOM     15  O   UNL     1       1.576   6.953  20.999  0.00  0.00    +0.000 OA
ATOM     16  N   UNL     1       2.698   6.373  19.071  0.00  0.00    +0.000 N 
ATOM     17  H   UNL     1       3.295   6.818  18.390  0.00  0.00    +0.000 HD
BRANCH  14  22
ATOM     18  C   UNL     1       0.503  12.266  18.940  0.00  0.00    +0.000 C 
ATOM     19  C   UNL     1       1.084  10.898  18.820  0.00  0.00    +0.000 A 
ATOM     20  C   UNL     1       1.863  10.376  17.810  0.00  0.00    +0.000 A 
ATOM     21  C   UNL     1       2.243   9.023  18.067  0.00  0.00    +0.000 A 
ATOM     22  C   UNL     1       1.746   8.550  19.268  0.00  0.00    +0.000 A 
ATOM     23  S   UNL     1       0.804   9.751  20.053  0.00  0.00    +0.000 S 
ENDBRANCH  14  22
ENDBRANCH   1  16
TORSDOF 3
ENDMDL
MODEL 3
REMARK VINA RESULT:      -6.7      3.305      6.222
REMARK  Name = 
REMARK  4 active torsions:
REMARK  status: ('A' for Active; 'I' for Inactive)
REMARK    1  A    between atoms: C_1  and  C_2
REMARK    2  A    between atoms: C_5  and  C_6
REMARK    3  A    between atoms: N_8  and  C_9
REMARK    4  A    between atoms: C_15  and  N_16
REMARK                            x       y       z     vdW  Elec       q    Type
REMARK                         _______ _______ _______ _____ _____    ______ ____
ROOT
ATOM      1  C   UNL     1       3.130   6.476  18.376  0.00  0.00    +0.000 A 
ATOM      2  C   UNL     1       3.985   6.991  17.392  0.00  0.00    +0.000 A 
ATOM      3  C   UNL     1       4.767   6.122  16.640  0.00  0.00    +0.000 A 
ATOM      4 CL   UNL     1       5.847   6.747  15.457  0.00  0.00    +0.000 Cl
ATOM      5  C   UNL     1       4.680   4.752  16.842  0.00  0.00    +0.000 A 
ATOM      6  C   UNL     1       3.798   4.247  17.806  0.00  0.00    +0.000 A 
ATOM      7  C   UNL     1       2.989   5.085  18.596  0.00  0.00    +0.000 A 
ENDROOT
BRANCH   7   8
ATOM      8  N   UNL     1       2.064   4.529  19.470  0.00  0.00    +0.000 N 
ATOM      9  C   UNL     1       2.040   4.883  20.891  0.00  0.00    +0.000 C 
ATOM     10  C   UNL     1       2.305   3.639  21.738  0.00  0.00    +0.000 C 
ATOM     11  C   UNL     1       1.326   2.520  21.390  0.00  0.00    +0.000 C 
ATOM     12  C   UNL     1       1.363   2.218  19.894  0.00  0.00    +0.000 C 
ATOM     13  C   UNL     1       1.137   3.476  19.055  0.00  0.00    +0.000 C 
ENDBRANCH   7   8
BRANCH   1  16
ATOM     14  C   UNL     1       1.878   8.578  18.547  0.00  0.00    +0.000 C 
ATOM     15  O   UNL     1       1.999   8.882  17.362  0.00  0.00    +0.000 OA
ATOM     16  N   UNL     1       2.374   7.416  19.102  0.00  0.00    +0.000 N 
ATOM     17  H   UNL     1       1.882   7.082  19.918  0.00  0.00    +0.000 HD
BRANCH  14  22
ATOM     18  C   UNL     1      -0.563  10.511  22.868  0.00  0.00    +0.000 C 
ATOM     19  C   UNL     1      -0.010  10.333  21.494  0.00  0.00    +0.000 A 
ATOM     20  C   UNL     1      -0.025  11.214  20.435  0.00  0.00    +0.000 A 
ATOM     21  C   UNL     1       0.625  10.682  19.281  0.00  0.00    +0.000 A 
ATOM     22  C   UNL     1       1.122   9.408  19.491  0.00  0.00    +0.000 A 
ATOM     23  S   UNL     1       0.769   8.871  21.082  0.00  0.00    +0.000 S 
ENDBRANCH  14  22
ENDBRANCH   1  16
TORSDOF 3
ENDMDL
MODEL 4
REMARK VINA RESULT:      -6.5      2.945      5.987
REMARK  Name = 
REMARK  4 active torsions:
REMARK  status: ('A' for Active; 'I' for Inactive)
REMARK    1  A    between atoms: C_1  and  C_2
REMARK    2  A    between atoms: C_5  and  C_6
REMARK    3  A    between atoms: N_8  and  C_9
REMARK    4  A    between atoms: C_15  and  N_16
REMARK                            x       y       z     vdW  Elec       q    Type
REMARK                         _______ _______ _______ _____ _____    ______ ____
ROOT
ATOM      1  C   UNL     1       3.717   5.254  18.027  0.00  0.00    +0.000 A 
ATOM      2  C   UNL     1       4.443   5.904  17.020  0.00  0.00    +0.000 A 
ATOM      3  C   UNL     1       5.205   5.154  16.131  0.00  0.00    +0.000 A 
ATOM      4 CL   UNL     1       6.130   5.946  14.917  0.00  0.00    +0.000 Cl
ATOM      5  C   UNL     1       5.222   3.770  16.222  0.00  0.00    +0.000 A 
ATOM      6  C   UNL     1       4.466   3.129  17.211  0.00  0.00    +0.000 A 
ATOM      7  C   UNL     1       3.683   3.843  18.138  0.00  0.00    +0.000 A 
ENDROOT
BRANCH   7   8
ATOM      8  N   UNL     1       2.879   3.156  19.038  0.00  0.00    +0.000 N 
ATOM      9  C   UNL     1       1.437   3.014  18.828  0.00  0.00    +0.000 C 
ATOM     10  C   UNL     1       0.680   3.678  19.978  0.00  0.00    +0.000 C 
ATOM     11  C   UNL     1       1.139   3.127  21.326  0.00  0.00    +0.000 C 
ATOM     12  C   UNL     1       2.652   3.263  21.476  0.00  0.00    +0.000 C 
ATOM     13  C   UNL     1       3.399   2.631  20.302  0.00  0.00    +0.000 C 
ENDBRANCH   7   8
BRANCH   1  16
ATOM     14  C   UNL     1       2.579   7.358  18.566  0.00  0.00    +0.000 C 
ATOM     15  O   UNL     1       2.787   7.885  17.475  0.00  0.00    +0.000 OA
ATOM     16  N   UNL     1       2.974   6.077  18.894  0.00  0.00    +0.000 N 
ATOM     17  H   UNL     1       2.417   5.621  19.601  0.00  0.00    +0.000 HD
BRANCH  14  22
ATOM     18  C   UNL     1      -0.451  10.738  21.353  0.00  0.00    +0.000 C 
ATOM     19  C   UNL     1       0.399   9.585  20.937  0.00  0.00    +0.000 A 
ATOM     20  C   UNL     1       0.753   8.467  21.660  0.00  0.00    +0.000 A 
ATOM     21  C   UNL     1       1.570   7.572  20.906  0.00  0.00    +0.000 A 
ATOM     22  C   UNL     1       1.818   8.031  19.623  0.00  0.00    +0.000 A 
ATOM     23  S   UNL     1       1.070   9.554  19.368  0.00  0.00    +0.000 S 
ENDBRANCH  14  22
ENDBRANCH   1  16
TORSDOF 3
ENDMDL
MODEL 5
REMARK VINA RESULT:      -6.5      3.515      6.815
REMARK  Name = 
REMARK  4 active torsions:
REMARK  status: ('A' for Active; 'I' for Inactive)
REMARK    1  A    between atoms: C_1  and  C_2
REMARK    2  A    between atoms: C_5  and  C_6
REMARK    3  A    between atoms: N_8  and  C_9
REMARK    4  A    between atoms: C_15  and  N_16
REMARK                            x       y       z     vdW  Elec       q    Type
REMARK                         _______ _______ _______ _____ _____    ______ ____
ROOT
ATOM      1  C   UNL     1       5.328   4.140  15.765  0.00  0.00    +0.000 A 
ATOM      2  C   UNL     1       5.234   3.456  14.546  0.00  0.00    +0.000 A 
ATOM      3  C   UNL     1       6.086   3.795  13.501  0.00  0.00    +0.000 A 
ATOM      4 CL   UNL     1       5.951   2.988  11.989  0.00  0.00    +0.000 Cl
ATOM      5  C   UNL     1       7.044   4.784  13.675  0.00  0.00    +0.000 A 
ATOM      6  C   UNL     1       7.151   5.438  14.909  0.00  0.00    +0.000 A 
ATOM      7  C   UNL     1       6.308   5.135  15.995  0.00  0.00    +0.000 A 
ENDROOT
BRANCH   7   8
ATOM      8  N   UNL     1       6.518   5.746  17.224  0.00  0.00    +0.000 N 
ATOM      9  C   UNL     1       6.502   7.203  17.371  0.00  0.00    +0.000 C 
ATOM     10  C   UNL     1       7.866   7.688  17.863  0.00  0.00    +0.000 C 
ATOM     11  C   UNL     1       8.273   6.968  19.146  0.00  0.00    +0.000 C 
ATOM     12  C   UNL     1       8.235   5.455  18.950  0.00  0.00    +0.000 C 
ATOM     13  C   UNL     1       6.880   4.984  18.420  0.00  0.00    +0.000 C 
ENDBRANCH   7   8
BRANCH   1  16
ATOM     14  C   UNL     1       3.530   4.613  17.364  0.00  0.00    +0.000 C 
ATOM     15  O   UNL     1       3.388   5.788  17.035  0.00  0.00    +0.000 OA
ATOM     16  N   UNL     1       4.428   3.747  16.775  0.00  0.00    +0.000 N 
ATOM     17  H   UNL     1       4.179   2.770  16.817  0.00  0.00    +0.000 HD
BRANCH  14  22
ATOM     18  C   UNL     1       1.657   2.567  21.911  0.00  0.00    +0.000 C 
ATOM     19  C   UNL     1       1.797   3.039  20.503  0.00  0.00    +0.000 A 
ATOM     20  C   UNL     1       0.850   3.069  19.503  0.00  0.00    +0.000 A 
ATOM     21  C   UNL     1       1.365   3.613  18.288  0.00  0.00    +0.000 A 
ATOM     22  C   UNL     1       2.694   3.986  18.393  0.00  0.00    +0.000 A 
ATOM     23  S   UNL     1       3.298   3.648  19.963  0.00  0.00    +0.000 S 
ENDBRANCH  14  22
ENDBRANCH   1  16
TORSDOF 3
ENDMDL
MODEL 6
REMARK VINA RESULT:      -6.5      3.096      6.097
REMARK  Name = 
REMARK  4 active torsions:
REMARK  status: ('A' for Active; 'I' for Inactive)
REMARK    1  A    between atoms: C_1  and  C_2
REMARK    2  A    between atoms: C_5  and  C_6
REMARK    3  A    between atoms: N_8  and  C_9
REMARK    4  A    between atoms: C_15  and  N_16
REMARK                            x       y       z     vdW  Elec       q    Type
REMARK                         _______ _______ _______ _____ _____    ______ ____
ROOT
ATOM      1  C   UNL     1       2.503   4.984  17.963  0.00  0.00    +0.000 A 
ATOM      2  C   UNL     1       1.485   4.107  18.362  0.00  0.00    +0.000 A 
ATOM      3  C   UNL     1       1.712   2.736  18.336  0.00  0.00    +0.000 A 
ATOM      4 CL   UNL     1       0.455   1.651  18.786  0.00  0.00    +0.000 Cl
ATOM      5  C   UNL     1       2.948   2.240  17.947  0.00  0.00    +0.000 A 
ATOM      6  C   UNL     1       3.968   3.127  17.583  0.00  0.00    +0.000 A 
ATOM      7  C   UNL     1       3.787   4.523  17.587  0.00  0.00    +0.000 A 
ENDROOT
BRANCH   7   8
ATOM      8  N   UNL     1       4.860   5.360  17.308  0.00  0.00    +0.000 N 
ATOM      9  C   UNL     1       5.132   5.833  15.949  0.00  0.00    +0.000 C 
ATOM     10  C   UNL     1       6.506   5.340  15.496  0.00  0.00    +0.000 C 
ATOM     11  C   UNL     1       7.590   5.745  16.493  0.00  0.00    +0.000 C 
ATOM     12  C   UNL     1       7.237   5.263  17.898  0.00  0.00    +0.000 C 
ATOM     13  C   UNL     1       5.845   5.727  18.326  0.00  0.00    +0.000 C 
ENDBRANCH   7   8
BRANCH   1  16
ATOM     14  C   UNL     1       2.211   7.096  19.175  0.00  0.00    +0.000 C 
ATOM     15  O   UNL     1       2.536   6.647  20.271  0.00  0.00    +0.000 OA
ATOM     16  N   UNL     1       2.199   6.358  18.009  0.00  0.00    +0.000 N 
ATOM     17  H   UNL     1       2.329   6.888  17.160  0.00  0.00    +0.000 HD
BRANCH  14  22
ATOM     18  C   UNL     1       0.423  12.072  19.814  0.00  0.00    +0.000 C 
ATOM     19  C   UNL     1       1.045  10.833  19.265  0.00  0.00    +0.000 A 
ATOM     20  C   UNL     1       1.718  10.658  18.075  0.00  0.00    +0.000 A 
ATOM     21  C   UNL     1       2.186   9.319  17.912  0.00  0.00    +0.000 A 
ATOM     22  C   UNL     1       1.860   8.507  18.984  0.00  0.00    +0.000 A 
ATOM     23  S   UNL     1       0.969   9.383  20.161  0.00  0.00    +0.000 S 
ENDBRANCH  14  22
ENDBRANCH   1  16
TORSDOF 3
ENDMDL
MODEL 7
REMARK VINA RESULT:      -6.4      3.354      6.203
REMARK  Name = 
REMARK  4 active torsions:
REMARK  status: ('A' for Active; 'I' for Inactive)
REMARK    1  A    between atoms: C_1  and  C_2
REMARK    2  A    between atoms: C_5  and  C_6
REMARK    3  A    between atoms: N_8  and  C_9
REMARK    4  A    between atoms: C_15  and  N_16
REMARK                            x       y       z     vdW  Elec       q    Type
REMARK                         _______ _______ _______ _____ _____    ______ ____
ROOT
ATOM      1  C   UNL     1       3.195   6.427  18.344  0.00  0.00    +0.000 A 
ATOM      2  C   UNL     1       4.049   6.904  17.340  0.00  0.00    +0.000 A 
ATOM      3  C   UNL     1       4.770   6.001  16.567  0.00  0.00    +0.000 A 
ATOM      4 CL   UNL     1       5.849   6.579  15.360  0.00  0.00    +0.000 Cl
ATOM      5  C   UNL     1       4.622   4.636  16.767  0.00  0.00    +0.000 A 
ATOM      6  C   UNL     1       3.740   4.170  17.750  0.00  0.00    +0.000 A 
ATOM      7  C   UNL     1       2.992   5.043  18.562  0.00  0.00    +0.000 A 
ENDROOT
BRANCH   7   8
ATOM      8  N   UNL     1       2.063   4.528  19.457  0.00  0.00    +0.000 N 
ATOM      9  C   UNL     1       2.074   4.896  20.875  0.00  0.00    +0.000 C 
ATOM     10  C   UNL     1       2.310   3.651  21.730  0.00  0.00    +0.000 C 
ATOM     11  C   UNL     1       1.287   2.565  21.409  0.00  0.00    +0.000 C 
ATOM     12  C   UNL     1       1.288   2.248  19.916  0.00  0.00    +0.000 C 
ATOM     13  C   UNL     1       1.092   3.505  19.068  0.00  0.00    +0.000 C 
ENDBRANCH   7   8
BRANCH   1  16
ATOM     14  C   UNL     1       1.940   8.526  18.527  0.00  0.00    +0.000 C 
ATOM     15  O   UNL     1       1.941   8.767  17.323  0.00  0.00    +0.000 OA
ATOM     16  N   UNL     1       2.502   7.398  19.091  0.00  0.00    +0.000 N 
ATOM     17  H   UNL     1       2.097   7.105  19.967  0.00  0.00    +0.000 HD
BRANCH  14  22
ATOM     18  C   UNL     1      -0.465  12.617  20.945  0.00  0.00    +0.000 C 
ATOM     19  C   UNL     1       0.138  11.288  20.638  0.00  0.00    +0.000 A 
ATOM     20  C   UNL     1       0.184  10.157  21.425  0.00  0.00    +0.000 A 
ATOM     21  C   UNL     1       0.837   9.070  20.769  0.00  0.00    +0.000 A 
ATOM     22  C   UNL     1       1.271   9.400  19.497  0.00  0.00    +0.000 A 
ATOM     23  S   UNL     1       0.897  11.034  19.131  0.00  0.00    +0.000 S 
ENDBRANCH  14  22
ENDBRANCH   1  16
TORSDOF 3
ENDMDL
MODEL 8
REMARK VINA RESULT:      -6.2      3.007      6.263
REMARK  Name = 
REMARK  4 active torsions:
REMARK  status: ('A' for Active; 'I' for Inactive)
REMARK    1  A    between atoms: C_1  and  C_2
REMARK    2  A    between atoms: C_5  and  C_6
REMARK    3  A    between atoms: N_8  and  C_9
REMARK    4  A    between atoms: C_15  and  N_16
REMARK                            x       y       z     vdW  Elec       q    Type
REMARK                         _______ _______ _______ _____ _____    ______ ____
ROOT
ATOM      1  C   UNL     1       2.551   5.099  18.584  0.00  0.00    +0.000 A 
ATOM      2  C   UNL     1       1.544   4.130  18.688  0.00  0.00    +0.000 A 
ATOM      3  C   UNL     1       1.843   2.799  18.421  0.00  0.00    +0.000 A 
ATOM      4 CL   UNL     1       0.605   1.609  18.508  0.00  0.00    +0.000 Cl
ATOM      5  C   UNL     1       3.137   2.428  18.084  0.00  0.00    +0.000 A 
ATOM      6  C   UNL     1       4.143   3.400  18.017  0.00  0.00    +0.000 A 
ATOM      7  C   UNL     1       3.890   4.762  18.272  0.00  0.00    +0.000 A 
ENDROOT
BRANCH   7   8
ATOM      8  N   UNL     1       4.941   5.669  18.283  0.00  0.00    +0.000 N 
ATOM      9  C   UNL     1       5.089   6.687  17.241  0.00  0.00    +0.000 C 
ATOM     10  C   UNL     1       6.407   6.478  16.497  0.00  0.00    +0.000 C 
ATOM     11  C   UNL     1       7.585   6.449  17.468  0.00  0.00    +0.000 C 
ATOM     12  C   UNL     1       7.362   5.401  18.554  0.00  0.00    +0.000 C 
ATOM     13  C   UNL     1       6.023   5.595  19.265  0.00  0.00    +0.000 C 
ENDBRANCH   7   8
BRANCH   1  16
ATOM     14  C   UNL     1       1.874   6.877  20.131  0.00  0.00    +0.000 C 
ATOM     15  O   UNL     1       1.957   6.188  21.144  0.00  0.00    +0.000 OA
ATOM     16  N   UNL     1       2.173   6.427  18.861  0.00  0.00    +0.000 N 
ATOM     17  H   UNL     1       2.470   7.138  18.209  0.00  0.00    +0.000 HD
BRANCH  14  22
ATOM     18  C   UNL     1       0.646  11.910  18.892  0.00  0.00    +0.000 C 
ATOM     19  C   UNL     1       0.917  10.641  19.627  0.00  0.00    +0.000 A 
ATOM     20  C   UNL     1       0.791  10.378  20.974  0.00  0.00    +0.000 A 
ATOM     21  C   UNL     1       1.130   9.029  21.295  0.00  0.00    +0.000 A 
ATOM     22  C   UNL     1       1.504   8.296  20.182  0.00  0.00    +0.000 A 
ATOM     23  S   UNL     1       1.458   9.268  18.769  0.00  0.00    +0.000 S 
ENDBRANCH  14  22
ENDBRANCH   1  16
TORSDOF 3
ENDMDL
MODEL 9
REMARK VINA RESULT:      -6.1      3.388      5.985
REMARK  Name = 
REMARK  4 active torsions:
REMARK  status: ('A' for Active; 'I' for Inactive)
REMARK    1  A    between atoms: C_1  and  C_2
REMARK    2  A    between atoms: C_5  and  C_6
REMARK    3  A    between atoms: N_8  and  C_9
REMARK    4  A    between atoms: C_15  and  N_16
REMARK                            x       y       z     vdW  Elec       q    Type
REMARK                         _______ _______ _______ _____ _____    ______ ____
ROOT
ATOM      1  C   UNL     1       3.597   6.609  18.164  0.00  0.00    +0.000 A 
ATOM      2  C   UNL     1       4.829   7.067  17.678  0.00  0.00    +0.000 A 
ATOM      3  C   UNL     1       5.930   6.218  17.692  0.00  0.00    +0.000 A 
ATOM      4 CL   UNL     1       7.454   6.784  17.134  0.00  0.00    +0.000 Cl
ATOM      5  C   UNL     1       5.802   4.917  18.158  0.00  0.00    +0.000 A 
ATOM      6  C   UNL     1       4.559   4.460  18.610  0.00  0.00    +0.000 A 
ATOM      7  C   UNL     1       3.415   5.281  18.621  0.00  0.00    +0.000 A 
ENDROOT
BRANCH   7   8
ATOM      8  N   UNL     1       2.186   4.751  18.991  0.00  0.00    +0.000 N 
ATOM      9  C   UNL     1       1.724   4.779  20.380  0.00  0.00    +0.000 C 
ATOM     10  C   UNL     1       1.528   3.351  20.889  0.00  0.00    +0.000 C 
ATOM     11  C   UNL     1       0.595   2.566  19.971  0.00  0.00    +0.000 C 
ATOM     12  C   UNL     1       1.101   2.601  18.531  0.00  0.00    +0.000 C 
ATOM     13  C   UNL     1       1.332   4.032  18.045  0.00  0.00    +0.000 C 
ENDBRANCH   7   8
BRANCH   1  16
ATOM     14  C   UNL     1       1.998   8.116  19.253  0.00  0.00    +0.000 C 
ATOM     15  O   UNL     1       2.434   7.946  20.389  0.00  0.00    +0.000 OA
ATOM     16  N   UNL     1       2.528   7.525  18.124  0.00  0.00    +0.000 N 
ATOM     17  H   UNL     1       2.386   8.032  17.263  0.00  0.00    +0.000 HD
BRANCH  14  22
ATOM     18  C   UNL     1      -1.878  11.750  19.633  0.00  0.00    +0.000 C 
ATOM     19  C   UNL     1      -0.912  10.733  19.125  0.00  0.00    +0.000 A 
ATOM     20  C   UNL     1      -0.713  10.300  17.832  0.00  0.00    +0.000 A 
ATOM     21  C   UNL     1       0.323   9.322  17.744  0.00  0.00    +0.000 A 
ATOM     22  C   UNL     1       0.890   9.035  18.974  0.00  0.00    +0.000 A 
ATOM     23  S   UNL     1       0.135   9.945  20.218  0.00  0.00    +0.000 S 
ENDBRANCH  14  22
ENDBRANCH   1  16
TORSDOF 3
ENDMDL
