MODEL 1
REMARK VINA RESULT:      -7.5      0.000      0.000
REMARK  Name = 
REMARK  4 active torsions:
REMARK  status: ('A' for Active; 'I' for Inactive)
REMARK    1  A    between atoms: C_1  and  C_2
REMARK    2  A    between atoms: C_4  and  N_5
REMARK    3  A    between atoms: N_5  and  C_6
REMARK    4  A    between atoms: C_6  and  C_7
REMARK                            x       y       z     vdW  Elec       q    Type
REMARK                         _______ _______ _______ _____ _____    ______ ____
ROOT
ATOM      1  C   UNL     1       8.027   7.504  18.304  0.00  0.00    +0.000 C 
ATOM      2  C   UNL     1       7.394   6.362  17.549  0.00  0.00    +0.000 A 
ATOM      3  C   UNL     1       6.534   5.421  18.332  0.00  0.00    +0.000 A 
ATOM      4  C   UNL     1       5.938   4.430  17.647  0.00  0.00    +0.000 A 
ATOM      5  N   UNL     1       6.183   4.334  16.253  0.00  0.00    +0.000 N 
ATOM      6  N   UNL     1       5.691   3.389  15.392  0.00  0.00    +0.000 NA
ATOM      7  C   UNL     1       6.232   3.711  14.214  0.00  0.00    +0.000 A 
ATOM      8  C   UNL     1       7.049   4.841  14.295  0.00  0.00    +0.000 A 
ATOM      9 BR   UNL     1       7.969   5.609  12.860  0.00  0.00    +0.000 Br
ATOM     10  C   UNL     1       7.028   5.243  15.607  0.00  0.00    +0.000 A 
ATOM     11  N   UNL     1       7.633   6.274  16.272  0.00  0.00    +0.000 NA
ENDROOT
BRANCH   4  12
ATOM     12  N   UNL     1       5.068   3.503  18.249  0.00  0.00    +0.000 N 
ATOM     13  H   UNL     1       5.287   3.510  19.253  0.00  0.00    +0.000 HD
BRANCH  12  14
ATOM     14  C   UNL     1       3.616   3.716  18.153  0.00  0.00    +0.000 C 
BRANCH  14  15
ATOM     15  C   UNL     1       2.875   3.366  19.416  0.00  0.00    +0.000 A 
ATOM     16  C   UNL     1       1.480   3.505  19.456  0.00  0.00    +0.000 A 
ATOM     17  C   UNL     1       0.775   3.165  20.608  0.00  0.00    +0.000 A 
ATOM     18  C   UNL     1       1.488   2.694  21.696  0.00  0.00    +0.000 A 
ATOM     19  N   UNL     1       2.830   2.550  21.703  0.00  0.00    +0.000 NA
ATOM     20  C   UNL     1       3.489   2.892  20.568  0.00  0.00    +0.000 A 
ENDBRANCH  14  15
ENDBRANCH  12  14
ENDBRANCH   4  12
TORSDOF 3
ENDMDL
MODEL 2
REMARK VINA RESULT:      -7.5      1.188      1.406
REMARK  Name = 
REMARK  4 active torsions:
REMARK  status: ('A' for Active; 'I' for Inactive)
REMARK    1  A    between atoms: C_1  and  C_2
REMARK    2  A    between atoms: C_4  and  N_5
REMARK    3  A    between atoms: N_5  and  C_6
REMARK    4  A    between atoms: C_6  and  C_7
REMARK                            x       y       z     vdW  Elec       q    Type
REMARK                         _______ _______ _______ _____ _____    ______ ____
ROOT
ATOM      1  C   UNL     1       8.062   8.035  17.991  0.00  0.00    +0.000 C 
ATOM      2  C   UNL     1       7.470   6.749  17.471  0.00  0.00    +0.000 A 
ATOM      3  C   UNL     1       6.801   5.855  18.467  0.00  0.00    +0.000 A 
ATOM      4  C   UNL     1       6.238   4.731  17.991  0.00  0.00    +0.000 A 
ATOM      5  N   UNL     1       6.340   4.463  16.602  0.00  0.00    +0.000 N 
ATOM      6  N   UNL     1       5.857   3.369  15.934  0.00  0.00    +0.000 NA
ATOM      7  C   UNL     1       6.231   3.570  14.668  0.00  0.00    +0.000 A 
ATOM      8  C   UNL     1       6.932   4.767  14.504  0.00  0.00    +0.000 A 
ATOM      9 BR   UNL     1       7.608   5.405  12.883  0.00  0.00    +0.000 Br
ATOM     10  C   UNL     1       7.012   5.343  15.747  0.00  0.00    +0.000 A 
ATOM     11  N   UNL     1       7.578   6.506  16.196  0.00  0.00    +0.000 NA
ENDROOT
BRANCH   4  12
ATOM     12  N   UNL     1       5.539   3.824  18.808  0.00  0.00    +0.000 N 
ATOM     13  H   UNL     1       6.230   3.421  19.453  0.00  0.00    +0.000 HD
BRANCH  12  14
ATOM     14  C   UNL     1       4.442   4.322  19.653  0.00  0.00    +0.000 C 
BRANCH  14  15
ATOM     15  C   UNL     1       3.118   3.668  19.360  0.00  0.00    +0.000 A 
ATOM     16  C   UNL     1       2.031   3.903  20.215  0.00  0.00    +0.000 A 
ATOM     17  C   UNL     1       0.792   3.325  19.948  0.00  0.00    +0.000 A 
ATOM     18  C   UNL     1       0.674   2.523  18.827  0.00  0.00    +0.000 A 
ATOM     19  N   UNL     1       1.692   2.266  17.981  0.00  0.00    +0.000 NA
ATOM     20  C   UNL     1       2.888   2.840  18.269  0.00  0.00    +0.000 A 
ENDBRANCH  14  15
ENDBRANCH  12  14
ENDBRANCH   4  12
TORSDOF 3
ENDMDL
MODEL 3
REMARK VINA RESULT:      -7.2      1.696      2.910
REMARK  Name = 
REMARK  4 active torsions:
REMARK  status: ('A' for Active; 'I' for Inactive)
REMARK    1  A    between atoms: C_1  and  C_2
REMARK    2  A    between atoms: C_4  and  N_5
REMARK    3  A    between atoms: N_5  and  C_6
REMARK    4  A    between atoms: C_6  and  C_7
REMARK                            x       y       z     vdW  Elec       q    Type
REMARK                         _______ _______ _______ _____ _____    ______ ____
ROOT
ATOM      1  C   UNL     1       6.510   4.683  13.455  0.00  0.00    +0.000 C 
ATOM      2  C   UNL     1       6.285   4.693  14.947  0.00  0.00    +0.000 A 
ATOM      3  C   UNL     1       5.467   3.579  15.521  0.00  0.00    +0.000 A 
ATOM      4  C   UNL     1       5.306   3.570  16.855  0.00  0.00    +0.000 A 
ATOM      5  N   UNL     1       5.894   4.616  17.611  0.00  0.00    +0.000 N 
ATOM      6  N   UNL     1       5.824   4.794  18.968  0.00  0.00    +0.000 NA
ATOM      7  C   UNL     1       6.505   5.923  19.182  0.00  0.00    +0.000 A 
ATOM      8  C   UNL     1       7.015   6.468  18.002  0.00  0.00    +0.000 A 
ATOM      9 BR   UNL     1       8.031   8.033  17.892  0.00  0.00    +0.000 Br
ATOM     10  C   UNL     1       6.620   5.635  16.986  0.00  0.00    +0.000 A 
ATOM     11  N   UNL     1       6.819   5.663  15.632  0.00  0.00    +0.000 NA
ENDROOT
BRANCH   4  12
ATOM     12  N   UNL     1       4.599   2.558  17.530  0.00  0.00    +0.000 N 
ATOM     13  H   UNL     1       4.971   2.533  18.487  0.00  0.00    +0.000 HD
BRANCH  12  14
ATOM     14  C   UNL     1       3.139   2.676  17.668  0.00  0.00    +0.000 C 
BRANCH  14  15
ATOM     15  C   UNL     1       2.684   2.814  19.096  0.00  0.00    +0.000 A 
ATOM     16  C   UNL     1       1.403   3.320  19.365  0.00  0.00    +0.000 A 
ATOM     17  C   UNL     1       0.956   3.434  20.679  0.00  0.00    +0.000 A 
ATOM     18  C   UNL     1       1.806   3.038  21.695  0.00  0.00    +0.000 A 
ATOM     19  N   UNL     1       3.046   2.551  21.484  0.00  0.00    +0.000 NA
ATOM     20  C   UNL     1       3.456   2.454  20.194  0.00  0.00    +0.000 A 
ENDBRANCH  14  15
ENDBRANCH  12  14
ENDBRANCH   4  12
TORSDOF 3
ENDMDL
MODEL 4
REMARK VINA RESULT:      -7.2      0.891      1.209
REMARK  Name = 
REMARK  4 active torsions:
REMARK  status: ('A' for Active; 'I' for Inactive)
REMARK    1  A    between atoms: C_1  and  C_2
REMARK    2  A    between atoms: C_4  and  N_5
REMARK    3  A    between atoms: N_5  and  C_6
REMARK    4  A    between atoms: C_6  and  C_7
REMARK                            x       y       z     vdW  Elec       q    Type
REMARK                         _______ _______ _______ _____ _____    ______ ____
ROOT
ATOM      1  C   UNL     1       7.896   7.508  18.158  0.00  0.00    +0.000 C 
ATOM      2  C   UNL     1       7.299   6.368  17.370  0.00  0.00    +0.000 A 
ATOM      3  C   UNL     1       6.411   5.418  18.111  0.00  0.00    +0.000 A 
ATOM      4  C   UNL     1       5.849   4.430  17.395  0.00  0.00    +0.000 A 
ATOM      5  N   UNL     1       6.152   4.344  16.012  0.00  0.00    +0.000 N 
ATOM      6  N   UNL     1       5.700   3.402  15.125  0.00  0.00    +0.000 NA
ATOM      7  C   UNL     1       6.288   3.735  13.972  0.00  0.00    +0.000 A 
ATOM      8  C   UNL     1       7.096   4.867  14.095  0.00  0.00    +0.000 A 
ATOM      9 BR   UNL     1       8.071   5.649  12.704  0.00  0.00    +0.000 Br
ATOM     10  C   UNL     1       7.019   5.260  15.407  0.00  0.00    +0.000 A 
ATOM     11  N   UNL     1       7.592   6.290  16.103  0.00  0.00    +0.000 NA
ENDROOT
BRANCH   4  12
ATOM     12  N   UNL     1       4.959   3.495  17.955  0.00  0.00    +0.000 N 
ATOM     13  H   UNL     1       5.309   2.566  17.689  0.00  0.00    +0.000 HD
BRANCH  12  14
ATOM     14  C   UNL     1       4.787   3.458  19.416  0.00  0.00    +0.000 C 
BRANCH  14  15
ATOM     15  C   UNL     1       3.349   3.341  19.845  0.00  0.00    +0.000 A 
ATOM     16  C   UNL     1       3.048   2.789  21.099  0.00  0.00    +0.000 A 
ATOM     17  C   UNL     1       1.724   2.693  21.523  0.00  0.00    +0.000 A 
ATOM     18  C   UNL     1       0.732   3.153  20.676  0.00  0.00    +0.000 A 
ATOM     19  N   UNL     1       0.975   3.685  19.461  0.00  0.00    +0.000 NA
ATOM     20  C   UNL     1       2.273   3.763  19.073  0.00  0.00    +0.000 A 
ENDBRANCH  14  15
ENDBRANCH  12  14
ENDBRANCH   4  12
TORSDOF 3
ENDMDL
MODEL 5
REMARK VINA RESULT:      -7.1      3.342      6.534
REMARK  Name = 
REMARK  4 active torsions:
REMARK  status: ('A' for Active; 'I' for Inactive)
REMARK    1  A    between atoms: C_1  and  C_2
REMARK    2  A    between atoms: C_4  and  N_5
REMARK    3  A    between atoms: N_5  and  C_6
REMARK    4  A    between atoms: C_6  and  C_7
REMARK                            x       y       z     vdW  Elec       q    Type
REMARK                         _______ _______ _______ _____ _____    ______ ____
ROOT
ATOM      1  C   UNL     1       1.559   2.666  21.560  0.00  0.00    +0.000 C 
ATOM      2  C   UNL     1       1.940   3.753  20.586  0.00  0.00    +0.000 A 
ATOM      3  C   UNL     1       2.578   3.326  19.303  0.00  0.00    +0.000 A 
ATOM      4  C   UNL     1       2.876   4.295  18.421  0.00  0.00    +0.000 A 
ATOM      5  N   UNL     1       2.591   5.638  18.776  0.00  0.00    +0.000 N 
ATOM      6  N   UNL     1       2.840   6.760  18.029  0.00  0.00    +0.000 NA
ATOM      7  C   UNL     1       2.423   7.765  18.805  0.00  0.00    +0.000 A 
ATOM      8  C   UNL     1       1.907   7.317  20.023  0.00  0.00    +0.000 A 
ATOM      9 BR   UNL     1       1.215   8.416  21.367  0.00  0.00    +0.000 Br
ATOM     10  C   UNL     1       2.019   5.949  20.014  0.00  0.00    +0.000 A 
ATOM     11  N   UNL     1       1.685   4.985  20.925  0.00  0.00    +0.000 NA
ENDROOT
BRANCH   4  12
ATOM     12  N   UNL     1       3.437   4.030  17.158  0.00  0.00    +0.000 N 
ATOM     13  H   UNL     1       3.401   4.913  16.633  0.00  0.00    +0.000 HD
BRANCH  12  14
ATOM     14  C   UNL     1       4.832   3.570  17.078  0.00  0.00    +0.000 C 
BRANCH  14  15
ATOM     15  C   UNL     1       5.837   4.665  17.316  0.00  0.00    +0.000 A 
ATOM     16  C   UNL     1       6.287   4.914  18.621  0.00  0.00    +0.000 A 
ATOM     17  C   UNL     1       7.233   5.909  18.858  0.00  0.00    +0.000 A 
ATOM     18  C   UNL     1       7.706   6.632  17.778  0.00  0.00    +0.000 A 
ATOM     19  N   UNL     1       7.298   6.431  16.509  0.00  0.00    +0.000 NA
ATOM     20  C   UNL     1       6.373   5.458  16.309  0.00  0.00    +0.000 A 
ENDBRANCH  14  15
ENDBRANCH  12  14
ENDBRANCH   4  12
TORSDOF 3
ENDMDL
MODEL 6
REMARK VINA RESULT:      -7.1      3.159      6.095
REMARK  Name = 
REMARK  4 active torsions:
REMARK  status: ('A' for Active; 'I' for Inactive)
REMARK    1  A    between atoms: C_1  and  C_2
REMARK    2  A    between atoms: C_4  and  N_5
REMARK    3  A    between atoms: N_5  and  C_6
REMARK    4  A    between atoms: C_6  and  C_7
REMARK                            x       y       z     vdW  Elec       q    Type
REMARK                         _______ _______ _______ _____ _____    ______ ____
ROOT
ATOM      1  C   UNL     1       2.397   7.739  18.728  0.00  0.00    +0.000 C 
ATOM      2  C   UNL     1       2.796   6.299  18.520  0.00  0.00    +0.000 A 
ATOM      3  C   UNL     1       3.625   5.989  17.313  0.00  0.00    +0.000 A 
ATOM      4  C   UNL     1       4.013   4.712  17.155  0.00  0.00    +0.000 A 
ATOM      5  N   UNL     1       3.593   3.758  18.117  0.00  0.00    +0.000 N 
ATOM      6  N   UNL     1       3.863   2.414  18.119  0.00  0.00    +0.000 NA
ATOM      7  C   UNL     1       3.228   1.958  19.202  0.00  0.00    +0.000 A 
ATOM      8  C   UNL     1       2.567   2.972  19.898  0.00  0.00    +0.000 A 
ATOM      9 BR   UNL     1       1.580   2.734  21.468  0.00  0.00    +0.000 Br
ATOM     10  C   UNL     1       2.792   4.133  19.201  0.00  0.00    +0.000 A 
ATOM     11  N   UNL     1       2.397   5.428  19.401  0.00  0.00    +0.000 NA
ENDROOT
BRANCH   4  12
ATOM     12  N   UNL     1       4.831   4.290  16.092  0.00  0.00    +0.000 N 
ATOM     13  H   UNL     1       4.748   5.007  15.360  0.00  0.00    +0.000 HD
BRANCH  12  14
ATOM     14  C   UNL     1       6.274   4.117  16.324  0.00  0.00    +0.000 C 
BRANCH  14  15
ATOM     15  C   UNL     1       6.903   5.270  17.059  0.00  0.00    +0.000 A 
ATOM     16  C   UNL     1       7.383   5.074  18.363  0.00  0.00    +0.000 A 
ATOM     17  C   UNL     1       7.989   6.123  19.050  0.00  0.00    +0.000 A 
ATOM     18  C   UNL     1       8.098   7.346  18.414  0.00  0.00    +0.000 A 
ATOM     19  N   UNL     1       7.646   7.580  17.164  0.00  0.00    +0.000 NA
ATOM     20  C   UNL     1       7.058   6.541  16.520  0.00  0.00    +0.000 A 
ENDBRANCH  14  15
ENDBRANCH  12  14
ENDBRANCH   4  12
TORSDOF 3
ENDMDL
MODEL 7
REMARK VINA RESULT:      -7.1      1.077      1.321
REMARK  Name = 
REMARK  4 active torsions:
REMARK  status: ('A' for Active; 'I' for Inactive)
REMARK    1  A    between atoms: C_1  and  C_2
REMARK    2  A    between atoms: C_4  and  N_5
REMARK    3  A    between atoms: N_5  and  C_6
REMARK    4  A    between atoms: C_6  and  C_7
REMARK                            x       y       z     vdW  Elec       q    Type
REMARK                         _______ _______ _______ _____ _____    ______ ____
ROOT
ATOM      1  C   UNL     1       8.158   8.238  17.919  0.00  0.00    +0.000 C 
ATOM      2  C   UNL     1       7.499   6.943  17.515  0.00  0.00    +0.000 A 
ATOM      3  C   UNL     1       6.788   6.177  18.585  0.00  0.00    +0.000 A 
ATOM      4  C   UNL     1       6.167   5.045  18.211  0.00  0.00    +0.000 A 
ATOM      5  N   UNL     1       6.251   4.650  16.852  0.00  0.00    +0.000 N 
ATOM      6  N   UNL     1       5.709   3.526  16.284  0.00  0.00    +0.000 NA
ATOM      7  C   UNL     1       6.089   3.594  15.005  0.00  0.00    +0.000 A 
ATOM      8  C   UNL     1       6.850   4.734  14.737  0.00  0.00    +0.000 A 
ATOM      9 BR   UNL     1       7.553   5.189  13.065  0.00  0.00    +0.000 Br
ATOM     10  C   UNL     1       6.964   5.414  15.923  0.00  0.00    +0.000 A 
ATOM     11  N   UNL     1       7.590   6.581  16.267  0.00  0.00    +0.000 NA
ENDROOT
BRANCH   4  12
ATOM     12  N   UNL     1       5.424   4.252  19.105  0.00  0.00    +0.000 N 
ATOM     13  H   UNL     1       6.082   3.937  19.829  0.00  0.00    +0.000 HD
BRANCH  12  14
ATOM     14  C   UNL     1       4.292   4.856  19.825  0.00  0.00    +0.000 C 
BRANCH  14  15
ATOM     15  C   UNL     1       3.003   4.098  19.653  0.00  0.00    +0.000 A 
ATOM     16  C   UNL     1       2.497   3.885  18.362  0.00  0.00    +0.000 A 
ATOM     17  C   UNL     1       1.317   3.166  18.181  0.00  0.00    +0.000 A 
ATOM     18  C   UNL     1       0.671   2.679  19.302  0.00  0.00    +0.000 A 
ATOM     19  N   UNL     1       1.117   2.864  20.562  0.00  0.00    +0.000 NA
ATOM     20  C   UNL     1       2.267   3.570  20.707  0.00  0.00    +0.000 A 
ENDBRANCH  14  15
ENDBRANCH  12  14
ENDBRANCH   4  12
TORSDOF 3
ENDMDL
MODEL 8
REMARK VINA RESULT:      -7.0      1.974      3.119
REMARK  Name = 
REMARK  4 active torsions:
REMARK  status: ('A' for Active; 'I' for Inactive)
REMARK    1  A    between atoms: C_1  and  C_2
REMARK    2  A    between atoms: C_4  and  N_5
REMARK    3  A    between atoms: N_5  and  C_6
REMARK    4  A    between atoms: C_6  and  C_7
REMARK                            x       y       z     vdW  Elec       q    Type
REMARK                         _______ _______ _______ _____ _____    ______ ____
ROOT
ATOM      1  C   UNL     1       6.941   4.762  13.553  0.00  0.00    +0.000 C 
ATOM      2  C   UNL     1       6.593   4.714  15.020  0.00  0.00    +0.000 A 
ATOM      3  C   UNL     1       5.655   3.635  15.463  0.00  0.00    +0.000 A 
ATOM      4  C   UNL     1       5.382   3.571  16.778  0.00  0.00    +0.000 A 
ATOM      5  N   UNL     1       5.973   4.533  17.636  0.00  0.00    +0.000 N 
ATOM      6  N   UNL     1       5.801   4.647  18.990  0.00  0.00    +0.000 NA
ATOM      7  C   UNL     1       6.536   5.713  19.321  0.00  0.00    +0.000 A 
ATOM      8  C   UNL     1       7.180   6.278  18.218  0.00  0.00    +0.000 A 
ATOM      9 BR   UNL     1       8.306   7.769  18.277  0.00  0.00    +0.000 Br
ATOM     10  C   UNL     1       6.816   5.527  17.129  0.00  0.00    +0.000 A 
ATOM     11  N   UNL     1       7.131   5.608  15.799  0.00  0.00    +0.000 NA
ENDROOT
BRANCH   4  12
ATOM     12  N   UNL     1       4.553   2.580  17.336  0.00  0.00    +0.000 N 
ATOM     13  H   UNL     1       4.759   2.563  18.342  0.00  0.00    +0.000 HD
BRANCH  12  14
ATOM     14  C   UNL     1       3.093   2.724  17.226  0.00  0.00    +0.000 C 
BRANCH  14  15
ATOM     15  C   UNL     1       2.445   3.218  18.492  0.00  0.00    +0.000 A 
ATOM     16  C   UNL     1       2.002   2.290  19.446  0.00  0.00    +0.000 A 
ATOM     17  C   UNL     1       1.420   2.728  20.633  0.00  0.00    +0.000 A 
ATOM     18  C   UNL     1       1.295   4.091  20.835  0.00  0.00    +0.000 A 
ATOM     19  N   UNL     1       1.702   5.018  19.944  0.00  0.00    +0.000 NA
ATOM     20  C   UNL     1       2.262   4.561  18.796  0.00  0.00    +0.000 A 
ENDBRANCH  14  15
ENDBRANCH  12  14
ENDBRANCH   4  12
TORSDOF 3
ENDMDL
MODEL 9
REMARK VINA RESULT:      -7.0      2.282      2.970
REMARK  Name = 
REMARK  4 active torsions:
REMARK  status: ('A' for Active; 'I' for Inactive)
REMARK    1  A    between atoms: C_1  and  C_2
REMARK    2  A    between atoms: C_4  and  N_5
REMARK    3  A    between atoms: N_5  and  C_6
REMARK    4  A    between atoms: C_6  and  C_7
REMARK                            x       y       z     vdW  Elec       q    Type
REMARK                         _______ _______ _______ _____ _____    ______ ____
ROOT
ATOM      1  C   UNL     1       2.060   7.940  18.732  0.00  0.00    +0.000 C 
ATOM      2  C   UNL     1       3.018   6.896  18.215  0.00  0.00    +0.000 A 
ATOM      3  C   UNL     1       2.452   5.547  17.903  0.00  0.00    +0.000 A 
ATOM      4  C   UNL     1       3.303   4.633  17.403  0.00  0.00    +0.000 A 
ATOM      5  N   UNL     1       4.662   5.000  17.235  0.00  0.00    +0.000 N 
ATOM      6  N   UNL     1       5.678   4.210  16.766  0.00  0.00    +0.000 NA
ATOM      7  C   UNL     1       6.755   4.998  16.825  0.00  0.00    +0.000 A 
ATOM      8  C   UNL     1       6.455   6.273  17.310  0.00  0.00    +0.000 A 
ATOM      9 BR   UNL     1       7.689   7.660  17.526  0.00  0.00    +0.000 Br
ATOM     10  C   UNL     1       5.110   6.279  17.582  0.00  0.00    +0.000 A 
ATOM     11  N   UNL     1       4.267   7.238  18.074  0.00  0.00    +0.000 NA
ENDROOT
BRANCH   4  12
ATOM     12  N   UNL     1       2.896   3.341  17.025  0.00  0.00    +0.000 N 
ATOM     13  H   UNL     1       3.382   3.129  16.144  0.00  0.00    +0.000 HD
BRANCH  12  14
ATOM     14  C   UNL     1       3.178   2.210  17.922  0.00  0.00    +0.000 C 
BRANCH  14  15
ATOM     15  C   UNL     1       2.684   2.426  19.328  0.00  0.00    +0.000 A 
ATOM     16  C   UNL     1       1.314   2.627  19.553  0.00  0.00    +0.000 A 
ATOM     17  C   UNL     1       0.835   2.806  20.848  0.00  0.00    +0.000 A 
ATOM     18  C   UNL     1       1.744   2.780  21.890  0.00  0.00    +0.000 A 
ATOM     19  N   UNL     1       3.070   2.594  21.720  0.00  0.00    +0.000 NA
ATOM     20  C   UNL     1       3.507   2.426  20.447  0.00  0.00    +0.000 A 
ENDBRANCH  14  15
ENDBRANCH  12  14
ENDBRANCH   4  12
TORSDOF 3
ENDMDL
