MODEL 1
REMARK VINA RESULT:      -8.0      0.000      0.000
REMARK  Name = 
REMARK  8 active torsions:
REMARK  status: ('A' for Active; 'I' for Inactive)
REMARK    1  A    between atoms: C_1  and  O_2
REMARK    2  A    between atoms: O_2  and  C_3
REMARK    3  A    between atoms: C_7  and  N_8
REMARK    4  A    between atoms: C_14  and  C_15
REMARK    5  A    between atoms: N_17  and  C_18
REMARK    6  A    between atoms: C_18  and  C_19
REMARK    7  A    between atoms: C_19  and  C_20
REMARK    8  A    between atoms: C_20  and  N_21
REMARK                            x       y       z     vdW  Elec       q    Type
REMARK                         _______ _______ _______ _____ _____    ______ ____
ROOT
ATOM      1  N   UNL     1       0.008  10.333  21.121  0.00  0.00    +0.000 N 
ATOM      2  C   UNL     1       0.051   9.057  21.698  0.00  0.00    +0.000 A 
ATOM      3  O   UNL     1      -0.910   8.410  22.108  0.00  0.00    +0.000 OA
ATOM      4  N   UNL     1       1.284   8.425  21.609  0.00  0.00    +0.000 N 
ATOM      5  C   UNL     1       1.802   8.366  20.305  0.00  0.00    +0.000 A 
ATOM      6  C   UNL     1       2.527   7.256  19.901  0.00  0.00    +0.000 A 
ATOM      7  C   UNL     1       2.831   7.060  18.541  0.00  0.00    +0.000 A 
ATOM      8  C   UNL     1       2.379   8.008  17.607  0.00  0.00    +0.000 A 
ATOM      9  C   UNL     1       1.716   9.176  18.044  0.00  0.00    +0.000 A 
ATOM     10  C   UNL     1       1.442   9.349  19.403  0.00  0.00    +0.000 A 
ATOM     11  C   UNL     1       0.793  10.554  19.971  0.00  0.00    +0.000 A 
ATOM     12  O   UNL     1       1.041  11.615  19.407  0.00  0.00    +0.000 OA
ATOM     13  H   UNL     1       1.954   8.860  22.237  0.00  0.00    +0.000 HD
ENDROOT
BRANCH   1  18
ATOM     14  C   UNL     1      -3.051  12.571  21.020  0.00  0.00    +0.000 A 
ATOM     15  C   UNL     1      -3.265  12.798  22.375  0.00  0.00    +0.000 A 
ATOM     16  C   UNL     1      -2.343  12.337  23.305  0.00  0.00    +0.000 A 
ATOM     17  C   UNL     1      -1.230  11.606  22.879  0.00  0.00    +0.000 A 
ATOM     18  C   UNL     1      -1.036  11.264  21.526  0.00  0.00    +0.000 A 
ATOM     19  C   UNL     1      -1.937  11.828  20.608  0.00  0.00    +0.000 A 
BRANCH  14  21
ATOM     20  C   UNL     1      -4.963  13.964  20.789  0.00  0.00    +0.000 C 
ATOM     21  O   UNL     1      -3.999  13.105  20.187  0.00  0.00    +0.000 OA
ENDBRANCH  14  21
ENDBRANCH   1  18
BRANCH   7  22
ATOM     22  C   UNL     1       3.608   5.822  18.235  0.00  0.00    +0.000 C 
ATOM     23  O   UNL     1       4.728   5.689  18.741  0.00  0.00    +0.000 OA
ATOM     24  N   UNL     1       3.115   4.850  17.374  0.00  0.00    +0.000 N 
ATOM     25  H   UNL     1       2.219   4.951  16.915  0.00  0.00    +0.000 HD
BRANCH  24  26
ATOM     26  C   UNL     1       4.002   3.744  17.027  0.00  0.00    +0.000 C 
BRANCH  26  27
ATOM     27  C   UNL     1       3.661   2.399  17.670  0.00  0.00    +0.000 C 
BRANCH  27  28
ATOM     28  C   UNL     1       2.161   2.339  18.049  0.00  0.00    +0.000 C 
BRANCH  28  29
ATOM     29  N   UNL     1       1.903   2.062  19.475  0.00  0.00    +0.000 NA
ATOM     30  C   UNL     1       0.630   2.664  19.926  0.00  0.00    +0.000 C 
ATOM     31  C   UNL     1       0.997   4.050  20.421  0.00  0.00    +0.000 C 
ATOM     32  C   UNL     1       2.342   3.830  21.078  0.00  0.00    +0.000 C 
ATOM     33  C   UNL     1       2.924   2.600  20.387  0.00  0.00    +0.000 C 
ENDBRANCH  28  29
ENDBRANCH  27  28
ENDBRANCH  26  27
ENDBRANCH  24  26
ENDBRANCH   7  22
TORSDOF 7
ENDMDL
MODEL 2
REMARK VINA RESULT:      -7.7      0.861      1.079
REMARK  Name = 
REMARK  8 active torsions:
REMARK  status: ('A' for Active; 'I' for Inactive)
REMARK    1  A    between atoms: C_1  and  O_2
REMARK    2  A    between atoms: O_2  and  C_3
REMARK    3  A    between atoms: C_7  and  N_8
REMARK    4  A    between atoms: C_14  and  C_15
REMARK    5  A    between atoms: N_17  and  C_18
REMARK    6  A    between atoms: C_18  and  C_19
REMARK    7  A    between atoms: C_19  and  C_20
REMARK    8  A    between atoms: C_20  and  N_21
REMARK                            x       y       z     vdW  Elec       q    Type
REMARK                         _______ _______ _______ _____ _____    ______ ____
ROOT
ATOM      1  N   UNL     1       0.025  10.206  21.150  0.00  0.00    +0.000 N 
ATOM      2  C   UNL     1       0.074   8.908  21.675  0.00  0.00    +0.000 A 
ATOM      3  O   UNL     1      -0.885   8.239  22.054  0.00  0.00    +0.000 OA
ATOM      4  N   UNL     1       1.311   8.287  21.566  0.00  0.00    +0.000 N 
ATOM      5  C   UNL     1       1.835   8.284  20.264  0.00  0.00    +0.000 A 
ATOM      6  C   UNL     1       2.569   7.195  19.818  0.00  0.00    +0.000 A 
ATOM      7  C   UNL     1       2.880   7.056  18.453  0.00  0.00    +0.000 A 
ATOM      8  C   UNL     1       2.427   8.039  17.556  0.00  0.00    +0.000 A 
ATOM      9  C   UNL     1       1.754   9.184  18.037  0.00  0.00    +0.000 A 
ATOM     10  C   UNL     1       1.473   9.301  19.401  0.00  0.00    +0.000 A 
ATOM     11  C   UNL     1       0.815  10.478  20.014  0.00  0.00    +0.000 A 
ATOM     12  O   UNL     1       1.058  11.563  19.495  0.00  0.00    +0.000 OA
ATOM     13  H   UNL     1       1.975   8.700  22.215  0.00  0.00    +0.000 HD
ENDROOT
BRANCH   1  18
ATOM     14  C   UNL     1      -2.959  12.543  21.096  0.00  0.00    +0.000 A 
ATOM     15  C   UNL     1      -3.281  12.603  22.447  0.00  0.00    +0.000 A 
ATOM     16  C   UNL     1      -2.452  11.996  23.380  0.00  0.00    +0.000 A 
ATOM     17  C   UNL     1      -1.324  11.287  22.954  0.00  0.00    +0.000 A 
ATOM     18  C   UNL     1      -1.027  11.113  21.587  0.00  0.00    +0.000 A 
ATOM     19  C   UNL     1      -1.833  11.820  20.682  0.00  0.00    +0.000 A 
BRANCH  14  21
ATOM     20  C   UNL     1      -4.351  14.439  20.756  0.00  0.00    +0.000 C 
ATOM     21  O   UNL     1      -3.821  13.211  20.266  0.00  0.00    +0.000 OA
ENDBRANCH  14  21
ENDBRANCH   1  18
BRANCH   7  22
ATOM     22  C   UNL     1       3.666   5.837  18.101  0.00  0.00    +0.000 C 
ATOM     23  O   UNL     1       3.621   5.421  16.937  0.00  0.00    +0.000 OA
ATOM     24  N   UNL     1       4.409   5.152  19.055  0.00  0.00    +0.000 N 
ATOM     25  H   UNL     1       4.433   5.448  20.022  0.00  0.00    +0.000 HD
BRANCH  24  26
ATOM     26  C   UNL     1       5.031   3.896  18.649  0.00  0.00    +0.000 C 
BRANCH  26  27
ATOM     27  C   UNL     1       4.220   2.633  18.941  0.00  0.00    +0.000 C 
BRANCH  27  28
ATOM     28  C   UNL     1       3.799   2.586  20.430  0.00  0.00    +0.000 C 
BRANCH  28  29
ATOM     29  N   UNL     1       2.372   2.287  20.651  0.00  0.00    +0.000 NA
ATOM     30  C   UNL     1       1.642   2.135  19.375  0.00  0.00    +0.000 C 
ATOM     31  C   UNL     1       1.138   3.525  19.035  0.00  0.00    +0.000 C 
ATOM     32  C   UNL     1       0.773   4.094  20.389  0.00  0.00    +0.000 C 
ATOM     33  C   UNL     1       1.644   3.334  21.386  0.00  0.00    +0.000 C 
ENDBRANCH  28  29
ENDBRANCH  27  28
ENDBRANCH  26  27
ENDBRANCH  24  26
ENDBRANCH   7  22
TORSDOF 7
ENDMDL
MODEL 3
REMARK VINA RESULT:      -7.6      1.016      1.486
REMARK  Name = 
REMARK  8 active torsions:
REMARK  status: ('A' for Active; 'I' for Inactive)
REMARK    1  A    between atoms: C_1  and  O_2
REMARK    2  A    between atoms: O_2  and  C_3
REMARK    3  A    between atoms: C_7  and  N_8
REMARK    4  A    between atoms: C_14  and  C_15
REMARK    5  A    between atoms: N_17  and  C_18
REMARK    6  A    between atoms: C_18  and  C_19
REMARK    7  A    between atoms: C_19  and  C_20
REMARK    8  A    between atoms: C_20  and  N_21
REMARK                            x       y       z     vdW  Elec       q    Type
REMARK                         _______ _______ _______ _____ _____    ______ ____
ROOT
ATOM      1  N   UNL     1      -0.091  10.283  20.825  0.00  0.00    +0.000 N 
ATOM      2  C   UNL     1      -0.095   8.999  21.385  0.00  0.00    +0.000 A 
ATOM      3  O   UNL     1      -1.087   8.350  21.712  0.00  0.00    +0.000 OA
ATOM      4  N   UNL     1       1.139   8.363  21.381  0.00  0.00    +0.000 N 
ATOM      5  C   UNL     1       1.754   8.321  20.119  0.00  0.00    +0.000 A 
ATOM      6  C   UNL     1       2.505   7.213  19.755  0.00  0.00    +0.000 A 
ATOM      7  C   UNL     1       2.910   7.036  18.419  0.00  0.00    +0.000 A 
ATOM      8  C   UNL     1       2.534   7.999  17.468  0.00  0.00    +0.000 A 
ATOM      9  C   UNL     1       1.843   9.164  17.870  0.00  0.00    +0.000 A 
ATOM     10  C   UNL     1       1.467   9.318  19.208  0.00  0.00    +0.000 A 
ATOM     11  C   UNL     1       0.781  10.518  19.742  0.00  0.00    +0.000 A 
ATOM     12  O   UNL     1       1.073  11.586  19.215  0.00  0.00    +0.000 OA
ATOM     13  H   UNL     1       1.760   8.786  22.064  0.00  0.00    +0.000 HD
ENDROOT
BRANCH   1  18
ATOM     14  C   UNL     1      -2.390  12.550  22.814  0.00  0.00    +0.000 A 
ATOM     15  C   UNL     1      -3.005  13.271  21.796  0.00  0.00    +0.000 A 
ATOM     16  C   UNL     1      -2.773  12.928  20.471  0.00  0.00    +0.000 A 
ATOM     17  C   UNL     1      -1.884  11.893  20.165  0.00  0.00    +0.000 A 
ATOM     18  C   UNL     1      -1.160  11.212  21.164  0.00  0.00    +0.000 A 
ATOM     19  C   UNL     1      -1.494  11.522  22.492  0.00  0.00    +0.000 A 
BRANCH  14  21
ATOM     20  C   UNL     1      -4.047  12.650  24.514  0.00  0.00    +0.000 C 
ATOM     21  O   UNL     1      -2.722  12.943  24.083  0.00  0.00    +0.000 OA
ENDBRANCH  14  21
ENDBRANCH   1  18
BRANCH   7  22
ATOM     22  C   UNL     1       3.704   5.800  18.155  0.00  0.00    +0.000 C 
ATOM     23  O   UNL     1       4.863   5.740  18.585  0.00  0.00    +0.000 OA
ATOM     24  N   UNL     1       3.183   4.747  17.413  0.00  0.00    +0.000 N 
ATOM     25  H   UNL     1       2.253   4.786  17.017  0.00  0.00    +0.000 HD
BRANCH  24  26
ATOM     26  C   UNL     1       4.080   3.642  17.090  0.00  0.00    +0.000 C 
BRANCH  26  27
ATOM     27  C   UNL     1       3.755   2.310  17.767  0.00  0.00    +0.000 C 
BRANCH  27  28
ATOM     28  C   UNL     1       3.918   2.424  19.303  0.00  0.00    +0.000 C 
BRANCH  28  29
ATOM     29  N   UNL     1       2.738   1.993  20.075  0.00  0.00    +0.000 NA
ATOM     30  C   UNL     1       1.482   2.239  19.335  0.00  0.00    +0.000 C 
ATOM     31  C   UNL     1       1.045   3.634  19.741  0.00  0.00    +0.000 C 
ATOM     32  C   UNL     1       1.428   3.697  21.203  0.00  0.00    +0.000 C 
ATOM     33  C   UNL     1       2.568   2.694  21.358  0.00  0.00    +0.000 C 
ENDBRANCH  28  29
ENDBRANCH  27  28
ENDBRANCH  26  27
ENDBRANCH  24  26
ENDBRANCH   7  22
TORSDOF 7
ENDMDL
MODEL 4
REMARK VINA RESULT:      -7.6      1.834      3.089
REMARK  Name = 
REMARK  8 active torsions:
REMARK  status: ('A' for Active; 'I' for Inactive)
REMARK    1  A    between atoms: C_1  and  O_2
REMARK    2  A    between atoms: O_2  and  C_3
REMARK    3  A    between atoms: C_7  and  N_8
REMARK    4  A    between atoms: C_14  and  C_15
REMARK    5  A    between atoms: N_17  and  C_18
REMARK    6  A    between atoms: C_18  and  C_19
REMARK    7  A    between atoms: C_19  and  C_20
REMARK    8  A    between atoms: C_20  and  N_21
REMARK                            x       y       z     vdW  Elec       q    Type
REMARK                         _______ _______ _______ _____ _____    ______ ____
ROOT
ATOM      1  N   UNL     1       0.163  10.204  21.069  0.00  0.00    +0.000 N 
ATOM      2  C   UNL     1       0.081   8.947  21.682  0.00  0.00    +0.000 A 
ATOM      3  O   UNL     1      -0.942   8.402  22.093  0.00  0.00    +0.000 OA
ATOM      4  N   UNL     1       1.251   8.202  21.630  0.00  0.00    +0.000 N 
ATOM      5  C   UNL     1       1.779   8.058  20.337  0.00  0.00    +0.000 A 
ATOM      6  C   UNL     1       2.405   6.875  19.975  0.00  0.00    +0.000 A 
ATOM      7  C   UNL     1       2.708   6.613  18.626  0.00  0.00    +0.000 A 
ATOM      8  C   UNL     1       2.359   7.571  17.659  0.00  0.00    +0.000 A 
ATOM      9  C   UNL     1       1.800   8.807  18.054  0.00  0.00    +0.000 A 
ATOM     10  C   UNL     1       1.524   9.044  19.403  0.00  0.00    +0.000 A 
ATOM     11  C   UNL     1       0.982  10.319  19.927  0.00  0.00    +0.000 A 
ATOM     12  O   UNL     1       1.333  11.337  19.339  0.00  0.00    +0.000 OA
ATOM     13  H   UNL     1       1.949   8.591  22.257  0.00  0.00    +0.000 HD
ENDROOT
BRANCH   1  18
ATOM     14  C   UNL     1      -2.761  12.612  20.907  0.00  0.00    +0.000 A 
ATOM     15  C   UNL     1      -2.871  12.994  22.240  0.00  0.00    +0.000 A 
ATOM     16  C   UNL     1      -1.918  12.576  23.157  0.00  0.00    +0.000 A 
ATOM     17  C   UNL     1      -0.879  11.733  22.748  0.00  0.00    +0.000 A 
ATOM     18  C   UNL     1      -0.797  11.238  21.432  0.00  0.00    +0.000 A 
ATOM     19  C   UNL     1      -1.722  11.759  20.514  0.00  0.00    +0.000 A 
BRANCH  14  21
ATOM     20  C   UNL     1      -4.452  12.169  19.297  0.00  0.00    +0.000 C 
ATOM     21  O   UNL     1      -3.730  13.115  20.079  0.00  0.00    +0.000 OA
ENDBRANCH  14  21
ENDBRANCH   1  18
BRANCH   7  22
ATOM     22  C   UNL     1       3.372   5.301  18.367  0.00  0.00    +0.000 C 
ATOM     23  O   UNL     1       3.707   4.608  19.334  0.00  0.00    +0.000 OA
ATOM     24  N   UNL     1       3.647   4.870  17.075  0.00  0.00    +0.000 N 
ATOM     25  H   UNL     1       3.418   5.434  16.266  0.00  0.00    +0.000 HD
BRANCH  24  26
ATOM     26  C   UNL     1       4.421   3.642  16.925  0.00  0.00    +0.000 C 
BRANCH  26  27
ATOM     27  C   UNL     1       5.606   3.722  15.961  0.00  0.00    +0.000 C 
BRANCH  27  28
ATOM     28  C   UNL     1       6.078   5.188  15.797  0.00  0.00    +0.000 C 
BRANCH  28  29
ATOM     29  N   UNL     1       7.400   5.473  16.384  0.00  0.00    +0.000 NA
ATOM     30  C   UNL     1       7.674   4.613  17.555  0.00  0.00    +0.000 C 
ATOM     31  C   UNL     1       7.150   5.387  18.750  0.00  0.00    +0.000 C 
ATOM     32  C   UNL     1       7.488   6.820  18.400  0.00  0.00    +0.000 C 
ATOM     33  C   UNL     1       7.557   6.850  16.876  0.00  0.00    +0.000 C 
ENDBRANCH  28  29
ENDBRANCH  27  28
ENDBRANCH  26  27
ENDBRANCH  24  26
ENDBRANCH   7  22
TORSDOF 7
ENDMDL
MODEL 5
REMARK VINA RESULT:      -7.6      2.386      3.205
REMARK  Name = 
REMARK  8 active torsions:
REMARK  status: ('A' for Active; 'I' for Inactive)
REMARK    1  A    between atoms: C_1  and  O_2
REMARK    2  A    between atoms: O_2  and  C_3
REMARK    3  A    between atoms: C_7  and  N_8
REMARK    4  A    between atoms: C_14  and  C_15
REMARK    5  A    between atoms: N_17  and  C_18
REMARK    6  A    between atoms: C_18  and  C_19
REMARK    7  A    between atoms: C_19  and  C_20
REMARK    8  A    between atoms: C_20  and  N_21
REMARK                            x       y       z     vdW  Elec       q    Type
REMARK                         _______ _______ _______ _____ _____    ______ ____
ROOT
ATOM      1  N   UNL     1       0.713  11.902  19.402  0.00  0.00    +0.000 N 
ATOM      2  C   UNL     1       1.778  11.861  18.493  0.00  0.00    +0.000 A 
ATOM      3  O   UNL     1       2.743  12.623  18.467  0.00  0.00    +0.000 OA
ATOM      4  N   UNL     1       1.805  10.733  17.684  0.00  0.00    +0.000 N 
ATOM      5  C   UNL     1       1.749   9.523  18.392  0.00  0.00    +0.000 A 
ATOM      6  C   UNL     1       2.456   8.421  17.932  0.00  0.00    +0.000 A 
ATOM      7  C   UNL     1       2.623   7.289  18.751  0.00  0.00    +0.000 A 
ATOM      8  C   UNL     1       2.064   7.302  20.040  0.00  0.00    +0.000 A 
ATOM      9  C   UNL     1       1.275   8.396  20.462  0.00  0.00    +0.000 A 
ATOM     10  C   UNL     1       1.116   9.500  19.619  0.00  0.00    +0.000 A 
ATOM     11  C   UNL     1       0.275  10.676  19.945  0.00  0.00    +0.000 A 
ATOM     12  O   UNL     1      -0.728  10.453  20.614  0.00  0.00    +0.000 OA
ATOM     13  H   UNL     1       1.062  10.774  16.992  0.00  0.00    +0.000 HD
ENDROOT
BRANCH   1  18
ATOM     14  C   UNL     1       0.416  14.857  21.758  0.00  0.00    +0.000 A 
ATOM     15  C   UNL     1      -0.193  15.799  20.935  0.00  0.00    +0.000 A 
ATOM     16  C   UNL     1      -0.625  15.430  19.669  0.00  0.00    +0.000 A 
ATOM     17  C   UNL     1      -0.402  14.129  19.207  0.00  0.00    +0.000 A 
ATOM     18  C   UNL     1       0.308  13.180  19.970  0.00  0.00    +0.000 A 
ATOM     19  C   UNL     1       0.643  13.560  21.279  0.00  0.00    +0.000 A 
BRANCH  14  21
ATOM     20  C   UNL     1       0.571  16.705  23.244  0.00  0.00    +0.000 C 
ATOM     21  O   UNL     1       0.765  15.315  23.001  0.00  0.00    +0.000 OA
ENDBRANCH  14  21
ENDBRANCH   1  18
BRANCH   7  22
ATOM     22  C   UNL     1       3.410   6.176  18.144  0.00  0.00    +0.000 C 
ATOM     23  O   UNL     1       4.635   6.311  18.033  0.00  0.00    +0.000 OA
ATOM     24  N   UNL     1       2.794   5.023  17.675  0.00  0.00    +0.000 N 
ATOM     25  H   UNL     1       1.790   4.901  17.718  0.00  0.00    +0.000 HD
BRANCH  24  26
ATOM     26  C   UNL     1       3.627   4.051  16.974  0.00  0.00    +0.000 C 
BRANCH  26  27
ATOM     27  C   UNL     1       3.801   2.703  17.675  0.00  0.00    +0.000 C 
BRANCH  27  28
ATOM     28  C   UNL     1       4.007   2.901  19.197  0.00  0.00    +0.000 C 
BRANCH  28  29
ATOM     29  N   UNL     1       3.044   2.172  20.043  0.00  0.00    +0.000 NA
ATOM     30  C   UNL     1       1.753   1.971  19.352  0.00  0.00    +0.000 C 
ATOM     31  C   UNL     1       0.914   3.183  19.710  0.00  0.00    +0.000 C 
ATOM     32  C   UNL     1       1.301   3.449  21.148  0.00  0.00    +0.000 C 
ATOM     33  C   UNL     1       2.702   2.862  21.297  0.00  0.00    +0.000 C 
ENDBRANCH  28  29
ENDBRANCH  27  28
ENDBRANCH  26  27
ENDBRANCH  24  26
ENDBRANCH   7  22
TORSDOF 7
ENDMDL
MODEL 6
REMARK VINA RESULT:      -7.6      2.781      4.317
REMARK  Name = 
REMARK  8 active torsions:
REMARK  status: ('A' for Active; 'I' for Inactive)
REMARK    1  A    between atoms: C_1  and  O_2
REMARK    2  A    between atoms: O_2  and  C_3
REMARK    3  A    between atoms: C_7  and  N_8
REMARK    4  A    between atoms: C_14  and  C_15
REMARK    5  A    between atoms: N_17  and  C_18
REMARK    6  A    between atoms: C_18  and  C_19
REMARK    7  A    between atoms: C_19  and  C_20
REMARK    8  A    between atoms: C_20  and  N_21
REMARK                            x       y       z     vdW  Elec       q    Type
REMARK                         _______ _______ _______ _____ _____    ______ ____
ROOT
ATOM      1  N   UNL     1       0.836  11.324  19.315  0.00  0.00    +0.000 N 
ATOM      2  C   UNL     1       1.802  11.080  18.330  0.00  0.00    +0.000 A 
ATOM      3  O   UNL     1       2.789  11.772  18.089  0.00  0.00    +0.000 OA
ATOM      4  N   UNL     1       1.702   9.836  17.720  0.00  0.00    +0.000 N 
ATOM      5  C   UNL     1       1.671   8.760  18.620  0.00  0.00    +0.000 A 
ATOM      6  C   UNL     1       2.284   7.562  18.285  0.00  0.00    +0.000 A 
ATOM      7  C   UNL     1       2.487   6.568  19.261  0.00  0.00    +0.000 A 
ATOM      8  C   UNL     1       2.061   6.820  20.576  0.00  0.00    +0.000 A 
ATOM      9  C   UNL     1       1.363   8.009  20.882  0.00  0.00    +0.000 A 
ATOM     10  C   UNL     1       1.163   8.970  19.888  0.00  0.00    +0.000 A 
ATOM     11  C   UNL     1       0.407  10.228  20.091  0.00  0.00    +0.000 A 
ATOM     12  O   UNL     1      -0.532  10.171  20.879  0.00  0.00    +0.000 OA
ATOM     13  H   UNL     1       0.896   9.806  17.102  0.00  0.00    +0.000 HD
ENDROOT
BRANCH   1  18
ATOM     14  C   UNL     1       0.822  14.600  21.223  0.00  0.00    +0.000 A 
ATOM     15  C   UNL     1       0.258  15.458  20.284  0.00  0.00    +0.000 A 
ATOM     16  C   UNL     1      -0.236  14.946  19.093  0.00  0.00    +0.000 A 
ATOM     17  C   UNL     1      -0.120  13.579  18.820  0.00  0.00    +0.000 A 
ATOM     18  C   UNL     1       0.541  12.697  19.699  0.00  0.00    +0.000 A 
ATOM     19  C   UNL     1       0.940  13.235  20.932  0.00  0.00    +0.000 A 
BRANCH  14  21
ATOM     20  C   UNL     1       0.348  16.153  22.958  0.00  0.00    +0.000 C 
ATOM     21  O   UNL     1       1.238  15.204  22.380  0.00  0.00    +0.000 OA
ENDBRANCH  14  21
ENDBRANCH   1  18
BRANCH   7  22
ATOM     22  C   UNL     1       3.165   5.330  18.775  0.00  0.00    +0.000 C 
ATOM     23  O   UNL     1       3.596   4.527  19.611  0.00  0.00    +0.000 OA
ATOM     24  N   UNL     1       3.349   5.088  17.420  0.00  0.00    +0.000 N 
ATOM     25  H   UNL     1       3.041   5.746  16.716  0.00  0.00    +0.000 HD
BRANCH  24  26
ATOM     26  C   UNL     1       4.143   3.922  17.046  0.00  0.00    +0.000 C 
BRANCH  26  27
ATOM     27  C   UNL     1       5.167   4.150  15.932  0.00  0.00    +0.000 C 
BRANCH  27  28
ATOM     28  C   UNL     1       6.441   4.828  16.493  0.00  0.00    +0.000 C 
BRANCH  28  29
ATOM     29  N   UNL     1       6.208   5.685  17.670  0.00  0.00    +0.000 NA
ATOM     30  C   UNL     1       6.179   7.117  17.305  0.00  0.00    +0.000 C 
ATOM     31  C   UNL     1       7.614   7.593  17.437  0.00  0.00    +0.000 C 
ATOM     32  C   UNL     1       8.114   6.830  18.644  0.00  0.00    +0.000 C 
ATOM     33  C   UNL     1       7.245   5.577  18.709  0.00  0.00    +0.000 C 
ENDBRANCH  28  29
ENDBRANCH  27  28
ENDBRANCH  26  27
ENDBRANCH  24  26
ENDBRANCH   7  22
TORSDOF 7
ENDMDL
MODEL 7
REMARK VINA RESULT:      -7.6      2.164      2.990
REMARK  Name = 
REMARK  8 active torsions:
REMARK  status: ('A' for Active; 'I' for Inactive)
REMARK    1  A    between atoms: C_1  and  O_2
REMARK    2  A    between atoms: O_2  and  C_3
REMARK    3  A    between atoms: C_7  and  N_8
REMARK    4  A    between atoms: C_14  and  C_15
REMARK    5  A    between atoms: N_17  and  C_18
REMARK    6  A    between atoms: C_18  and  C_19
REMARK    7  A    between atoms: C_19  and  C_20
REMARK    8  A    between atoms: C_20  and  N_21
REMARK                            x       y       z     vdW  Elec       q    Type
REMARK                         _______ _______ _______ _____ _____    ______ ____
ROOT
ATOM      1  N   UNL     1       0.597  11.810  19.167  0.00  0.00    +0.000 N 
ATOM      2  C   UNL     1       1.748  11.707  18.376  0.00  0.00    +0.000 A 
ATOM      3  O   UNL     1       2.699  12.487  18.368  0.00  0.00    +0.000 OA
ATOM      4  N   UNL     1       1.874  10.505  17.693  0.00  0.00    +0.000 N 
ATOM      5  C   UNL     1       1.767   9.370  18.512  0.00  0.00    +0.000 A 
ATOM      6  C   UNL     1       2.534   8.247  18.238  0.00  0.00    +0.000 A 
ATOM      7  C   UNL     1       2.635   7.207  19.181  0.00  0.00    +0.000 A 
ATOM      8  C   UNL     1       1.949   7.334  20.400  0.00  0.00    +0.000 A 
ATOM      9  C   UNL     1       1.104   8.444  20.628  0.00  0.00    +0.000 A 
ATOM     10  C   UNL     1       1.013   9.454  19.666  0.00  0.00    +0.000 A 
ATOM     11  C   UNL     1       0.125  10.634  19.786  0.00  0.00    +0.000 A 
ATOM     12  O   UNL     1      -0.937  10.453  20.372  0.00  0.00    +0.000 OA
ATOM     13  H   UNL     1       1.205  10.457  16.930  0.00  0.00    +0.000 HD
ENDROOT
BRANCH   1  18
ATOM     14  C   UNL     1      -0.431  14.778  21.291  0.00  0.00    +0.000 A 
ATOM     15  C   UNL     1      -0.488  15.787  20.336  0.00  0.00    +0.000 A 
ATOM     16  C   UNL     1      -0.326  15.475  18.993  0.00  0.00    +0.000 A 
ATOM     17  C   UNL     1      -0.057  14.157  18.611  0.00  0.00    +0.000 A 
ATOM     18  C   UNL     1       0.116  13.128  19.558  0.00  0.00    +0.000 A 
ATOM     19  C   UNL     1      -0.150  13.463  20.895  0.00  0.00    +0.000 A 
BRANCH  14  21
ATOM     20  C   UNL     1      -1.087  14.193  23.499  0.00  0.00    +0.000 C 
ATOM     21  O   UNL     1      -0.647  15.188  22.580  0.00  0.00    +0.000 OA
ENDBRANCH  14  21
ENDBRANCH   1  18
BRANCH   7  22
ATOM     22  C   UNL     1       3.497   6.060  18.771  0.00  0.00    +0.000 C 
ATOM     23  O   UNL     1       4.340   5.639  19.572  0.00  0.00    +0.000 OA
ATOM     24  N   UNL     1       3.394   5.489  17.508  0.00  0.00    +0.000 N 
ATOM     25  H   UNL     1       2.740   5.838  16.819  0.00  0.00    +0.000 HD
BRANCH  24  26
ATOM     26  C   UNL     1       4.371   4.466  17.149  0.00  0.00    +0.000 C 
BRANCH  26  27
ATOM     27  C   UNL     1       3.901   3.019  17.313  0.00  0.00    +0.000 C 
BRANCH  27  28
ATOM     28  C   UNL     1       2.374   2.966  17.567  0.00  0.00    +0.000 C 
BRANCH  28  29
ATOM     29  N   UNL     1       1.982   2.214  18.773  0.00  0.00    +0.000 NA
ATOM     30  C   UNL     1       0.642   2.612  19.253  0.00  0.00    +0.000 C 
ATOM     31  C   UNL     1       0.888   3.747  20.230  0.00  0.00    +0.000 C 
ATOM     32  C   UNL     1       2.166   3.328  20.922  0.00  0.00    +0.000 C 
ATOM     33  C   UNL     1       2.876   2.415  19.925  0.00  0.00    +0.000 C 
ENDBRANCH  28  29
ENDBRANCH  27  28
ENDBRANCH  26  27
ENDBRANCH  24  26
ENDBRANCH   7  22
TORSDOF 7
ENDMDL
MODEL 8
REMARK VINA RESULT:      -7.4      3.138      4.317
REMARK  Name = 
REMARK  8 active torsions:
REMARK  status: ('A' for Active; 'I' for Inactive)
REMARK    1  A    between atoms: C_1  and  O_2
REMARK    2  A    between atoms: O_2  and  C_3
REMARK    3  A    between atoms: C_7  and  N_8
REMARK    4  A    between atoms: C_14  and  C_15
REMARK    5  A    between atoms: N_17  and  C_18
REMARK    6  A    between atoms: C_18  and  C_19
REMARK    7  A    between atoms: C_19  and  C_20
REMARK    8  A    between atoms: C_20  and  N_21
REMARK                            x       y       z     vdW  Elec       q    Type
REMARK                         _______ _______ _______ _____ _____    ______ ____
ROOT
ATOM      1  N   UNL     1       0.958  12.251  19.273  0.00  0.00    +0.000 N 
ATOM      2  C   UNL     1       1.918  11.812  18.352  0.00  0.00    +0.000 A 
ATOM      3  O   UNL     1       2.995  12.353  18.108  0.00  0.00    +0.000 OA
ATOM      4  N   UNL     1       1.679  10.549  17.826  0.00  0.00    +0.000 N 
ATOM      5  C   UNL     1       1.474   9.557  18.798  0.00  0.00    +0.000 A 
ATOM      6  C   UNL     1       1.937   8.268  18.575  0.00  0.00    +0.000 A 
ATOM      7  C   UNL     1       1.974   7.333  19.626  0.00  0.00    +0.000 A 
ATOM      8  C   UNL     1       1.538   7.735  20.901  0.00  0.00    +0.000 A 
ATOM      9  C   UNL     1       0.990   9.023  21.091  0.00  0.00    +0.000 A 
ATOM     10  C   UNL     1       0.954   9.925  20.023  0.00  0.00    +0.000 A 
ATOM     11  C   UNL     1       0.361  11.281  20.104  0.00  0.00    +0.000 A 
ATOM     12  O   UNL     1      -0.605  11.404  20.850  0.00  0.00    +0.000 OA
ATOM     13  H   UNL     1       0.898  10.576  17.177  0.00  0.00    +0.000 HD
ENDROOT
BRANCH   1  18
ATOM     14  C   UNL     1      -0.170  15.865  19.068  0.00  0.00    +0.000 A 
ATOM     15  C   UNL     1       0.312  16.368  20.272  0.00  0.00    +0.000 A 
ATOM     16  C   UNL     1       1.112  15.572  21.079  0.00  0.00    +0.000 A 
ATOM     17  C   UNL     1       1.390  14.254  20.703  0.00  0.00    +0.000 A 
ATOM     18  C   UNL     1       0.831  13.676  19.546  0.00  0.00    +0.000 A 
ATOM     19  C   UNL     1       0.108  14.539  18.709  0.00  0.00    +0.000 A 
BRANCH  14  21
ATOM     20  C   UNL     1      -0.208  17.838  17.743  0.00  0.00    +0.000 C 
ATOM     21  O   UNL     1      -0.913  16.747  18.329  0.00  0.00    +0.000 OA
ENDBRANCH  14  21
ENDBRANCH   1  18
BRANCH   7  22
ATOM     22  C   UNL     1       2.501   5.986  19.260  0.00  0.00    +0.000 C 
ATOM     23  O   UNL     1       2.984   5.278  20.152  0.00  0.00    +0.000 OA
ATOM     24  N   UNL     1       2.491   5.535  17.946  0.00  0.00    +0.000 N 
ATOM     25  H   UNL     1       2.137   6.108  17.190  0.00  0.00    +0.000 HD
BRANCH  24  26
ATOM     26  C   UNL     1       3.152   4.265  17.663  0.00  0.00    +0.000 C 
BRANCH  26  27
ATOM     27  C   UNL     1       4.372   4.346  16.744  0.00  0.00    +0.000 C 
BRANCH  27  28
ATOM     28  C   UNL     1       5.678   4.401  17.574  0.00  0.00    +0.000 C 
BRANCH  28  29
ATOM     29  N   UNL     1       5.819   5.607  18.410  0.00  0.00    +0.000 NA
ATOM     30  C   UNL     1       5.873   6.836  17.591  0.00  0.00    +0.000 C 
ATOM     31  C   UNL     1       7.345   7.057  17.299  0.00  0.00    +0.000 C 
ATOM     32  C   UNL     1       8.015   6.625  18.585  0.00  0.00    +0.000 C 
ATOM     33  C   UNL     1       7.044   5.636  19.224  0.00  0.00    +0.000 C 
ENDBRANCH  28  29
ENDBRANCH  27  28
ENDBRANCH  26  27
ENDBRANCH  24  26
ENDBRANCH   7  22
TORSDOF 7
ENDMDL
MODEL 9
REMARK VINA RESULT:      -7.4      3.445     10.163
REMARK  Name = 
REMARK  8 active torsions:
REMARK  status: ('A' for Active; 'I' for Inactive)
REMARK    1  A    between atoms: C_1  and  O_2
REMARK    2  A    between atoms: O_2  and  C_3
REMARK    3  A    between atoms: C_7  and  N_8
REMARK    4  A    between atoms: C_14  and  C_15
REMARK    5  A    between atoms: N_17  and  C_18
REMARK    6  A    between atoms: C_18  and  C_19
REMARK    7  A    between atoms: C_19  and  C_20
REMARK    8  A    between atoms: C_20  and  N_21
REMARK                            x       y       z     vdW  Elec       q    Type
REMARK                         _______ _______ _______ _____ _____    ______ ____
ROOT
ATOM      1  N   UNL     1       5.538   5.014  15.624  0.00  0.00    +0.000 N 
ATOM      2  C   UNL     1       5.279   6.379  15.800  0.00  0.00    +0.000 A 
ATOM      3  O   UNL     1       4.985   7.185  14.918  0.00  0.00    +0.000 OA
ATOM      4  N   UNL     1       5.169   6.781  17.125  0.00  0.00    +0.000 N 
ATOM      5  C   UNL     1       4.249   6.030  17.873  0.00  0.00    +0.000 A 
ATOM      6  C   UNL     1       3.491   6.650  18.856  0.00  0.00    +0.000 A 
ATOM      7  C   UNL     1       2.394   5.985  19.434  0.00  0.00    +0.000 A 
ATOM      8  C   UNL     1       2.083   4.688  18.992  0.00  0.00    +0.000 A 
ATOM      9  C   UNL     1       2.915   4.040  18.052  0.00  0.00    +0.000 A 
ATOM     10  C   UNL     1       4.006   4.721  17.507  0.00  0.00    +0.000 A 
ATOM     11  C   UNL     1       4.966   4.119  16.551  0.00  0.00    +0.000 A 
ATOM     12  O   UNL     1       5.188   2.921  16.694  0.00  0.00    +0.000 OA
ATOM     13  H   UNL     1       6.080   6.776  17.575  0.00  0.00    +0.000 HD
ENDROOT
BRANCH   1  18
ATOM     14  C   UNL     1       5.944   3.271  12.282  0.00  0.00    +0.000 A 
ATOM     15  C   UNL     1       7.064   3.919  11.773  0.00  0.00    +0.000 A 
ATOM     16  C   UNL     1       7.759   4.819  12.568  0.00  0.00    +0.000 A 
ATOM     17  C   UNL     1       7.302   5.107  13.858  0.00  0.00    +0.000 A 
ATOM     18  C   UNL     1       6.112   4.553  14.368  0.00  0.00    +0.000 A 
ATOM     19  C   UNL     1       5.491   3.577  13.572  0.00  0.00    +0.000 A 
BRANCH  14  21
ATOM     20  C   UNL     1       6.103   1.192  11.141  0.00  0.00    +0.000 C 
ATOM     21  O   UNL     1       5.359   2.371  11.429  0.00  0.00    +0.000 OA
ENDBRANCH  14  21
ENDBRANCH   1  18
BRANCH   7  22
ATOM     22  C   UNL     1       1.655   6.763  20.472  0.00  0.00    +0.000 C 
ATOM     23  O   UNL     1       0.749   6.200  21.098  0.00  0.00    +0.000 OA
ATOM     24  N   UNL     1       1.941   8.101  20.717  0.00  0.00    +0.000 N 
ATOM     25  H   UNL     1       2.651   8.597  20.194  0.00  0.00    +0.000 HD
BRANCH  24  26
ATOM     26  C   UNL     1       1.076   8.814  21.651  0.00  0.00    +0.000 C 
BRANCH  26  27
ATOM     27  C   UNL     1      -0.145   9.497  21.030  0.00  0.00    +0.000 C 
BRANCH  27  28
ATOM     28  C   UNL     1       0.189  10.956  20.634  0.00  0.00    +0.000 C 
BRANCH  28  29
ATOM     29  N   UNL     1       0.279  11.188  19.180  0.00  0.00    +0.000 NA
ATOM     30  C   UNL     1      -0.566  12.323  18.754  0.00  0.00    +0.000 C 
ATOM     31  C   UNL     1      -1.913  11.714  18.416  0.00  0.00    +0.000 C 
ATOM     32  C   UNL     1      -1.537  10.392  17.782  0.00  0.00    +0.000 C 
ATOM     33  C   UNL     1      -0.167  10.051  18.360  0.00  0.00    +0.000 C 
ENDBRANCH  28  29
ENDBRANCH  27  28
ENDBRANCH  26  27
ENDBRANCH  24  26
ENDBRANCH   7  22
TORSDOF 7
ENDMDL
