MODEL 1
REMARK VINA RESULT:      -8.8      0.000      0.000
REMARK  Name = 
REMARK  11 active torsions:
REMARK  status: ('A' for Active; 'I' for Inactive)
REMARK    1  A    between atoms: C_1  and  C_2
REMARK    2  A    between atoms: C_5  and  C_6
REMARK    3  A    between atoms: C_6  and  C_7
REMARK    4  A    between atoms: C_7  and  C_8
REMARK    5  A    between atoms: C_8  and  C_9
REMARK    6  A    between atoms: C_8  and  N_10
REMARK    7  A    between atoms: N_10  and  C_11
REMARK    8  A    between atoms: C_11  and  C_12
REMARK    9  A    between atoms: C_12  and  O_13
REMARK   10  A    between atoms: C_12  and  C_14
REMARK   11  A    between atoms: C_17  and  O_18
REMARK                            x       y       z     vdW  Elec       q    Type
REMARK                         _______ _______ _______ _____ _____    ______ ____
ROOT
ATOM      1  C   UNL     1       3.192   3.128  17.295  0.00  0.00    +0.000 C 
ENDROOT
BRANCH   1   2
ATOM      2  C   UNL     1       4.562   3.868  17.436  0.00  0.00    +0.000 A 
ATOM      3  C   UNL     1       4.834   4.336  18.738  0.00  0.00    +0.000 A 
ATOM      4  C   UNL     1       5.944   5.117  19.036  0.00  0.00    +0.000 A 
ATOM      5  C   UNL     1       6.825   5.509  18.036  0.00  0.00    +0.000 A 
ATOM      6  C   UNL     1       6.611   5.098  16.714  0.00  0.00    +0.000 A 
ATOM      7  N   UNL     1       7.460   5.551  15.735  0.00  0.00    +0.000 N 
ATOM      8  C   UNL     1       7.303   5.206  14.423  0.00  0.00    +0.000 A 
ATOM      9  O   UNL     1       8.063   5.652  13.576  0.00  0.00    +0.000 OA
ATOM     10  C   UNL     1       6.277   4.350  14.054  0.00  0.00    +0.000 A 
ATOM     11  C   UNL     1       5.384   3.875  15.021  0.00  0.00    +0.000 A 
ATOM     12  C   UNL     1       5.499   4.246  16.386  0.00  0.00    +0.000 A 
ATOM     13  H   UNL     1       8.248   6.200  15.973  0.00  0.00    +0.000 HD
BRANCH   5  14
ATOM     14  O   UNL     1       7.883   6.295  18.342  0.00  0.00    +0.000 OA
ATOM     15  H   UNL     1       8.746   6.205  17.914  0.00  0.00    +0.000 HD
ENDBRANCH   5  14
ENDBRANCH   1   2
BRANCH   1  16
ATOM     16  O   UNL     1       3.211   1.803  17.748  0.00  0.00    +0.000 OA
ATOM     17  H   UNL     1       2.450   1.333  17.316  0.00  0.00    +0.000 HD
ENDBRANCH   1  16
BRANCH   1  18
ATOM     18  C   UNL     1       1.877   3.835  17.798  0.00  0.00    +0.000 C 
BRANCH  18  19
ATOM     19  N   UNL     1       1.385   3.158  19.030  0.00  0.00    +0.000 NA
ATOM     20  H   UNL     1       0.344   3.277  19.044  0.00  0.00    +0.000 HD
BRANCH  19  21
ATOM     21  C   UNL     1       1.901   3.655  20.338  0.00  0.00    +0.000 C 
ATOM     22  C   UNL     1       1.350   2.806  21.494  0.00  0.00    +0.000 C 
BRANCH  21  23
ATOM     23  C   UNL     1       1.462   5.148  20.509  0.00  0.00    +0.000 C 
BRANCH  23  24
ATOM     24  C   UNL     1       2.502   6.262  20.220  0.00  0.00    +0.000 C 
BRANCH  24  29
ATOM     25  C   UNL     1       0.206  11.430  18.757  0.00  0.00    +0.000 C 
ATOM     26  C   UNL     1       0.836  10.116  19.127  0.00  0.00    +0.000 A 
ATOM     27  C   UNL     1       1.582   9.380  18.193  0.00  0.00    +0.000 A 
ATOM     28  C   UNL     1       2.143   8.145  18.549  0.00  0.00    +0.000 A 
ATOM     29  C   UNL     1       1.970   7.630  19.845  0.00  0.00    +0.000 A 
ATOM     30  C   UNL     1       1.225   8.374  20.777  0.00  0.00    +0.000 A 
ATOM     31  C   UNL     1       0.665   9.607  20.421  0.00  0.00    +0.000 A 
ENDBRANCH  24  29
ENDBRANCH  23  24
ENDBRANCH  21  23
ENDBRANCH  19  21
ENDBRANCH  18  19
ENDBRANCH   1  18
TORSDOF 9
ENDMDL
MODEL 2
REMARK VINA RESULT:      -8.5      0.875      1.062
REMARK  Name = 
REMARK  11 active torsions:
REMARK  status: ('A' for Active; 'I' for Inactive)
REMARK    1  A    between atoms: C_1  and  C_2
REMARK    2  A    between atoms: C_5  and  C_6
REMARK    3  A    between atoms: C_6  and  C_7
REMARK    4  A    between atoms: C_7  and  C_8
REMARK    5  A    between atoms: C_8  and  C_9
REMARK    6  A    between atoms: C_8  and  N_10
REMARK    7  A    between atoms: N_10  and  C_11
REMARK    8  A    between atoms: C_11  and  C_12
REMARK    9  A    between atoms: C_12  and  O_13
REMARK   10  A    between atoms: C_12  and  C_14
REMARK   11  A    between atoms: C_17  and  O_18
REMARK                            x       y       z     vdW  Elec       q    Type
REMARK                         _______ _______ _______ _____ _____    ______ ____
ROOT
ATOM      1  C   UNL     1       3.222   3.304  17.838  0.00  0.00    +0.000 C 
ENDROOT
BRANCH   1   2
ATOM      2  C   UNL     1       4.616   4.012  17.857  0.00  0.00    +0.000 A 
ATOM      3  C   UNL     1       4.975   4.546  19.111  0.00  0.00    +0.000 A 
ATOM      4  C   UNL     1       6.120   5.311  19.298  0.00  0.00    +0.000 A 
ATOM      5  C   UNL     1       6.951   5.619  18.228  0.00  0.00    +0.000 A 
ATOM      6  C   UNL     1       6.651   5.138  16.948  0.00  0.00    +0.000 A 
ATOM      7  N   UNL     1       7.452   5.508  15.897  0.00  0.00    +0.000 N 
ATOM      8  C   UNL     1       7.210   5.092  14.619  0.00  0.00    +0.000 A 
ATOM      9  O   UNL     1       7.930   5.466  13.705  0.00  0.00    +0.000 OA
ATOM     10  C   UNL     1       6.143   4.246  14.360  0.00  0.00    +0.000 A 
ATOM     11  C   UNL     1       5.296   3.854  15.403  0.00  0.00    +0.000 A 
ATOM     12  C   UNL     1       5.499   4.300  16.734  0.00  0.00    +0.000 A 
ATOM     13  H   UNL     1       8.269   6.147  16.051  0.00  0.00    +0.000 HD
BRANCH   5  14
ATOM     14  O   UNL     1       8.045   6.391  18.427  0.00  0.00    +0.000 OA
ATOM     15  H   UNL     1       8.948   6.047  18.368  0.00  0.00    +0.000 HD
ENDBRANCH   5  14
ENDBRANCH   1   2
BRANCH   1  16
ATOM     16  O   UNL     1       2.580   3.343  16.595  0.00  0.00    +0.000 OA
ATOM     17  H   UNL     1       1.910   4.075  16.631  0.00  0.00    +0.000 HD
ENDBRANCH   1  16
BRANCH   1  18
ATOM     18  C   UNL     1       3.080   1.861  18.456  0.00  0.00    +0.000 C 
BRANCH  18  19
ATOM     19  N   UNL     1       2.032   1.871  19.514  0.00  0.00    +0.000 NA
ATOM     20  H   UNL     1       1.122   2.065  19.034  0.00  0.00    +0.000 HD
BRANCH  19  21
ATOM     21  C   UNL     1       2.173   2.874  20.609  0.00  0.00    +0.000 C 
ATOM     22  C   UNL     1       1.560   2.340  21.913  0.00  0.00    +0.000 C 
BRANCH  21  23
ATOM     23  C   UNL     1       1.447   4.190  20.172  0.00  0.00    +0.000 C 
BRANCH  23  24
ATOM     24  C   UNL     1       1.737   5.492  20.963  0.00  0.00    +0.000 C 
BRANCH  24  29
ATOM     25  C   UNL     1       1.793  10.443  17.864  0.00  0.00    +0.000 C 
ATOM     26  C   UNL     1       1.821   9.170  18.662  0.00  0.00    +0.000 A 
ATOM     27  C   UNL     1       2.382   7.995  18.135  0.00  0.00    +0.000 A 
ATOM     28  C   UNL     1       2.380   6.810  18.885  0.00  0.00    +0.000 A 
ATOM     29  C   UNL     1       1.820   6.782  20.174  0.00  0.00    +0.000 A 
ATOM     30  C   UNL     1       1.263   7.963  20.697  0.00  0.00    +0.000 A 
ATOM     31  C   UNL     1       1.266   9.146  19.948  0.00  0.00    +0.000 A 
ENDBRANCH  24  29
ENDBRANCH  23  24
ENDBRANCH  21  23
ENDBRANCH  19  21
ENDBRANCH  18  19
ENDBRANCH   1  18
TORSDOF 9
ENDMDL
MODEL 3
REMARK VINA RESULT:      -8.3      0.694      1.159
REMARK  Name = 
REMARK  11 active torsions:
REMARK  status: ('A' for Active; 'I' for Inactive)
REMARK    1  A    between atoms: C_1  and  C_2
REMARK    2  A    between atoms: C_5  and  C_6
REMARK    3  A    between atoms: C_6  and  C_7
REMARK    4  A    between atoms: C_7  and  C_8
REMARK    5  A    between atoms: C_8  and  C_9
REMARK    6  A    between atoms: C_8  and  N_10
REMARK    7  A    between atoms: N_10  and  C_11
REMARK    8  A    between atoms: C_11  and  C_12
REMARK    9  A    between atoms: C_12  and  O_13
REMARK   10  A    between atoms: C_12  and  C_14
REMARK   11  A    between atoms: C_17  and  O_18
REMARK                            x       y       z     vdW  Elec       q    Type
REMARK                         _______ _______ _______ _____ _____    ______ ____
ROOT
ATOM      1  C   UNL     1       4.103   2.666  18.042  0.00  0.00    +0.000 C 
ENDROOT
BRANCH   1   2
ATOM      2  C   UNL     1       5.223   3.745  17.872  0.00  0.00    +0.000 A 
ATOM      3  C   UNL     1       5.495   4.483  19.042  0.00  0.00    +0.000 A 
ATOM      4  C   UNL     1       6.373   5.560  19.059  0.00  0.00    +0.000 A 
ATOM      5  C   UNL     1       6.997   5.986  17.894  0.00  0.00    +0.000 A 
ATOM      6  C   UNL     1       6.763   5.313  16.688  0.00  0.00    +0.000 A 
ATOM      7  N   UNL     1       7.343   5.791  15.540  0.00  0.00    +0.000 N 
ATOM      8  C   UNL     1       7.145   5.198  14.326  0.00  0.00    +0.000 A 
ATOM      9  O   UNL     1       7.655   5.670  13.321  0.00  0.00    +0.000 OA
ATOM     10  C   UNL     1       6.360   4.058  14.236  0.00  0.00    +0.000 A 
ATOM     11  C   UNL     1       5.743   3.545  15.383  0.00  0.00    +0.000 A 
ATOM     12  C   UNL     1       5.899   4.162  16.651  0.00  0.00    +0.000 A 
ATOM     13  H   UNL     1       7.942   6.651  15.565  0.00  0.00    +0.000 HD
BRANCH   5  14
ATOM     14  O   UNL     1       7.824   7.057  17.927  0.00  0.00    +0.000 OA
ATOM     15  H   UNL     1       8.354   7.335  17.166  0.00  0.00    +0.000 HD
ENDBRANCH   5  14
ENDBRANCH   1   2
BRANCH   1  16
ATOM     16  O   UNL     1       4.392   1.693  19.005  0.00  0.00    +0.000 OA
ATOM     17  H   UNL     1       4.717   2.167  19.816  0.00  0.00    +0.000 HD
ENDBRANCH   1  16
BRANCH   1  18
ATOM     18  C   UNL     1       2.604   3.128  18.196  0.00  0.00    +0.000 C 
BRANCH  18  19
ATOM     19  N   UNL     1       2.025   2.542  19.436  0.00  0.00    +0.000 NA
ATOM     20  H   UNL     1       1.016   2.347  19.235  0.00  0.00    +0.000 HD
BRANCH  19  21
ATOM     21  C   UNL     1       2.072   3.374  20.673  0.00  0.00    +0.000 C 
ATOM     22  C   UNL     1       1.196   2.755  21.774  0.00  0.00    +0.000 C 
BRANCH  21  23
ATOM     23  C   UNL     1       1.562   4.812  20.323  0.00  0.00    +0.000 C 
BRANCH  23  24
ATOM     24  C   UNL     1       2.600   5.877  19.883  0.00  0.00    +0.000 C 
BRANCH  24  29
ATOM     25  C   UNL     1       0.866  11.333  18.722  0.00  0.00    +0.000 C 
ATOM     26  C   UNL     1       1.272   9.919  19.031  0.00  0.00    +0.000 A 
ATOM     27  C   UNL     1       1.156   9.397  20.330  0.00  0.00    +0.000 A 
ATOM     28  C   UNL     1       1.560   8.083  20.604  0.00  0.00    +0.000 A 
ATOM     29  C   UNL     1       2.084   7.270  19.585  0.00  0.00    +0.000 A 
ATOM     30  C   UNL     1       2.195   7.797  18.286  0.00  0.00    +0.000 A 
ATOM     31  C   UNL     1       1.790   9.109  18.012  0.00  0.00    +0.000 A 
ENDBRANCH  24  29
ENDBRANCH  23  24
ENDBRANCH  21  23
ENDBRANCH  19  21
ENDBRANCH  18  19
ENDBRANCH   1  18
TORSDOF 9
ENDMDL
MODEL 4
REMARK VINA RESULT:      -8.2      4.568      7.227
REMARK  Name = 
REMARK  11 active torsions:
REMARK  status: ('A' for Active; 'I' for Inactive)
REMARK    1  A    between atoms: C_1  and  C_2
REMARK    2  A    between atoms: C_5  and  C_6
REMARK    3  A    between atoms: C_6  and  C_7
REMARK    4  A    between atoms: C_7  and  C_8
REMARK    5  A    between atoms: C_8  and  C_9
REMARK    6  A    between atoms: C_8  and  N_10
REMARK    7  A    between atoms: N_10  and  C_11
REMARK    8  A    between atoms: C_11  and  C_12
REMARK    9  A    between atoms: C_12  and  O_13
REMARK   10  A    between atoms: C_12  and  C_14
REMARK   11  A    between atoms: C_17  and  O_18
REMARK                            x       y       z     vdW  Elec       q    Type
REMARK                         _______ _______ _______ _____ _____    ______ ____
ROOT
ATOM      1  C   UNL     1       5.190   5.656  16.218  0.00  0.00    +0.000 C 
ENDROOT
BRANCH   1   2
ATOM      2  C   UNL     1       4.174   5.867  17.387  0.00  0.00    +0.000 A 
ATOM      3  C   UNL     1       3.710   7.192  17.518  0.00  0.00    +0.000 A 
ATOM      4  C   UNL     1       2.894   7.599  18.567  0.00  0.00    +0.000 A 
ATOM      5  C   UNL     1       2.529   6.709  19.569  0.00  0.00    +0.000 A 
ATOM      6  C   UNL     1       2.965   5.379  19.517  0.00  0.00    +0.000 A 
ATOM      7  N   UNL     1       2.643   4.536  20.551  0.00  0.00    +0.000 N 
ATOM      8  C   UNL     1       3.048   3.232  20.577  0.00  0.00    +0.000 A 
ATOM      9  O   UNL     1       2.765   2.520  21.529  0.00  0.00    +0.000 OA
ATOM     10  C   UNL     1       3.784   2.719  19.521  0.00  0.00    +0.000 A 
ATOM     11  C   UNL     1       4.142   3.549  18.452  0.00  0.00    +0.000 A 
ATOM     12  C   UNL     1       3.768   4.916  18.415  0.00  0.00    +0.000 A 
ATOM     13  H   UNL     1       2.088   4.886  21.369  0.00  0.00    +0.000 HD
BRANCH   5  14
ATOM     14  O   UNL     1       1.759   7.134  20.598  0.00  0.00    +0.000 OA
ATOM     15  H   UNL     1       1.049   6.597  20.979  0.00  0.00    +0.000 HD
ENDBRANCH   5  14
ENDBRANCH   1   2
BRANCH   1  16
ATOM     16  O   UNL     1       5.040   6.564  15.163  0.00  0.00    +0.000 OA
ATOM     17  H   UNL     1       5.912   7.026  15.045  0.00  0.00    +0.000 HD
ENDBRANCH   1  16
BRANCH   1  18
ATOM     18  C   UNL     1       6.721   5.485  16.548  0.00  0.00    +0.000 C 
BRANCH  18  19
ATOM     19  N   UNL     1       7.391   6.814  16.519  0.00  0.00    +0.000 NA
ATOM     20  H   UNL     1       8.063   6.796  15.716  0.00  0.00    +0.000 HD
BRANCH  19  21
ATOM     21  C   UNL     1       8.164   7.219  17.728  0.00  0.00    +0.000 C 
ATOM     22  C   UNL     1       7.706   6.416  18.956  0.00  0.00    +0.000 C 
BRANCH  21  23
ATOM     23  C   UNL     1       7.940   8.749  17.970  0.00  0.00    +0.000 C 
BRANCH  23  24
ATOM     24  C   UNL     1       8.846   9.476  18.999  0.00  0.00    +0.000 C 
BRANCH  24  29
ATOM     25  C   UNL     1      11.196  14.485  17.128  0.00  0.00    +0.000 C 
ATOM     26  C   UNL     1      10.599  13.208  17.650  0.00  0.00    +0.000 A 
ATOM     27  C   UNL     1      11.379  12.276  18.354  0.00  0.00    +0.000 A 
ATOM     28  C   UNL     1      10.810  11.080  18.814  0.00  0.00    +0.000 A 
ATOM     29  C   UNL     1       9.454  10.798  18.579  0.00  0.00    +0.000 A 
ATOM     30  C   UNL     1       8.678  11.737  17.876  0.00  0.00    +0.000 A 
ATOM     31  C   UNL     1       9.246  12.931  17.418  0.00  0.00    +0.000 A 
ENDBRANCH  24  29
ENDBRANCH  23  24
ENDBRANCH  21  23
ENDBRANCH  19  21
ENDBRANCH  18  19
ENDBRANCH   1  18
TORSDOF 9
ENDMDL
MODEL 5
REMARK VINA RESULT:      -8.2      2.831      4.580
REMARK  Name = 
REMARK  11 active torsions:
REMARK  status: ('A' for Active; 'I' for Inactive)
REMARK    1  A    between atoms: C_1  and  C_2
REMARK    2  A    between atoms: C_5  and  C_6
REMARK    3  A    between atoms: C_6  and  C_7
REMARK    4  A    between atoms: C_7  and  C_8
REMARK    5  A    between atoms: C_8  and  C_9
REMARK    6  A    between atoms: C_8  and  N_10
REMARK    7  A    between atoms: N_10  and  C_11
REMARK    8  A    between atoms: C_11  and  C_12
REMARK    9  A    between atoms: C_12  and  O_13
REMARK   10  A    between atoms: C_12  and  C_14
REMARK   11  A    between atoms: C_17  and  O_18
REMARK                            x       y       z     vdW  Elec       q    Type
REMARK                         _______ _______ _______ _____ _____    ______ ____
ROOT
ATOM      1  C   UNL     1       2.543   7.081  19.677  0.00  0.00    +0.000 C 
ENDROOT
BRANCH   1   2
ATOM      2  C   UNL     1       3.263   5.711  19.455  0.00  0.00    +0.000 A 
ATOM      3  C   UNL     1       2.736   4.651  20.219  0.00  0.00    +0.000 A 
ATOM      4  C   UNL     1       3.315   3.388  20.245  0.00  0.00    +0.000 A 
ATOM      5  C   UNL     1       4.482   3.126  19.538  0.00  0.00    +0.000 A 
ATOM      6  C   UNL     1       5.075   4.135  18.769  0.00  0.00    +0.000 A 
ATOM      7  N   UNL     1       6.260   3.870  18.130  0.00  0.00    +0.000 N 
ATOM      8  C   UNL     1       6.905   4.810  17.378  0.00  0.00    +0.000 A 
ATOM      9  O   UNL     1       7.973   4.545  16.848  0.00  0.00    +0.000 OA
ATOM     10  C   UNL     1       6.344   6.068  17.220  0.00  0.00    +0.000 A 
ATOM     11  C   UNL     1       5.141   6.381  17.863  0.00  0.00    +0.000 A 
ATOM     12  C   UNL     1       4.468   5.438  18.682  0.00  0.00    +0.000 A 
ATOM     13  H   UNL     1       6.717   2.931  18.226  0.00  0.00    +0.000 HD
BRANCH   5  14
ATOM     14  O   UNL     1       5.046   1.898  19.602  0.00  0.00    +0.000 OA
ATOM     15  H   UNL     1       5.889   1.730  20.046  0.00  0.00    +0.000 HD
ENDBRANCH   5  14
ENDBRANCH   1   2
BRANCH   1  16
ATOM     16  O   UNL     1       2.103   7.692  18.497  0.00  0.00    +0.000 OA
ATOM     17  H   UNL     1       1.403   7.105  18.104  0.00  0.00    +0.000 HD
ENDBRANCH   1  16
BRANCH   1  18
ATOM     18  C   UNL     1       1.419   7.192  20.776  0.00  0.00    +0.000 C 
BRANCH  18  19
ATOM     19  N   UNL     1       1.760   8.282  21.732  0.00  0.00    +0.000 NA
ATOM     20  H   UNL     1       1.757   7.855  22.689  0.00  0.00    +0.000 HD
BRANCH  19  21
ATOM     21  C   UNL     1       0.852   9.464  21.776  0.00  0.00    +0.000 C 
ATOM     22  C   UNL     1       0.097   9.516  23.114  0.00  0.00    +0.000 C 
BRANCH  21  23
ATOM     23  C   UNL     1      -0.163   9.353  20.589  0.00  0.00    +0.000 C 
BRANCH  23  24
ATOM     24  C   UNL     1      -0.119  10.433  19.477  0.00  0.00    +0.000 C 
BRANCH  24  29
ATOM     25  C   UNL     1      -5.301  11.721  17.108  0.00  0.00    +0.000 C 
ATOM     26  C   UNL     1      -3.948  11.403  17.682  0.00  0.00    +0.000 A 
ATOM     27  C   UNL     1      -3.126  10.423  17.103  0.00  0.00    +0.000 A 
ATOM     28  C   UNL     1      -1.877  10.124  17.665  0.00  0.00    +0.000 A 
ATOM     29  C   UNL     1      -1.429  10.802  18.812  0.00  0.00    +0.000 A 
ATOM     30  C   UNL     1      -2.256  11.784  19.385  0.00  0.00    +0.000 A 
ATOM     31  C   UNL     1      -3.503  12.083  18.823  0.00  0.00    +0.000 A 
ENDBRANCH  24  29
ENDBRANCH  23  24
ENDBRANCH  21  23
ENDBRANCH  19  21
ENDBRANCH  18  19
ENDBRANCH   1  18
TORSDOF 9
ENDMDL
MODEL 6
REMARK VINA RESULT:      -8.1      1.198      2.795
REMARK  Name = 
REMARK  11 active torsions:
REMARK  status: ('A' for Active; 'I' for Inactive)
REMARK    1  A    between atoms: C_1  and  C_2
REMARK    2  A    between atoms: C_5  and  C_6
REMARK    3  A    between atoms: C_6  and  C_7
REMARK    4  A    between atoms: C_7  and  C_8
REMARK    5  A    between atoms: C_8  and  C_9
REMARK    6  A    between atoms: C_8  and  N_10
REMARK    7  A    between atoms: N_10  and  C_11
REMARK    8  A    between atoms: C_11  and  C_12
REMARK    9  A    between atoms: C_12  and  O_13
REMARK   10  A    between atoms: C_12  and  C_14
REMARK   11  A    between atoms: C_17  and  O_18
REMARK                            x       y       z     vdW  Elec       q    Type
REMARK                         _______ _______ _______ _____ _____    ______ ____
ROOT
ATOM      1  C   UNL     1       3.379   3.197  17.348  0.00  0.00    +0.000 C 
ENDROOT
BRANCH   1   2
ATOM      2  C   UNL     1       4.569   3.986  16.709  0.00  0.00    +0.000 A 
ATOM      3  C   UNL     1       4.745   3.750  15.330  0.00  0.00    +0.000 A 
ATOM      4  C   UNL     1       5.817   4.267  14.613  0.00  0.00    +0.000 A 
ATOM      5  C   UNL     1       6.799   5.018  15.247  0.00  0.00    +0.000 A 
ATOM      6  C   UNL     1       6.702   5.281  16.620  0.00  0.00    +0.000 A 
ATOM      7  N   UNL     1       7.717   5.972  17.234  0.00  0.00    +0.000 N 
ATOM      8  C   UNL     1       7.699   6.249  18.571  0.00  0.00    +0.000 A 
ATOM      9  O   UNL     1       8.635   6.842  19.087  0.00  0.00    +0.000 OA
ATOM     10  C   UNL     1       6.618   5.853  19.342  0.00  0.00    +0.000 A 
ATOM     11  C   UNL     1       5.568   5.137  18.755  0.00  0.00    +0.000 A 
ATOM     12  C   UNL     1       5.576   4.801  17.377  0.00  0.00    +0.000 A 
ATOM     13  H   UNL     1       8.553   6.288  16.685  0.00  0.00    +0.000 HD
BRANCH   5  14
ATOM     14  O   UNL     1       7.850   5.487  14.536  0.00  0.00    +0.000 OA
ATOM     15  H   UNL     1       8.681   4.999  14.444  0.00  0.00    +0.000 HD
ENDBRANCH   5  14
ENDBRANCH   1   2
BRANCH   1  16
ATOM     16  O   UNL     1       2.392   2.817  16.431  0.00  0.00    +0.000 OA
ATOM     17  H   UNL     1       2.334   3.535  15.746  0.00  0.00    +0.000 HD
ENDBRANCH   1  16
BRANCH   1  18
ATOM     18  C   UNL     1       3.684   1.995  18.320  0.00  0.00    +0.000 C 
BRANCH  18  19
ATOM     19  N   UNL     1       2.410   1.486  18.899  0.00  0.00    +0.000 NA
ATOM     20  H   UNL     1       1.732   1.396  18.105  0.00  0.00    +0.000 HD
BRANCH  19  21
ATOM     21  C   UNL     1       1.752   2.320  19.946  0.00  0.00    +0.000 C 
ATOM     22  C   UNL     1       0.404   2.858  19.439  0.00  0.00    +0.000 C 
BRANCH  21  23
ATOM     23  C   UNL     1       2.706   3.508  20.305  0.00  0.00    +0.000 C 
BRANCH  23  24
ATOM     24  C   UNL     1       2.103   4.755  21.001  0.00  0.00    +0.000 C 
BRANCH  24  29
ATOM     25  C   UNL     1       1.774   9.728  17.956  0.00  0.00    +0.000 C 
ATOM     26  C   UNL     1       1.902   8.449  18.735  0.00  0.00    +0.000 A 
ATOM     27  C   UNL     1       2.387   7.277  18.132  0.00  0.00    +0.000 A 
ATOM     28  C   UNL     1       2.478   6.087  18.868  0.00  0.00    +0.000 A 
ATOM     29  C   UNL     1       2.087   6.051  20.217  0.00  0.00    +0.000 A 
ATOM     30  C   UNL     1       1.605   7.229  20.816  0.00  0.00    +0.000 A 
ATOM     31  C   UNL     1       1.515   8.417  20.080  0.00  0.00    +0.000 A 
ENDBRANCH  24  29
ENDBRANCH  23  24
ENDBRANCH  21  23
ENDBRANCH  19  21
ENDBRANCH  18  19
ENDBRANCH   1  18
TORSDOF 9
ENDMDL
MODEL 7
REMARK VINA RESULT:      -8.1      3.400      7.130
REMARK  Name = 
REMARK  11 active torsions:
REMARK  status: ('A' for Active; 'I' for Inactive)
REMARK    1  A    between atoms: C_1  and  C_2
REMARK    2  A    between atoms: C_5  and  C_6
REMARK    3  A    between atoms: C_6  and  C_7
REMARK    4  A    between atoms: C_7  and  C_8
REMARK    5  A    between atoms: C_8  and  C_9
REMARK    6  A    between atoms: C_8  and  N_10
REMARK    7  A    between atoms: N_10  and  C_11
REMARK    8  A    between atoms: C_11  and  C_12
REMARK    9  A    between atoms: C_12  and  O_13
REMARK   10  A    between atoms: C_12  and  C_14
REMARK   11  A    between atoms: C_17  and  O_18
REMARK                            x       y       z     vdW  Elec       q    Type
REMARK                         _______ _______ _______ _____ _____    ______ ____
ROOT
ATOM      1  C   UNL     1       2.551   6.365  19.491  0.00  0.00    +0.000 C 
ENDROOT
BRANCH   1   2
ATOM      2  C   UNL     1       1.949   7.793  19.285  0.00  0.00    +0.000 A 
ATOM      3  C   UNL     1       2.227   8.361  18.024  0.00  0.00    +0.000 A 
ATOM      4  C   UNL     1       1.877   9.665  17.698  0.00  0.00    +0.000 A 
ATOM      5  C   UNL     1       1.266  10.492  18.632  0.00  0.00    +0.000 A 
ATOM      6  C   UNL     1       0.974  10.004  19.913  0.00  0.00    +0.000 A 
ATOM      7  N   UNL     1       0.426  10.859  20.836  0.00  0.00    +0.000 N 
ATOM      8  C   UNL     1       0.131  10.459  22.109  0.00  0.00    +0.000 A 
ATOM      9  O   UNL     1      -0.329  11.256  22.912  0.00  0.00    +0.000 OA
ATOM     10  C   UNL     1       0.359   9.145  22.487  0.00  0.00    +0.000 A 
ATOM     11  C   UNL     1       0.925   8.245  21.577  0.00  0.00    +0.000 A 
ATOM     12  C   UNL     1       1.277   8.641  20.261  0.00  0.00    +0.000 A 
ATOM     13  H   UNL     1       0.240  11.861  20.590  0.00  0.00    +0.000 HD
BRANCH   5  14
ATOM     14  O   UNL     1       0.962  11.769  18.304  0.00  0.00    +0.000 OA
ATOM     15  H   UNL     1       0.086  12.036  17.990  0.00  0.00    +0.000 HD
ENDBRANCH   5  14
ENDBRANCH   1   2
BRANCH   1  16
ATOM     16  O   UNL     1       3.847   6.364  20.021  0.00  0.00    +0.000 OA
ATOM     17  H   UNL     1       3.892   5.629  20.688  0.00  0.00    +0.000 HD
ENDBRANCH   1  16
BRANCH   1  18
ATOM     18  C   UNL     1       1.689   5.261  20.212  0.00  0.00    +0.000 C 
BRANCH  18  19
ATOM     19  N   UNL     1       2.215   3.911  19.867  0.00  0.00    +0.000 NA
ATOM     20  H   UNL     1       3.248   4.017  19.730  0.00  0.00    +0.000 HD
BRANCH  19  21
ATOM     21  C   UNL     1       1.674   3.257  18.641  0.00  0.00    +0.000 C 
ATOM     22  C   UNL     1       1.746   1.727  18.768  0.00  0.00    +0.000 C 
BRANCH  21  23
ATOM     23  C   UNL     1       2.516   3.736  17.411  0.00  0.00    +0.000 C 
BRANCH  23  24
ATOM     24  C   UNL     1       4.026   3.386  17.369  0.00  0.00    +0.000 C 
BRANCH  24  29
ATOM     25  C   UNL     1       7.727   7.899  17.586  0.00  0.00    +0.000 C 
ATOM     26  C   UNL     1       6.783   6.734  17.488  0.00  0.00    +0.000 A 
ATOM     27  C   UNL     1       5.622   6.804  16.702  0.00  0.00    +0.000 A 
ATOM     28  C   UNL     1       4.741   5.716  16.640  0.00  0.00    +0.000 A 
ATOM     29  C   UNL     1       5.008   4.539  17.361  0.00  0.00    +0.000 A 
ATOM     30  C   UNL     1       6.175   4.474  18.144  0.00  0.00    +0.000 A 
ATOM     31  C   UNL     1       7.055   5.561  18.204  0.00  0.00    +0.000 A 
ENDBRANCH  24  29
ENDBRANCH  23  24
ENDBRANCH  21  23
ENDBRANCH  19  21
ENDBRANCH  18  19
ENDBRANCH   1  18
TORSDOF 9
ENDMDL
MODEL 8
REMARK VINA RESULT:      -8.0      1.281      2.961
REMARK  Name = 
REMARK  11 active torsions:
REMARK  status: ('A' for Active; 'I' for Inactive)
REMARK    1  A    between atoms: C_1  and  C_2
REMARK    2  A    between atoms: C_5  and  C_6
REMARK    3  A    between atoms: C_6  and  C_7
REMARK    4  A    between atoms: C_7  and  C_8
REMARK    5  A    between atoms: C_8  and  C_9
REMARK    6  A    between atoms: C_8  and  N_10
REMARK    7  A    between atoms: N_10  and  C_11
REMARK    8  A    between atoms: C_11  and  C_12
REMARK    9  A    between atoms: C_12  and  O_13
REMARK   10  A    between atoms: C_12  and  C_14
REMARK   11  A    between atoms: C_17  and  O_18
REMARK                            x       y       z     vdW  Elec       q    Type
REMARK                         _______ _______ _______ _____ _____    ______ ____
ROOT
ATOM      1  C   UNL     1       3.524   3.367  17.201  0.00  0.00    +0.000 C 
ENDROOT
BRANCH   1   2
ATOM      2  C   UNL     1       4.688   4.131  16.489  0.00  0.00    +0.000 A 
ATOM      3  C   UNL     1       4.917   3.724  15.159  0.00  0.00    +0.000 A 
ATOM      4  C   UNL     1       5.979   4.203  14.402  0.00  0.00    +0.000 A 
ATOM      5  C   UNL     1       6.900   5.087  14.951  0.00  0.00    +0.000 A 
ATOM      6  C   UNL     1       6.749   5.523  16.273  0.00  0.00    +0.000 A 
ATOM      7  N   UNL     1       7.706   6.347  16.811  0.00  0.00    +0.000 N 
ATOM      8  C   UNL     1       7.634   6.798  18.098  0.00  0.00    +0.000 A 
ATOM      9  O   UNL     1       8.521   7.507  18.551  0.00  0.00    +0.000 OA
ATOM     10  C   UNL     1       6.554   6.446  18.892  0.00  0.00    +0.000 A 
ATOM     11  C   UNL     1       5.562   5.599  18.384  0.00  0.00    +0.000 A 
ATOM     12  C   UNL     1       5.629   5.084  17.063  0.00  0.00    +0.000 A 
ATOM     13  H   UNL     1       8.539   6.635  16.244  0.00  0.00    +0.000 HD
BRANCH   5  14
ATOM     14  O   UNL     1       7.945   5.517  14.206  0.00  0.00    +0.000 OA
ATOM     15  H   UNL     1       8.181   5.122  13.354  0.00  0.00    +0.000 HD
ENDBRANCH   5  14
ENDBRANCH   1   2
BRANCH   1  16
ATOM     16  O   UNL     1       2.467   3.020  16.352  0.00  0.00    +0.000 OA
ATOM     17  H   UNL     1       2.326   3.783  15.731  0.00  0.00    +0.000 HD
ENDBRANCH   1  16
BRANCH   1  18
ATOM     18  C   UNL     1       3.863   2.148  18.141  0.00  0.00    +0.000 C 
BRANCH  18  19
ATOM     19  N   UNL     1       2.600   1.536  18.641  0.00  0.00    +0.000 NA
ATOM     20  H   UNL     1       1.931   1.526  17.835  0.00  0.00    +0.000 HD
BRANCH  19  21
ATOM     21  C   UNL     1       1.911   2.216  19.775  0.00  0.00    +0.000 C 
ATOM     22  C   UNL     1       0.521   2.710  19.344  0.00  0.00    +0.000 C 
BRANCH  21  23
ATOM     23  C   UNL     1       2.793   3.425  20.237  0.00  0.00    +0.000 C 
BRANCH  23  24
ATOM     24  C   UNL     1       2.095   4.630  20.920  0.00  0.00    +0.000 C 
BRANCH  24  29
ATOM     25  C   UNL     1       2.015   9.620  17.886  0.00  0.00    +0.000 C 
ATOM     26  C   UNL     1       1.993   8.339  18.672  0.00  0.00    +0.000 A 
ATOM     27  C   UNL     1       1.640   8.328  20.032  0.00  0.00    +0.000 A 
ATOM     28  C   UNL     1       1.647   7.127  20.756  0.00  0.00    +0.000 A 
ATOM     29  C   UNL     1       2.005   5.920  20.132  0.00  0.00    +0.000 A 
ATOM     30  C   UNL     1       2.354   5.938  18.770  0.00  0.00    +0.000 A 
ATOM     31  C   UNL     1       2.346   7.137  18.047  0.00  0.00    +0.000 A 
ENDBRANCH  24  29
ENDBRANCH  23  24
ENDBRANCH  21  23
ENDBRANCH  19  21
ENDBRANCH  18  19
ENDBRANCH   1  18
TORSDOF 9
ENDMDL
MODEL 9
REMARK VINA RESULT:      -8.0      1.119      1.671
REMARK  Name = 
REMARK  11 active torsions:
REMARK  status: ('A' for Active; 'I' for Inactive)
REMARK    1  A    between atoms: C_1  and  C_2
REMARK    2  A    between atoms: C_5  and  C_6
REMARK    3  A    between atoms: C_6  and  C_7
REMARK    4  A    between atoms: C_7  and  C_8
REMARK    5  A    between atoms: C_8  and  C_9
REMARK    6  A    between atoms: C_8  and  N_10
REMARK    7  A    between atoms: N_10  and  C_11
REMARK    8  A    between atoms: C_11  and  C_12
REMARK    9  A    between atoms: C_12  and  O_13
REMARK   10  A    between atoms: C_12  and  C_14
REMARK   11  A    between atoms: C_17  and  O_18
REMARK                            x       y       z     vdW  Elec       q    Type
REMARK                         _______ _______ _______ _____ _____    ______ ____
ROOT
ATOM      1  C   UNL     1       4.733   2.772  18.751  0.00  0.00    +0.000 C 
ENDROOT
BRANCH   1   2
ATOM      2  C   UNL     1       5.688   3.929  18.309  0.00  0.00    +0.000 A 
ATOM      3  C   UNL     1       5.996   4.847  19.333  0.00  0.00    +0.000 A 
ATOM      4  C   UNL     1       6.733   6.003  19.105  0.00  0.00    +0.000 A 
ATOM      5  C   UNL     1       7.169   6.326  17.826  0.00  0.00    +0.000 A 
ATOM      6  C   UNL     1       6.887   5.471  16.753  0.00  0.00    +0.000 A 
ATOM      7  N   UNL     1       7.275   5.843  15.491  0.00  0.00    +0.000 N 
ATOM      8  C   UNL     1       7.019   5.068  14.395  0.00  0.00    +0.000 A 
ATOM      9  O   UNL     1       7.355   5.447  13.283  0.00  0.00    +0.000 OA
ATOM     10  C   UNL     1       6.373   3.851  14.549  0.00  0.00    +0.000 A 
ATOM     11  C   UNL     1       5.952   3.440  15.819  0.00  0.00    +0.000 A 
ATOM     12  C   UNL     1       6.171   4.241  16.969  0.00  0.00    +0.000 A 
ATOM     13  H   UNL     1       7.765   6.756  15.333  0.00  0.00    +0.000 HD
BRANCH   5  14
ATOM     14  O   UNL     1       7.859   7.472  17.621  0.00  0.00    +0.000 OA
ATOM     15  H   UNL     1       8.305   7.951  18.333  0.00  0.00    +0.000 HD
ENDBRANCH   5  14
ENDBRANCH   1   2
BRANCH   1  16
ATOM     16  O   UNL     1       4.643   2.607  20.138  0.00  0.00    +0.000 OA
ATOM     17  H   UNL     1       5.535   2.303  20.457  0.00  0.00    +0.000 HD
ENDBRANCH   1  16
BRANCH   1  18
ATOM     18  C   UNL     1       3.293   2.676  18.118  0.00  0.00    +0.000 C 
BRANCH  18  19
ATOM     19  N   UNL     1       2.267   2.902  19.173  0.00  0.00    +0.000 NA
ATOM     20  H   UNL     1       1.581   2.114  19.099  0.00  0.00    +0.000 HD
BRANCH  19  21
ATOM     21  C   UNL     1       1.486   4.171  19.109  0.00  0.00    +0.000 C 
ATOM     22  C   UNL     1       1.354   4.652  17.656  0.00  0.00    +0.000 C 
BRANCH  21  23
ATOM     23  C   UNL     1       2.225   5.251  19.969  0.00  0.00    +0.000 C 
BRANCH  23  24
ATOM     24  C   UNL     1       2.876   6.456  19.242  0.00  0.00    +0.000 C 
BRANCH  24  29
ATOM     25  C   UNL     1       0.151  11.622  19.219  0.00  0.00    +0.000 C 
ATOM     26  C   UNL     1       0.815  10.273  19.232  0.00  0.00    +0.000 A 
ATOM     27  C   UNL     1       0.834   9.485  20.395  0.00  0.00    +0.000 A 
ATOM     28  C   UNL     1       1.478   8.240  20.395  0.00  0.00    +0.000 A 
ATOM     29  C   UNL     1       2.108   7.761  19.234  0.00  0.00    +0.000 A 
ATOM     30  C   UNL     1       2.082   8.554  18.072  0.00  0.00    +0.000 A 
ATOM     31  C   UNL     1       1.439   9.797  18.072  0.00  0.00    +0.000 A 
ENDBRANCH  24  29
ENDBRANCH  23  24
ENDBRANCH  21  23
ENDBRANCH  19  21
ENDBRANCH  18  19
ENDBRANCH   1  18
TORSDOF 9
ENDMDL
