MODEL 1
REMARK VINA RESULT:      -9.1      0.000      0.000
REMARK  Name = 
REMARK  7 active torsions:
REMARK  status: ('A' for Active; 'I' for Inactive)
REMARK    1  A    between atoms: C_1  and  C_2
REMARK    2  A    between atoms: C_2  and  C_3
REMARK    3  A    between atoms: C_3  and  C_4
REMARK    4  A    between atoms: C_4  and  C_5
REMARK    5  A    between atoms: C_5  and  O_7
REMARK    6  A    between atoms: C_10  and  C_11
REMARK    7  A    between atoms: C_11  and  C_12
REMARK                            x       y       z     vdW  Elec       q    Type
REMARK                         _______ _______ _______ _____ _____    ______ ____
ROOT
ATOM      1  C   UNL     1       5.861   5.180  16.526  0.00  0.00    +0.000 C 
ATOM      2  O   UNL     1       6.056   6.526  17.046  0.00  0.00    +0.000 OA
ATOM      3  C   UNL     1       4.890   7.359  17.157  0.00  0.00    +0.000 C 
ATOM      4  C   UNL     1       3.777   6.806  18.093  0.00  0.00    +0.000 C 
ATOM      5  C   UNL     1       3.725   5.307  17.974  0.00  0.00    +0.000 A 
ATOM      6  C   UNL     1       4.676   4.615  17.251  0.00  0.00    +0.000 A 
ATOM      7  N   UNL     1       4.363   3.283  17.298  0.00  0.00    +0.000 N 
ATOM      8  C   UNL     1       3.251   3.088  18.082  0.00  0.00    +0.000 A 
ATOM      9  C   UNL     1       2.592   1.897  18.410  0.00  0.00    +0.000 A 
ATOM     10  C   UNL     1       1.470   1.983  19.235  0.00  0.00    +0.000 A 
ATOM     11  C   UNL     1       1.037   3.212  19.724  0.00  0.00    +0.000 A 
ATOM     12  C   UNL     1       1.714   4.393  19.393  0.00  0.00    +0.000 A 
ATOM     13  C   UNL     1       2.837   4.341  18.541  0.00  0.00    +0.000 A 
ATOM     14  H   UNL     1       4.864   2.549  16.808  0.00  0.00    +0.000 HD
ENDROOT
BRANCH   1  16
ATOM     15  C   UNL     1       7.800   4.823  18.203  0.00  0.00    +0.000 C 
ATOM     16  C   UNL     1       7.186   4.447  16.855  0.00  0.00    +0.000 C 
ENDBRANCH   1  16
BRANCH   1  17
ATOM     17  C   UNL     1       5.623   5.243  15.000  0.00  0.00    +0.000 C 
BRANCH  17  18
ATOM     18  C   UNL     1       6.778   4.778  14.134  0.00  0.00    +0.000 C 
ATOM     19  O   UNL     1       7.797   5.406  13.882  0.00  0.00    +0.000 OA
BRANCH  18  20
ATOM     20  O   UNL     1       6.581   3.531  13.643  0.00  0.00    +0.000 OA
ATOM     21  H   UNL     1       7.286   3.218  13.043  0.00  0.00    +0.000 HD
ENDBRANCH  18  20
ENDBRANCH  17  18
ENDBRANCH   1  17
BRANCH   4  22
ATOM     22  C   UNL     1       2.423   7.463  17.740  0.00  0.00    +0.000 C 
BRANCH  22  23
ATOM     23  C   UNL     1       1.774   8.280  18.837  0.00  0.00    +0.000 A 
ATOM     24  C   UNL     1       1.834   7.839  20.167  0.00  0.00    +0.000 A 
ATOM     25  C   UNL     1       1.276   8.600  21.197  0.00  0.00    +0.000 A 
ATOM     26  C   UNL     1       0.675   9.824  20.913  0.00  0.00    +0.000 A 
ATOM     27  C   UNL     1       0.614  10.276  19.596  0.00  0.00    +0.000 A 
ATOM     28  C   UNL     1       1.151   9.505  18.561  0.00  0.00    +0.000 A 
ENDBRANCH  22  23
ENDBRANCH   4  22
TORSDOF 6
ENDMDL
MODEL 2
REMARK VINA RESULT:      -9.0      1.070      1.436
REMARK  Name = 
REMARK  7 active torsions:
REMARK  status: ('A' for Active; 'I' for Inactive)
REMARK    1  A    between atoms: C_1  and  C_2
REMARK    2  A    between atoms: C_2  and  C_3
REMARK    3  A    between atoms: C_3  and  C_4
REMARK    4  A    between atoms: C_4  and  C_5
REMARK    5  A    between atoms: C_5  and  O_7
REMARK    6  A    between atoms: C_10  and  C_11
REMARK    7  A    between atoms: C_11  and  C_12
REMARK                            x       y       z     vdW  Elec       q    Type
REMARK                         _______ _______ _______ _____ _____    ______ ____
ROOT
ATOM      1  C   UNL     1       5.883   4.946  16.852  0.00  0.00    +0.000 C 
ATOM      2  O   UNL     1       5.932   6.401  16.817  0.00  0.00    +0.000 OA
ATOM      3  C   UNL     1       4.676   7.098  16.875  0.00  0.00    +0.000 C 
ATOM      4  C   UNL     1       3.838   6.832  18.159  0.00  0.00    +0.000 C 
ATOM      5  C   UNL     1       4.020   5.400  18.584  0.00  0.00    +0.000 A 
ATOM      6  C   UNL     1       4.943   4.582  17.963  0.00  0.00    +0.000 A 
ATOM      7  N   UNL     1       4.869   3.341  18.537  0.00  0.00    +0.000 N 
ATOM      8  C   UNL     1       3.948   3.348  19.556  0.00  0.00    +0.000 A 
ATOM      9  C   UNL     1       3.560   2.309  20.411  0.00  0.00    +0.000 A 
ATOM     10  C   UNL     1       2.588   2.589  21.373  0.00  0.00    +0.000 A 
ATOM     11  C   UNL     1       2.040   3.864  21.482  0.00  0.00    +0.000 A 
ATOM     12  C   UNL     1       2.446   4.894  20.624  0.00  0.00    +0.000 A 
ATOM     13  C   UNL     1       3.409   4.636  19.627  0.00  0.00    +0.000 A 
ATOM     14  H   UNL     1       5.400   2.529  18.239  0.00  0.00    +0.000 HD
ENDROOT
BRANCH   1  16
ATOM     15  C   UNL     1       7.932   5.070  18.428  0.00  0.00    +0.000 C 
ATOM     16  C   UNL     1       7.348   4.521  17.128  0.00  0.00    +0.000 C 
ENDBRANCH   1  16
BRANCH   1  17
ATOM     17  C   UNL     1       5.394   4.410  15.488  0.00  0.00    +0.000 C 
BRANCH  17  18
ATOM     18  C   UNL     1       6.418   4.425  14.369  0.00  0.00    +0.000 C 
ATOM     19  O   UNL     1       7.171   5.347  14.085  0.00  0.00    +0.000 OA
BRANCH  18  20
ATOM     20  O   UNL     1       6.439   3.260  13.678  0.00  0.00    +0.000 OA
ATOM     21  H   UNL     1       6.228   2.470  14.213  0.00  0.00    +0.000 HD
ENDBRANCH  18  20
ENDBRANCH  17  18
ENDBRANCH   1  17
BRANCH   4  22
ATOM     22  C   UNL     1       2.354   7.175  17.895  0.00  0.00    +0.000 C 
BRANCH  22  23
ATOM     23  C   UNL     1       1.796   8.352  18.666  0.00  0.00    +0.000 A 
ATOM     24  C   UNL     1       1.442   9.528  17.990  0.00  0.00    +0.000 A 
ATOM     25  C   UNL     1       0.888  10.609  18.680  0.00  0.00    +0.000 A 
ATOM     26  C   UNL     1       0.654  10.516  20.050  0.00  0.00    +0.000 A 
ATOM     27  C   UNL     1       0.995   9.350  20.732  0.00  0.00    +0.000 A 
ATOM     28  C   UNL     1       1.572   8.276  20.048  0.00  0.00    +0.000 A 
ENDBRANCH  22  23
ENDBRANCH   4  22
TORSDOF 6
ENDMDL
MODEL 3
REMARK VINA RESULT:      -8.8      1.103      1.287
REMARK  Name = 
REMARK  7 active torsions:
REMARK  status: ('A' for Active; 'I' for Inactive)
REMARK    1  A    between atoms: C_1  and  C_2
REMARK    2  A    between atoms: C_2  and  C_3
REMARK    3  A    between atoms: C_3  and  C_4
REMARK    4  A    between atoms: C_4  and  C_5
REMARK    5  A    between atoms: C_5  and  O_7
REMARK    6  A    between atoms: C_10  and  C_11
REMARK    7  A    between atoms: C_11  and  C_12
REMARK                            x       y       z     vdW  Elec       q    Type
REMARK                         _______ _______ _______ _____ _____    ______ ____
ROOT
ATOM      1  C   UNL     1       5.846   4.883  16.891  0.00  0.00    +0.000 C 
ATOM      2  O   UNL     1       5.897   6.337  16.833  0.00  0.00    +0.000 OA
ATOM      3  C   UNL     1       4.642   7.037  16.876  0.00  0.00    +0.000 C 
ATOM      4  C   UNL     1       3.800   6.792  18.162  0.00  0.00    +0.000 C 
ATOM      5  C   UNL     1       3.979   5.367  18.610  0.00  0.00    +0.000 A 
ATOM      6  C   UNL     1       4.902   4.538  18.005  0.00  0.00    +0.000 A 
ATOM      7  N   UNL     1       4.825   3.307  18.598  0.00  0.00    +0.000 N 
ATOM      8  C   UNL     1       3.901   3.330  19.615  0.00  0.00    +0.000 A 
ATOM      9  C   UNL     1       3.509   2.306  20.484  0.00  0.00    +0.000 A 
ATOM     10  C   UNL     1       2.536   2.602  21.439  0.00  0.00    +0.000 A 
ATOM     11  C   UNL     1       1.989   3.880  21.527  0.00  0.00    +0.000 A 
ATOM     12  C   UNL     1       2.399   4.895  20.654  0.00  0.00    +0.000 A 
ATOM     13  C   UNL     1       3.364   4.620  19.663  0.00  0.00    +0.000 A 
ATOM     14  H   UNL     1       5.356   2.489  18.314  0.00  0.00    +0.000 HD
ENDROOT
BRANCH   1  16
ATOM     15  C   UNL     1       7.942   5.149  18.385  0.00  0.00    +0.000 C 
ATOM     16  C   UNL     1       7.310   4.461  17.177  0.00  0.00    +0.000 C 
ENDBRANCH   1  16
BRANCH   1  17
ATOM     17  C   UNL     1       5.360   4.326  15.534  0.00  0.00    +0.000 C 
BRANCH  17  18
ATOM     18  C   UNL     1       6.334   4.461  14.379  0.00  0.00    +0.000 C 
ATOM     19  O   UNL     1       6.522   3.645  13.488  0.00  0.00    +0.000 OA
BRANCH  18  20
ATOM     20  O   UNL     1       7.010   5.635  14.414  0.00  0.00    +0.000 OA
ATOM     21  H   UNL     1       6.471   6.403  14.685  0.00  0.00    +0.000 HD
ENDBRANCH  18  20
ENDBRANCH  17  18
ENDBRANCH   1  17
BRANCH   4  22
ATOM     22  C   UNL     1       2.317   7.133  17.889  0.00  0.00    +0.000 C 
BRANCH  22  23
ATOM     23  C   UNL     1       1.765   8.337  18.622  0.00  0.00    +0.000 A 
ATOM     24  C   UNL     1       1.516   8.264  20.000  0.00  0.00    +0.000 A 
ATOM     25  C   UNL     1       1.046   9.378  20.700  0.00  0.00    +0.000 A 
ATOM     26  C   UNL     1       0.845  10.585  20.035  0.00  0.00    +0.000 A 
ATOM     27  C   UNL     1       1.094  10.672  18.667  0.00  0.00    +0.000 A 
ATOM     28  C   UNL     1       1.543   9.553  17.960  0.00  0.00    +0.000 A 
ENDBRANCH  22  23
ENDBRANCH   4  22
TORSDOF 6
ENDMDL
MODEL 4
REMARK VINA RESULT:      -8.5      2.702      5.173
REMARK  Name = 
REMARK  7 active torsions:
REMARK  status: ('A' for Active; 'I' for Inactive)
REMARK    1  A    between atoms: C_1  and  C_2
REMARK    2  A    between atoms: C_2  and  C_3
REMARK    3  A    between atoms: C_3  and  C_4
REMARK    4  A    between atoms: C_4  and  C_5
REMARK    5  A    between atoms: C_5  and  O_7
REMARK    6  A    between atoms: C_10  and  C_11
REMARK    7  A    between atoms: C_11  and  C_12
REMARK                            x       y       z     vdW  Elec       q    Type
REMARK                         _______ _______ _______ _____ _____    ______ ____
ROOT
ATOM      1  C   UNL     1       3.156   3.855  19.390  0.00  0.00    +0.000 C 
ATOM      2  O   UNL     1       2.168   4.075  18.343  0.00  0.00    +0.000 OA
ATOM      3  C   UNL     1       1.881   5.438  17.991  0.00  0.00    +0.000 C 
ATOM      4  C   UNL     1       3.101   6.248  17.462  0.00  0.00    +0.000 C 
ATOM      5  C   UNL     1       4.341   5.817  18.197  0.00  0.00    +0.000 A 
ATOM      6  C   UNL     1       4.321   4.742  19.063  0.00  0.00    +0.000 A 
ATOM      7  N   UNL     1       5.573   4.602  19.599  0.00  0.00    +0.000 N 
ATOM      8  C   UNL     1       6.423   5.536  19.060  0.00  0.00    +0.000 A 
ATOM      9  C   UNL     1       7.784   5.749  19.311  0.00  0.00    +0.000 A 
ATOM     10  C   UNL     1       8.418   6.782  18.618  0.00  0.00    +0.000 A 
ATOM     11  C   UNL     1       7.717   7.558  17.699  0.00  0.00    +0.000 A 
ATOM     12  C   UNL     1       6.358   7.326  17.454  0.00  0.00    +0.000 A 
ATOM     13  C   UNL     1       5.684   6.304  18.157  0.00  0.00    +0.000 A 
ATOM     14  H   UNL     1       5.829   3.922  20.308  0.00  0.00    +0.000 HD
ENDROOT
BRANCH   1  16
ATOM     15  C   UNL     1       3.382   1.766  17.880  0.00  0.00    +0.000 C 
ATOM     16  C   UNL     1       3.490   2.345  19.289  0.00  0.00    +0.000 C 
ENDBRANCH   1  16
BRANCH   1  17
ATOM     17  C   UNL     1       2.540   4.199  20.765  0.00  0.00    +0.000 C 
BRANCH  17  18
ATOM     18  C   UNL     1       1.476   3.243  21.268  0.00  0.00    +0.000 C 
ATOM     19  O   UNL     1       1.534   2.558  22.280  0.00  0.00    +0.000 OA
BRANCH  18  20
ATOM     20  O   UNL     1       0.387   3.218  20.462  0.00  0.00    +0.000 OA
ATOM     21  H   UNL     1       0.077   2.320  20.232  0.00  0.00    +0.000 HD
ENDBRANCH  18  20
ENDBRANCH  17  18
ENDBRANCH   1  17
BRANCH   4  22
ATOM     22  C   UNL     1       2.830   7.762  17.618  0.00  0.00    +0.000 C 
BRANCH  22  23
ATOM     23  C   UNL     1       1.970   8.166  18.796  0.00  0.00    +0.000 A 
ATOM     24  C   UNL     1       2.101   7.497  20.022  0.00  0.00    +0.000 A 
ATOM     25  C   UNL     1       1.345   7.883  21.131  0.00  0.00    +0.000 A 
ATOM     26  C   UNL     1       0.468   8.961  21.035  0.00  0.00    +0.000 A 
ATOM     27  C   UNL     1       0.333   9.638  19.825  0.00  0.00    +0.000 A 
ATOM     28  C   UNL     1       1.071   9.239  18.707  0.00  0.00    +0.000 A 
ENDBRANCH  22  23
ENDBRANCH   4  22
TORSDOF 6
ENDMDL
MODEL 5
REMARK VINA RESULT:      -7.9      0.873      1.366
REMARK  Name = 
REMARK  7 active torsions:
REMARK  status: ('A' for Active; 'I' for Inactive)
REMARK    1  A    between atoms: C_1  and  C_2
REMARK    2  A    between atoms: C_2  and  C_3
REMARK    3  A    between atoms: C_3  and  C_4
REMARK    4  A    between atoms: C_4  and  C_5
REMARK    5  A    between atoms: C_5  and  O_7
REMARK    6  A    between atoms: C_10  and  C_11
REMARK    7  A    between atoms: C_11  and  C_12
REMARK                            x       y       z     vdW  Elec       q    Type
REMARK                         _______ _______ _______ _____ _____    ______ ____
ROOT
ATOM      1  C   UNL     1       6.560   5.303  17.112  0.00  0.00    +0.000 C 
ATOM      2  O   UNL     1       6.597   6.643  17.681  0.00  0.00    +0.000 OA
ATOM      3  C   UNL     1       5.429   7.461  17.501  0.00  0.00    +0.000 C 
ATOM      4  C   UNL     1       4.122   6.881  18.118  0.00  0.00    +0.000 C 
ATOM      5  C   UNL     1       4.125   5.384  17.972  0.00  0.00    +0.000 A 
ATOM      6  C   UNL     1       5.238   4.713  17.506  0.00  0.00    +0.000 A 
ATOM      7  N   UNL     1       4.943   3.377  17.457  0.00  0.00    +0.000 N 
ATOM      8  C   UNL     1       3.672   3.158  17.930  0.00  0.00    +0.000 A 
ATOM      9  C   UNL     1       2.969   1.955  18.066  0.00  0.00    +0.000 A 
ATOM     10  C   UNL     1       1.674   2.015  18.581  0.00  0.00    +0.000 A 
ATOM     11  C   UNL     1       1.112   3.232  18.958  0.00  0.00    +0.000 A 
ATOM     12  C   UNL     1       1.833   4.426  18.823  0.00  0.00    +0.000 A 
ATOM     13  C   UNL     1       3.136   4.399  18.284  0.00  0.00    +0.000 A 
ATOM     14  H   UNL     1       5.563   2.657  17.101  0.00  0.00    +0.000 HD
ENDROOT
BRANCH   1  16
ATOM     15  C   UNL     1       8.195   5.147  19.111  0.00  0.00    +0.000 C 
ATOM     16  C   UNL     1       7.769   4.580  17.758  0.00  0.00    +0.000 C 
ENDBRANCH   1  16
BRANCH   1  17
ATOM     17  C   UNL     1       6.716   5.387  15.577  0.00  0.00    +0.000 C 
BRANCH  17  18
ATOM     18  C   UNL     1       5.840   4.443  14.773  0.00  0.00    +0.000 C 
ATOM     19  O   UNL     1       4.702   4.664  14.383  0.00  0.00    +0.000 OA
BRANCH  18  20
ATOM     20  O   UNL     1       6.465   3.273  14.498  0.00  0.00    +0.000 OA
ATOM     21  H   UNL     1       6.773   3.189  13.575  0.00  0.00    +0.000 HD
ENDBRANCH  18  20
ENDBRANCH  17  18
ENDBRANCH   1  17
BRANCH   4  22
ATOM     22  C   UNL     1       2.893   7.528  17.441  0.00  0.00    +0.000 C 
BRANCH  22  23
ATOM     23  C   UNL     1       1.995   8.352  18.339  0.00  0.00    +0.000 A 
ATOM     24  C   UNL     1       1.204   9.373  17.793  0.00  0.00    +0.000 A 
ATOM     25  C   UNL     1       0.339  10.115  18.601  0.00  0.00    +0.000 A 
ATOM     26  C   UNL     1       0.234   9.827  19.959  0.00  0.00    +0.000 A 
ATOM     27  C   UNL     1       1.010   8.811  20.513  0.00  0.00    +0.000 A 
ATOM     28  C   UNL     1       1.893   8.082  19.711  0.00  0.00    +0.000 A 
ENDBRANCH  22  23
ENDBRANCH   4  22
TORSDOF 6
ENDMDL
MODEL 6
REMARK VINA RESULT:      -7.7      0.992      1.115
REMARK  Name = 
REMARK  7 active torsions:
REMARK  status: ('A' for Active; 'I' for Inactive)
REMARK    1  A    between atoms: C_1  and  C_2
REMARK    2  A    between atoms: C_2  and  C_3
REMARK    3  A    between atoms: C_3  and  C_4
REMARK    4  A    between atoms: C_4  and  C_5
REMARK    5  A    between atoms: C_5  and  O_7
REMARK    6  A    between atoms: C_10  and  C_11
REMARK    7  A    between atoms: C_11  and  C_12
REMARK                            x       y       z     vdW  Elec       q    Type
REMARK                         _______ _______ _______ _____ _____    ______ ____
ROOT
ATOM      1  C   UNL     1       6.705   5.275  17.373  0.00  0.00    +0.000 C 
ATOM      2  O   UNL     1       6.713   6.618  17.936  0.00  0.00    +0.000 OA
ATOM      3  C   UNL     1       5.558   7.437  17.690  0.00  0.00    +0.000 C 
ATOM      4  C   UNL     1       4.219   6.862  18.239  0.00  0.00    +0.000 C 
ATOM      5  C   UNL     1       4.227   5.364  18.102  0.00  0.00    +0.000 A 
ATOM      6  C   UNL     1       5.363   4.689  17.700  0.00  0.00    +0.000 A 
ATOM      7  N   UNL     1       5.069   3.354  17.642  0.00  0.00    +0.000 N 
ATOM      8  C   UNL     1       3.774   3.138  18.048  0.00  0.00    +0.000 A 
ATOM      9  C   UNL     1       3.062   1.937  18.153  0.00  0.00    +0.000 A 
ATOM     10  C   UNL     1       1.741   2.002  18.597  0.00  0.00    +0.000 A 
ATOM     11  C   UNL     1       1.163   3.222  18.937  0.00  0.00    +0.000 A 
ATOM     12  C   UNL     1       1.892   4.414  18.834  0.00  0.00    +0.000 A 
ATOM     13  C   UNL     1       3.222   4.382  18.365  0.00  0.00    +0.000 A 
ATOM     14  H   UNL     1       5.706   2.630  17.324  0.00  0.00    +0.000 HD
ENDROOT
BRANCH   1  16
ATOM     15  C   UNL     1       8.302   5.194  19.408  0.00  0.00    +0.000 C 
ATOM     16  C   UNL     1       7.876   4.554  18.088  0.00  0.00    +0.000 C 
ENDBRANCH   1  16
BRANCH   1  17
ATOM     17  C   UNL     1       6.943   5.350  15.848  0.00  0.00    +0.000 C 
BRANCH  17  18
ATOM     18  C   UNL     1       5.696   5.462  14.992  0.00  0.00    +0.000 C 
ATOM     19  O   UNL     1       5.089   6.490  14.722  0.00  0.00    +0.000 OA
BRANCH  18  20
ATOM     20  O   UNL     1       5.293   4.260  14.513  0.00  0.00    +0.000 OA
ATOM     21  H   UNL     1       4.523   4.303  13.913  0.00  0.00    +0.000 HD
ENDBRANCH  18  20
ENDBRANCH  17  18
ENDBRANCH   1  17
BRANCH   4  22
ATOM     22  C   UNL     1       3.029   7.507  17.493  0.00  0.00    +0.000 C 
BRANCH  22  23
ATOM     23  C   UNL     1       2.052   8.286  18.348  0.00  0.00    +0.000 A 
ATOM     24  C   UNL     1       1.930   7.996  19.714  0.00  0.00    +0.000 A 
ATOM     25  C   UNL     1       1.063   8.732  20.526  0.00  0.00    +0.000 A 
ATOM     26  C   UNL     1       0.328   9.784  19.986  0.00  0.00    +0.000 A 
ATOM     27  C   UNL     1       0.445  10.087  18.631  0.00  0.00    +0.000 A 
ATOM     28  C   UNL     1       1.294   9.337  17.812  0.00  0.00    +0.000 A 
ENDBRANCH  22  23
ENDBRANCH   4  22
TORSDOF 6
ENDMDL
MODEL 7
REMARK VINA RESULT:      -7.7      2.680      5.272
REMARK  Name = 
REMARK  7 active torsions:
REMARK  status: ('A' for Active; 'I' for Inactive)
REMARK    1  A    between atoms: C_1  and  C_2
REMARK    2  A    between atoms: C_2  and  C_3
REMARK    3  A    between atoms: C_3  and  C_4
REMARK    4  A    between atoms: C_4  and  C_5
REMARK    5  A    between atoms: C_5  and  O_7
REMARK    6  A    between atoms: C_10  and  C_11
REMARK    7  A    between atoms: C_11  and  C_12
REMARK                            x       y       z     vdW  Elec       q    Type
REMARK                         _______ _______ _______ _____ _____    ______ ____
ROOT
ATOM      1  C   UNL     1       3.195   3.961  19.294  0.00  0.00    +0.000 C 
ATOM      2  O   UNL     1       2.187   4.217  18.274  0.00  0.00    +0.000 OA
ATOM      3  C   UNL     1       1.892   5.592  17.978  0.00  0.00    +0.000 C 
ATOM      4  C   UNL     1       3.101   6.424  17.457  0.00  0.00    +0.000 C 
ATOM      5  C   UNL     1       4.355   5.968  18.153  0.00  0.00    +0.000 A 
ATOM      6  C   UNL     1       4.352   4.861  18.979  0.00  0.00    +0.000 A 
ATOM      7  N   UNL     1       5.614   4.704  19.487  0.00  0.00    +0.000 N 
ATOM      8  C   UNL     1       6.453   5.659  18.967  0.00  0.00    +0.000 A 
ATOM      9  C   UNL     1       7.818   5.866  19.201  0.00  0.00    +0.000 A 
ATOM     10  C   UNL     1       8.437   6.925  18.536  0.00  0.00    +0.000 A 
ATOM     11  C   UNL     1       7.718   7.734  17.659  0.00  0.00    +0.000 A 
ATOM     12  C   UNL     1       6.355   7.507  17.430  0.00  0.00    +0.000 A 
ATOM     13  C   UNL     1       5.697   6.459  18.106  0.00  0.00    +0.000 A 
ATOM     14  H   UNL     1       5.884   3.999  20.165  0.00  0.00    +0.000 HD
ENDROOT
BRANCH   1  16
ATOM     15  C   UNL     1       2.868   1.787  17.927  0.00  0.00    +0.000 C 
ATOM     16  C   UNL     1       3.529   2.456  19.131  0.00  0.00    +0.000 C 
ENDBRANCH   1  16
BRANCH   1  17
ATOM     17  C   UNL     1       2.604   4.252  20.691  0.00  0.00    +0.000 C 
BRANCH  17  18
ATOM     18  C   UNL     1       1.525   3.296  21.163  0.00  0.00    +0.000 C 
ATOM     19  O   UNL     1       0.469   3.053  20.593  0.00  0.00    +0.000 OA
BRANCH  18  20
ATOM     20  O   UNL     1       1.851   2.689  22.329  0.00  0.00    +0.000 OA
ATOM     21  H   UNL     1       2.586   2.049  22.258  0.00  0.00    +0.000 HD
ENDBRANCH  18  20
ENDBRANCH  17  18
ENDBRANCH   1  17
BRANCH   4  22
ATOM     22  C   UNL     1       2.831   7.930  17.674  0.00  0.00    +0.000 C 
BRANCH  22  23
ATOM     23  C   UNL     1       1.987   8.287  18.879  0.00  0.00    +0.000 A 
ATOM     24  C   UNL     1       1.066   9.342  18.801  0.00  0.00    +0.000 A 
ATOM     25  C   UNL     1       0.250   9.659  19.889  0.00  0.00    +0.000 A 
ATOM     26  C   UNL     1       0.325   8.908  21.059  0.00  0.00    +0.000 A 
ATOM     27  C   UNL     1       1.232   7.854  21.148  0.00  0.00    +0.000 A 
ATOM     28  C   UNL     1       2.066   7.549  20.068  0.00  0.00    +0.000 A 
ENDBRANCH  22  23
ENDBRANCH   4  22
TORSDOF 6
ENDMDL
MODEL 8
REMARK VINA RESULT:      -7.5      1.543      1.692
REMARK  Name = 
REMARK  7 active torsions:
REMARK  status: ('A' for Active; 'I' for Inactive)
REMARK    1  A    between atoms: C_1  and  C_2
REMARK    2  A    between atoms: C_2  and  C_3
REMARK    3  A    between atoms: C_3  and  C_4
REMARK    4  A    between atoms: C_4  and  C_5
REMARK    5  A    between atoms: C_5  and  O_7
REMARK    6  A    between atoms: C_10  and  C_11
REMARK    7  A    between atoms: C_11  and  C_12
REMARK                            x       y       z     vdW  Elec       q    Type
REMARK                         _______ _______ _______ _____ _____    ______ ____
ROOT
ATOM      1  C   UNL     1       6.841   5.204  17.791  0.00  0.00    +0.000 C 
ATOM      2  O   UNL     1       6.809   6.660  17.776  0.00  0.00    +0.000 OA
ATOM      3  C   UNL     1       5.564   7.282  17.418  0.00  0.00    +0.000 C 
ATOM      4  C   UNL     1       4.368   6.940  18.354  0.00  0.00    +0.000 C 
ATOM      5  C   UNL     1       4.489   5.512  18.813  0.00  0.00    +0.000 A 
ATOM      6  C   UNL     1       5.613   4.763  18.530  0.00  0.00    +0.000 A 
ATOM      7  N   UNL     1       5.431   3.508  19.047  0.00  0.00    +0.000 N 
ATOM      8  C   UNL     1       4.228   3.439  19.706  0.00  0.00    +0.000 A 
ATOM      9  C   UNL     1       3.645   2.362  20.384  0.00  0.00    +0.000 A 
ATOM     10  C   UNL     1       2.397   2.565  20.973  0.00  0.00    +0.000 A 
ATOM     11  C   UNL     1       1.765   3.804  20.897  0.00  0.00    +0.000 A 
ATOM     12  C   UNL     1       2.367   4.873  20.222  0.00  0.00    +0.000 A 
ATOM     13  C   UNL     1       3.618   4.692  19.596  0.00  0.00    +0.000 A 
ATOM     14  H   UNL     1       6.080   2.735  18.939  0.00  0.00    +0.000 HD
ENDROOT
BRANCH   1  16
ATOM     15  C   UNL     1       8.310   5.528  19.898  0.00  0.00    +0.000 C 
ATOM     16  C   UNL     1       8.158   4.859  18.533  0.00  0.00    +0.000 C 
ENDBRANCH   1  16
BRANCH   1  17
ATOM     17  C   UNL     1       6.862   4.670  16.341  0.00  0.00    +0.000 C 
BRANCH  17  18
ATOM     18  C   UNL     1       5.565   4.059  15.846  0.00  0.00    +0.000 C 
ATOM     19  O   UNL     1       4.656   4.646  15.274  0.00  0.00    +0.000 OA
BRANCH  18  20
ATOM     20  O   UNL     1       5.497   2.729  16.095  0.00  0.00    +0.000 OA
ATOM     21  H   UNL     1       6.266   2.219  15.773  0.00  0.00    +0.000 HD
ENDBRANCH  18  20
ENDBRANCH  17  18
ENDBRANCH   1  17
BRANCH   4  22
ATOM     22  C   UNL     1       3.036   7.202  17.616  0.00  0.00    +0.000 C 
BRANCH  22  23
ATOM     23  C   UNL     1       2.062   8.129  18.312  0.00  0.00    +0.000 A 
ATOM     24  C   UNL     1       1.911   8.070  19.705  0.00  0.00    +0.000 A 
ATOM     25  C   UNL     1       1.048   8.946  20.367  0.00  0.00    +0.000 A 
ATOM     26  C   UNL     1       0.345   9.909  19.648  0.00  0.00    +0.000 A 
ATOM     27  C   UNL     1       0.490   9.982  18.264  0.00  0.00    +0.000 A 
ATOM     28  C   UNL     1       1.336   9.092  17.596  0.00  0.00    +0.000 A 
ENDBRANCH  22  23
ENDBRANCH   4  22
TORSDOF 6
ENDMDL
MODEL 9
REMARK VINA RESULT:      -7.5      1.359      1.586
REMARK  Name = 
REMARK  7 active torsions:
REMARK  status: ('A' for Active; 'I' for Inactive)
REMARK    1  A    between atoms: C_1  and  C_2
REMARK    2  A    between atoms: C_2  and  C_3
REMARK    3  A    between atoms: C_3  and  C_4
REMARK    4  A    between atoms: C_4  and  C_5
REMARK    5  A    between atoms: C_5  and  O_7
REMARK    6  A    between atoms: C_10  and  C_11
REMARK    7  A    between atoms: C_11  and  C_12
REMARK                            x       y       z     vdW  Elec       q    Type
REMARK                         _______ _______ _______ _____ _____    ______ ____
ROOT
ATOM      1  C   UNL     1       5.640   5.619  16.938  0.00  0.00    +0.000 C 
ATOM      2  O   UNL     1       5.665   7.068  17.085  0.00  0.00    +0.000 OA
ATOM      3  C   UNL     1       4.403   7.752  17.027  0.00  0.00    +0.000 C 
ATOM      4  C   UNL     1       3.378   7.332  18.120  0.00  0.00    +0.000 C 
ATOM      5  C   UNL     1       3.519   5.859  18.394  0.00  0.00    +0.000 A 
ATOM      6  C   UNL     1       4.545   5.123  17.834  0.00  0.00    +0.000 A 
ATOM      7  N   UNL     1       4.406   3.822  18.236  0.00  0.00    +0.000 N 
ATOM      8  C   UNL     1       3.335   3.704  19.090  0.00  0.00    +0.000 A 
ATOM      9  C   UNL     1       2.838   2.569  19.741  0.00  0.00    +0.000 A 
ATOM     10  C   UNL     1       1.722   2.730  20.563  0.00  0.00    +0.000 A 
ATOM     11  C   UNL     1       1.139   3.983  20.736  0.00  0.00    +0.000 A 
ATOM     12  C   UNL     1       1.654   5.109  20.083  0.00  0.00    +0.000 A 
ATOM     13  C   UNL     1       2.767   4.974  19.228  0.00  0.00    +0.000 A 
ATOM     14  H   UNL     1       4.993   3.052  17.930  0.00  0.00    +0.000 HD
ENDROOT
BRANCH   1  16
ATOM     15  C   UNL     1       7.647   5.987  18.531  0.00  0.00    +0.000 C 
ATOM     16  C   UNL     1       7.052   5.165  17.389  0.00  0.00    +0.000 C 
ENDBRANCH   1  16
BRANCH   1  17
ATOM     17  C   UNL     1       5.383   5.253  15.459  0.00  0.00    +0.000 C 
BRANCH  17  18
ATOM     18  C   UNL     1       6.131   4.039  14.941  0.00  0.00    +0.000 C 
ATOM     19  O   UNL     1       6.877   4.005  13.972  0.00  0.00    +0.000 OA
BRANCH  18  20
ATOM     20  O   UNL     1       5.901   2.936  15.692  0.00  0.00    +0.000 OA
ATOM     21  H   UNL     1       5.188   3.039  16.352  0.00  0.00    +0.000 HD
ENDBRANCH  18  20
ENDBRANCH  17  18
ENDBRANCH   1  17
BRANCH   4  22
ATOM     22  C   UNL     1       1.948   7.704  17.667  0.00  0.00    +0.000 C 
BRANCH  22  23
ATOM     23  C   UNL     1       1.468   9.087  18.050  0.00  0.00    +0.000 A 
ATOM     24  C   UNL     1       2.372  10.159  18.083  0.00  0.00    +0.000 A 
ATOM     25  C   UNL     1       1.938  11.450  18.394  0.00  0.00    +0.000 A 
ATOM     26  C   UNL     1       0.590  11.689  18.650  0.00  0.00    +0.000 A 
ATOM     27  C   UNL     1      -0.319  10.634  18.615  0.00  0.00    +0.000 A 
ATOM     28  C   UNL     1       0.116   9.338  18.327  0.00  0.00    +0.000 A 
ENDBRANCH  22  23
ENDBRANCH   4  22
TORSDOF 6
ENDMDL
