MODEL 1
REMARK VINA RESULT:      -8.2      0.000      0.000
REMARK  Name = 
REMARK  3 active torsions:
REMARK  status: ('A' for Active; 'I' for Inactive)
REMARK    1  A    between atoms: N_10  and  C_11
REMARK    2  A    between atoms: C_11  and  C_12
REMARK    3  A    between atoms: N_22  and  O_23
REMARK                            x       y       z     vdW  Elec       q    Type
REMARK                         _______ _______ _______ _____ _____    ______ ____
ROOT
ATOM      1  O   UNL     1       3.807   1.912  21.561  0.00  0.00    +0.000 OA
ATOM      2  C   UNL     1       3.195   2.811  20.996  0.00  0.00    +0.000 C 
ATOM      3  C   UNL     1       3.802   3.615  19.862  0.00  0.00    +0.000 A 
ATOM      4  N   UNL     1       5.040   3.233  19.453  0.00  0.00    +0.000 NA
ATOM      5  C   UNL     1       5.698   3.974  18.533  0.00  0.00    +0.000 A 
ATOM      6  C   UNL     1       5.105   5.125  18.024  0.00  0.00    +0.000 A 
ATOM      7  C   UNL     1       3.822   5.515  18.429  0.00  0.00    +0.000 A 
ATOM      8  C   UNL     1       3.521   6.730  17.754  0.00  0.00    +0.000 A 
ATOM      9  C   UNL     1       4.597   7.046  16.961  0.00  0.00    +0.000 A 
ATOM     10  N   UNL     1       5.544   6.061  17.109  0.00  0.00    +0.000 N 
ATOM     11  C   UNL     1       3.116   4.730  19.361  0.00  0.00    +0.000 A 
ATOM     12  C   UNL     1       1.752   5.105  19.877  0.00  0.00    +0.000 C 
ATOM     13  C   UNL     1       1.038   3.894  20.446  0.00  0.00    +0.000 C 
ATOM     14  N   UNL     1       1.934   3.248  21.383  0.00  0.00    +0.000 N 
ENDROOT
BRANCH  14  15
ATOM     15  O   UNL     1       1.253   2.479  22.344  0.00  0.00    +0.000 OA
ATOM     16  H   UNL     1       0.657   1.964  21.767  0.00  0.00    +0.000 HD
ENDBRANCH  14  15
BRANCH  10  17
ATOM     17  C   UNL     1       6.729   5.952  16.262  0.00  0.00    +0.000 C 
BRANCH  17  18
ATOM     18  C   UNL     1       6.502   5.194  14.977  0.00  0.00    +0.000 A 
ATOM     19  C   UNL     1       7.464   5.222  13.954  0.00  0.00    +0.000 A 
ATOM     20  C   UNL     1       7.311   4.429  12.813  0.00  0.00    +0.000 A 
ATOM     21  C   UNL     1       6.196   3.612  12.688  0.00  0.00    +0.000 A 
ATOM     22  F   UNL     1       6.071   2.823  11.612  0.00  0.00    +0.000 F 
ATOM     23  C   UNL     1       5.216   3.589  13.673  0.00  0.00    +0.000 A 
ATOM     24  C   UNL     1       5.365   4.384  14.813  0.00  0.00    +0.000 A 
ENDBRANCH  17  18
ENDBRANCH  10  17
TORSDOF 3
ENDMDL
MODEL 2
REMARK VINA RESULT:      -8.1      5.775      7.576
REMARK  Name = 
REMARK  3 active torsions:
REMARK  status: ('A' for Active; 'I' for Inactive)
REMARK    1  A    between atoms: N_10  and  C_11
REMARK    2  A    between atoms: C_11  and  C_12
REMARK    3  A    between atoms: N_22  and  O_23
REMARK                            x       y       z     vdW  Elec       q    Type
REMARK                         _______ _______ _______ _____ _____    ______ ____
ROOT
ATOM      1  O   UNL     1      -1.281  11.541  22.969  0.00  0.00    +0.000 OA
ATOM      2  C   UNL     1      -1.183  11.477  21.749  0.00  0.00    +0.000 C 
ATOM      3  C   UNL     1      -0.330  10.429  21.059  0.00  0.00    +0.000 A 
ATOM      4  N   UNL     1       0.262   9.513  21.867  0.00  0.00    +0.000 NA
ATOM      5  C   UNL     1       1.134   8.623  21.342  0.00  0.00    +0.000 A 
ATOM      6  C   UNL     1       1.423   8.663  19.981  0.00  0.00    +0.000 A 
ATOM      7  C   UNL     1       0.801   9.595  19.140  0.00  0.00    +0.000 A 
ATOM      8  C   UNL     1       1.327   9.394  17.833  0.00  0.00    +0.000 A 
ATOM      9  C   UNL     1       2.228   8.360  17.898  0.00  0.00    +0.000 A 
ATOM     10  N   UNL     1       2.268   7.906  19.195  0.00  0.00    +0.000 N 
ATOM     11  C   UNL     1      -0.134  10.503  19.673  0.00  0.00    +0.000 A 
ATOM     12  C   UNL     1      -0.811  11.559  18.842  0.00  0.00    +0.000 C 
ATOM     13  C   UNL     1      -2.083  12.041  19.513  0.00  0.00    +0.000 C 
ATOM     14  N   UNL     1      -1.759  12.395  20.880  0.00  0.00    +0.000 N 
ENDROOT
BRANCH  14  15
ATOM     15  O   UNL     1      -2.662  13.324  21.429  0.00  0.00    +0.000 OA
ATOM     16  H   UNL     1      -2.458  13.227  22.380  0.00  0.00    +0.000 HD
ENDBRANCH  14  15
BRANCH  10  17
ATOM     17  C   UNL     1       2.956   6.682  19.597  0.00  0.00    +0.000 C 
BRANCH  17  18
ATOM     18  C   UNL     1       2.175   5.419  19.333  0.00  0.00    +0.000 A 
ATOM     19  C   UNL     1       2.152   4.849  18.049  0.00  0.00    +0.000 A 
ATOM     20  C   UNL     1       1.527   3.618  17.828  0.00  0.00    +0.000 A 
ATOM     21  C   UNL     1       0.918   2.957  18.885  0.00  0.00    +0.000 A 
ATOM     22  F   UNL     1       0.354   1.759  18.680  0.00  0.00    +0.000 F 
ATOM     23  C   UNL     1       0.901   3.514  20.158  0.00  0.00    +0.000 A 
ATOM     24  C   UNL     1       1.522   4.746  20.381  0.00  0.00    +0.000 A 
ENDBRANCH  17  18
ENDBRANCH  10  17
TORSDOF 3
ENDMDL
MODEL 3
REMARK VINA RESULT:      -8.1      0.131      1.016
REMARK  Name = 
REMARK  3 active torsions:
REMARK  status: ('A' for Active; 'I' for Inactive)
REMARK    1  A    between atoms: N_10  and  C_11
REMARK    2  A    between atoms: C_11  and  C_12
REMARK    3  A    between atoms: N_22  and  O_23
REMARK                            x       y       z     vdW  Elec       q    Type
REMARK                         _______ _______ _______ _____ _____    ______ ____
ROOT
ATOM      1  O   UNL     1       3.741   1.932  21.630  0.00  0.00    +0.000 OA
ATOM      2  C   UNL     1       3.127   2.821  21.053  0.00  0.00    +0.000 C 
ATOM      3  C   UNL     1       3.742   3.633  19.929  0.00  0.00    +0.000 A 
ATOM      4  N   UNL     1       4.992   3.269  19.542  0.00  0.00    +0.000 NA
ATOM      5  C   UNL     1       5.656   4.018  18.633  0.00  0.00    +0.000 A 
ATOM      6  C   UNL     1       5.055   5.160  18.112  0.00  0.00    +0.000 A 
ATOM      7  C   UNL     1       3.759   5.530  18.493  0.00  0.00    +0.000 A 
ATOM      8  C   UNL     1       3.453   6.740  17.811  0.00  0.00    +0.000 A 
ATOM      9  C   UNL     1       4.537   7.070  17.036  0.00  0.00    +0.000 A 
ATOM     10  N   UNL     1       5.496   6.100  17.203  0.00  0.00    +0.000 N 
ATOM     11  C   UNL     1       3.048   4.737  19.414  0.00  0.00    +0.000 A 
ATOM     12  C   UNL     1       1.670   5.092  19.904  0.00  0.00    +0.000 C 
ATOM     13  C   UNL     1       0.964   3.871  20.462  0.00  0.00    +0.000 C 
ATOM     14  N   UNL     1       1.853   3.240  21.417  0.00  0.00    +0.000 N 
ENDROOT
BRANCH  14  15
ATOM     15  O   UNL     1       1.166   2.462  22.367  0.00  0.00    +0.000 OA
ATOM     16  H   UNL     1       0.244   2.714  22.168  0.00  0.00    +0.000 HD
ENDBRANCH  14  15
BRANCH  10  17
ATOM     17  C   UNL     1       6.698   6.008  16.378  0.00  0.00    +0.000 C 
BRANCH  17  18
ATOM     18  C   UNL     1       6.541   5.140  15.154  0.00  0.00    +0.000 A 
ATOM     19  C   UNL     1       5.409   4.322  14.999  0.00  0.00    +0.000 A 
ATOM     20  C   UNL     1       5.205   3.607  13.816  0.00  0.00    +0.000 A 
ATOM     21  C   UNL     1       6.131   3.702  12.786  0.00  0.00    +0.000 A 
ATOM     22  F   UNL     1       5.913   3.048  11.637  0.00  0.00    +0.000 F 
ATOM     23  C   UNL     1       7.273   4.481  12.926  0.00  0.00    +0.000 A 
ATOM     24  C   UNL     1       7.482   5.194  14.110  0.00  0.00    +0.000 A 
ENDBRANCH  17  18
ENDBRANCH  10  17
TORSDOF 3
ENDMDL
MODEL 4
REMARK VINA RESULT:      -8.0      5.184      7.406
REMARK  Name = 
REMARK  3 active torsions:
REMARK  status: ('A' for Active; 'I' for Inactive)
REMARK    1  A    between atoms: N_10  and  C_11
REMARK    2  A    between atoms: C_11  and  C_12
REMARK    3  A    between atoms: N_22  and  O_23
REMARK                            x       y       z     vdW  Elec       q    Type
REMARK                         _______ _______ _______ _____ _____    ______ ____
ROOT
ATOM      1  O   UNL     1       5.195   4.038  17.789  0.00  0.00    +0.000 OA
ATOM      2  C   UNL     1       4.362   4.195  18.674  0.00  0.00    +0.000 C 
ATOM      3  C   UNL     1       3.511   5.447  18.773  0.00  0.00    +0.000 A 
ATOM      4  N   UNL     1       3.668   6.358  17.777  0.00  0.00    +0.000 NA
ATOM      5  C   UNL     1       3.037   7.551  17.857  0.00  0.00    +0.000 A 
ATOM      6  C   UNL     1       2.243   7.837  18.964  0.00  0.00    +0.000 A 
ATOM      7  C   UNL     1       2.063   6.895  19.984  0.00  0.00    +0.000 A 
ATOM      8  C   UNL     1       1.231   7.498  20.968  0.00  0.00    +0.000 A 
ATOM      9  C   UNL     1       0.917   8.762  20.533  0.00  0.00    +0.000 A 
ATOM     10  N   UNL     1       1.513   8.955  19.309  0.00  0.00    +0.000 N 
ATOM     11  C   UNL     1       2.689   5.637  19.892  0.00  0.00    +0.000 A 
ATOM     12  C   UNL     1       2.578   4.589  20.968  0.00  0.00    +0.000 C 
ATOM     13  C   UNL     1       2.904   3.214  20.417  0.00  0.00    +0.000 C 
ATOM     14  N   UNL     1       4.171   3.301  19.721  0.00  0.00    +0.000 N 
ENDROOT
BRANCH  14  15
ATOM     15  O   UNL     1       4.833   2.062  19.638  0.00  0.00    +0.000 OA
ATOM     16  H   UNL     1       5.736   2.359  19.417  0.00  0.00    +0.000 HD
ENDBRANCH  14  15
BRANCH  10  17
ATOM     17  C   UNL     1       1.228  10.102  18.450  0.00  0.00    +0.000 C 
BRANCH  17  18
ATOM     18  C   UNL     1      -0.221  10.521  18.439  0.00  0.00    +0.000 A 
ATOM     19  C   UNL     1      -0.647  11.635  19.183  0.00  0.00    +0.000 A 
ATOM     20  C   UNL     1      -1.963  12.095  19.083  0.00  0.00    +0.000 A 
ATOM     21  C   UNL     1      -2.858  11.442  18.246  0.00  0.00    +0.000 A 
ATOM     22  F   UNL     1      -4.108  11.909  18.121  0.00  0.00    +0.000 F 
ATOM     23  C   UNL     1      -2.469  10.322  17.523  0.00  0.00    +0.000 A 
ATOM     24  C   UNL     1      -1.155   9.857  17.624  0.00  0.00    +0.000 A 
ENDBRANCH  17  18
ENDBRANCH  10  17
TORSDOF 3
ENDMDL
MODEL 5
REMARK VINA RESULT:      -8.0      5.485      7.305
REMARK  Name = 
REMARK  3 active torsions:
REMARK  status: ('A' for Active; 'I' for Inactive)
REMARK    1  A    between atoms: N_10  and  C_11
REMARK    2  A    between atoms: C_11  and  C_12
REMARK    3  A    between atoms: N_22  and  O_23
REMARK                            x       y       z     vdW  Elec       q    Type
REMARK                         _______ _______ _______ _____ _____    ______ ____
ROOT
ATOM      1  O   UNL     1      -1.014  10.976  23.239  0.00  0.00    +0.000 OA
ATOM      2  C   UNL     1      -0.953  10.981  22.015  0.00  0.00    +0.000 C 
ATOM      3  C   UNL     1      -0.082  10.007  21.244  0.00  0.00    +0.000 A 
ATOM      4  N   UNL     1       0.573   9.075  21.983  0.00  0.00    +0.000 NA
ATOM      5  C   UNL     1       1.463   8.251  21.385  0.00  0.00    +0.000 A 
ATOM      6  C   UNL     1       1.705   8.375  20.020  0.00  0.00    +0.000 A 
ATOM      7  C   UNL     1       1.019   9.322  19.249  0.00  0.00    +0.000 A 
ATOM      8  C   UNL     1       1.509   9.211  17.918  0.00  0.00    +0.000 A 
ATOM      9  C   UNL     1       2.453   8.215  17.901  0.00  0.00    +0.000 A 
ATOM     10  N   UNL     1       2.553   7.695  19.169  0.00  0.00    +0.000 N 
ATOM     11  C   UNL     1       0.066  10.160  19.858  0.00  0.00    +0.000 A 
ATOM     12  C   UNL     1      -0.680  11.230  19.106  0.00  0.00    +0.000 C 
ATOM     13  C   UNL     1      -1.948  11.622  19.841  0.00  0.00    +0.000 C 
ATOM     14  N   UNL     1      -1.593  11.918  21.214  0.00  0.00    +0.000 N 
ENDROOT
BRANCH  14  15
ATOM     15  O   UNL     1      -2.515  12.778  21.840  0.00  0.00    +0.000 OA
ATOM     16  H   UNL     1      -1.908  13.453  22.201  0.00  0.00    +0.000 HD
ENDBRANCH  14  15
BRANCH  10  17
ATOM     17  C   UNL     1       3.303   6.482  19.484  0.00  0.00    +0.000 C 
BRANCH  17  18
ATOM     18  C   UNL     1       2.520   5.206  19.297  0.00  0.00    +0.000 A 
ATOM     19  C   UNL     1       1.775   4.664  20.358  0.00  0.00    +0.000 A 
ATOM     20  C   UNL     1       0.956   3.550  20.156  0.00  0.00    +0.000 A 
ATOM     21  C   UNL     1       0.884   2.969  18.897  0.00  0.00    +0.000 A 
ATOM     22  F   UNL     1       0.069   1.925  18.696  0.00  0.00    +0.000 F 
ATOM     23  C   UNL     1       1.634   3.468  17.839  0.00  0.00    +0.000 A 
ATOM     24  C   UNL     1       2.456   4.580  18.039  0.00  0.00    +0.000 A 
ENDBRANCH  17  18
ENDBRANCH  10  17
TORSDOF 3
ENDMDL
MODEL 6
REMARK VINA RESULT:      -7.9      5.195      7.434
REMARK  Name = 
REMARK  3 active torsions:
REMARK  status: ('A' for Active; 'I' for Inactive)
REMARK    1  A    between atoms: N_10  and  C_11
REMARK    2  A    between atoms: C_11  and  C_12
REMARK    3  A    between atoms: N_22  and  O_23
REMARK                            x       y       z     vdW  Elec       q    Type
REMARK                         _______ _______ _______ _____ _____    ______ ____
ROOT
ATOM      1  O   UNL     1       5.138   4.283  17.617  0.00  0.00    +0.000 OA
ATOM      2  C   UNL     1       4.325   4.420  18.523  0.00  0.00    +0.000 C 
ATOM      3  C   UNL     1       3.472   5.667  18.665  0.00  0.00    +0.000 A 
ATOM      4  N   UNL     1       3.605   6.597  17.685  0.00  0.00    +0.000 NA
ATOM      5  C   UNL     1       2.973   7.787  17.801  0.00  0.00    +0.000 A 
ATOM      6  C   UNL     1       2.203   8.049  18.931  0.00  0.00    +0.000 A 
ATOM      7  C   UNL     1       2.048   7.086  19.937  0.00  0.00    +0.000 A 
ATOM      8  C   UNL     1       1.236   7.668  20.950  0.00  0.00    +0.000 A 
ATOM      9  C   UNL     1       0.910   8.939  20.546  0.00  0.00    +0.000 A 
ATOM     10  N   UNL     1       1.478   9.158  19.314  0.00  0.00    +0.000 N 
ATOM     11  C   UNL     1       2.675   5.832  19.806  0.00  0.00    +0.000 A 
ATOM     12  C   UNL     1       2.590   4.764  20.863  0.00  0.00    +0.000 C 
ATOM     13  C   UNL     1       2.907   3.400  20.278  0.00  0.00    +0.000 C 
ATOM     14  N   UNL     1       4.159   3.505  19.556  0.00  0.00    +0.000 N 
ENDROOT
BRANCH  14  15
ATOM     15  O   UNL     1       4.821   2.270  19.435  0.00  0.00    +0.000 OA
ATOM     16  H   UNL     1       4.070   1.689  19.206  0.00  0.00    +0.000 HD
ENDBRANCH  14  15
BRANCH  10  17
ATOM     17  C   UNL     1       1.172  10.320  18.484  0.00  0.00    +0.000 C 
BRANCH  17  18
ATOM     18  C   UNL     1      -0.304  10.600  18.333  0.00  0.00    +0.000 A 
ATOM     19  C   UNL     1      -1.113   9.757  17.553  0.00  0.00    +0.000 A 
ATOM     20  C   UNL     1      -2.497   9.945  17.506  0.00  0.00    +0.000 A 
ATOM     21  C   UNL     1      -3.076  10.977  18.231  0.00  0.00    +0.000 A 
ATOM     22  F   UNL     1      -4.407  11.132  18.217  0.00  0.00    +0.000 F 
ATOM     23  C   UNL     1      -2.293  11.843  18.986  0.00  0.00    +0.000 A 
ATOM     24  C   UNL     1      -0.909  11.659  19.032  0.00  0.00    +0.000 A 
ENDBRANCH  17  18
ENDBRANCH  10  17
TORSDOF 3
ENDMDL
MODEL 7
REMARK VINA RESULT:      -7.7      5.765      8.092
REMARK  Name = 
REMARK  3 active torsions:
REMARK  status: ('A' for Active; 'I' for Inactive)
REMARK    1  A    between atoms: N_10  and  C_11
REMARK    2  A    between atoms: C_11  and  C_12
REMARK    3  A    between atoms: N_22  and  O_23
REMARK                            x       y       z     vdW  Elec       q    Type
REMARK                         _______ _______ _______ _____ _____    ______ ____
ROOT
ATOM      1  O   UNL     1       4.816   6.192  16.644  0.00  0.00    +0.000 OA
ATOM      2  C   UNL     1       4.134   6.008  17.645  0.00  0.00    +0.000 C 
ATOM      3  C   UNL     1       3.134   7.035  18.143  0.00  0.00    +0.000 A 
ATOM      4  N   UNL     1       2.980   8.143  17.373  0.00  0.00    +0.000 NA
ATOM      5  C   UNL     1       2.200   9.158  17.810  0.00  0.00    +0.000 A 
ATOM      6  C   UNL     1       1.574   9.060  19.048  0.00  0.00    +0.000 A 
ATOM      7  C   UNL     1       1.715   7.912  19.839  0.00  0.00    +0.000 A 
ATOM      8  C   UNL     1       0.982   8.138  21.037  0.00  0.00    +0.000 A 
ATOM      9  C   UNL     1       0.413   9.385  20.952  0.00  0.00    +0.000 A 
ATOM     10  N   UNL     1       0.755   9.931  19.738  0.00  0.00    +0.000 N 
ATOM     11  C   UNL     1       2.497   6.837  19.376  0.00  0.00    +0.000 A 
ATOM     12  C   UNL     1       2.730   5.589  20.185  0.00  0.00    +0.000 C 
ATOM     13  C   UNL     1       3.159   4.440  19.293  0.00  0.00    +0.000 C 
ATOM     14  N   UNL     1       4.260   4.899  18.472  0.00  0.00    +0.000 N 
ENDROOT
BRANCH  14  15
ATOM     15  O   UNL     1       5.076   3.847  18.018  0.00  0.00    +0.000 OA
ATOM     16  H   UNL     1       4.611   3.607  17.193  0.00  0.00    +0.000 HD
ENDBRANCH  14  15
BRANCH  10  17
ATOM     17  C   UNL     1       0.159  11.157  19.212  0.00  0.00    +0.000 C 
BRANCH  17  18
ATOM     18  C   UNL     1      -1.236  10.980  18.664  0.00  0.00    +0.000 A 
ATOM     19  C   UNL     1      -2.287  11.797  19.110  0.00  0.00    +0.000 A 
ATOM     20  C   UNL     1      -3.552  11.715  18.521  0.00  0.00    +0.000 A 
ATOM     21  C   UNL     1      -3.771  10.813  17.489  0.00  0.00    +0.000 A 
ATOM     22  F   UNL     1      -4.973  10.763  16.898  0.00  0.00    +0.000 F 
ATOM     23  C   UNL     1      -2.756   9.972  17.050  0.00  0.00    +0.000 A 
ATOM     24  C   UNL     1      -1.492  10.050  17.640  0.00  0.00    +0.000 A 
ENDBRANCH  17  18
ENDBRANCH  10  17
TORSDOF 3
ENDMDL
MODEL 8
REMARK VINA RESULT:      -7.7      4.664      6.051
REMARK  Name = 
REMARK  3 active torsions:
REMARK  status: ('A' for Active; 'I' for Inactive)
REMARK    1  A    between atoms: N_10  and  C_11
REMARK    2  A    between atoms: C_11  and  C_12
REMARK    3  A    between atoms: N_22  and  O_23
REMARK                            x       y       z     vdW  Elec       q    Type
REMARK                         _______ _______ _______ _____ _____    ______ ____
ROOT
ATOM      1  O   UNL     1       0.352  11.490  18.771  0.00  0.00    +0.000 OA
ATOM      2  C   UNL     1       0.425  10.630  19.641  0.00  0.00    +0.000 C 
ATOM      3  C   UNL     1       1.203   9.343  19.444  0.00  0.00    +0.000 A 
ATOM      4  N   UNL     1       1.881   9.226  18.273  0.00  0.00    +0.000 NA
ATOM      5  C   UNL     1       2.497   8.062  17.970  0.00  0.00    +0.000 A 
ATOM      6  C   UNL     1       2.419   6.991  18.856  0.00  0.00    +0.000 A 
ATOM      7  C   UNL     1       1.736   7.111  20.073  0.00  0.00    +0.000 A 
ATOM      8  C   UNL     1       1.820   5.850  20.726  0.00  0.00    +0.000 A 
ATOM      9  C   UNL     1       2.545   5.008  19.918  0.00  0.00    +0.000 A 
ATOM     10  N   UNL     1       2.925   5.709  18.798  0.00  0.00    +0.000 N 
ATOM     11  C   UNL     1       1.122   8.332  20.412  0.00  0.00    +0.000 A 
ATOM     12  C   UNL     1       0.335   8.525  21.681  0.00  0.00    +0.000 C 
ATOM     13  C   UNL     1       0.220   9.998  22.025  0.00  0.00    +0.000 C 
ATOM     14  N   UNL     1      -0.258  10.695  20.849  0.00  0.00    +0.000 N 
ENDROOT
BRANCH  14  15
ATOM     15  O   UNL     1      -0.903  11.907  21.160  0.00  0.00    +0.000 OA
ATOM     16  H   UNL     1      -0.453  12.136  21.996  0.00  0.00    +0.000 HD
ENDBRANCH  14  15
BRANCH  10  17
ATOM     17  C   UNL     1       3.882   5.200  17.820  0.00  0.00    +0.000 C 
BRANCH  17  18
ATOM     18  C   UNL     1       5.285   5.727  17.997  0.00  0.00    +0.000 A 
ATOM     19  C   UNL     1       5.762   6.772  17.188  0.00  0.00    +0.000 A 
ATOM     20  C   UNL     1       7.016   7.341  17.426  0.00  0.00    +0.000 A 
ATOM     21  C   UNL     1       7.800   6.864  18.468  0.00  0.00    +0.000 A 
ATOM     22  F   UNL     1       8.985   7.436  18.721  0.00  0.00    +0.000 F 
ATOM     23  C   UNL     1       7.363   5.812  19.264  0.00  0.00    +0.000 A 
ATOM     24  C   UNL     1       6.111   5.239  19.025  0.00  0.00    +0.000 A 
ENDBRANCH  17  18
ENDBRANCH  10  17
TORSDOF 3
ENDMDL
MODEL 9
REMARK VINA RESULT:      -7.7      5.002      7.333
REMARK  Name = 
REMARK  3 active torsions:
REMARK  status: ('A' for Active; 'I' for Inactive)
REMARK    1  A    between atoms: N_10  and  C_11
REMARK    2  A    between atoms: C_11  and  C_12
REMARK    3  A    between atoms: N_22  and  O_23
REMARK                            x       y       z     vdW  Elec       q    Type
REMARK                         _______ _______ _______ _____ _____    ______ ____
ROOT
ATOM      1  O   UNL     1       2.609   2.984  20.988  0.00  0.00    +0.000 OA
ATOM      2  C   UNL     1       3.126   3.668  20.113  0.00  0.00    +0.000 C 
ATOM      3  C   UNL     1       2.774   5.130  19.914  0.00  0.00    +0.000 A 
ATOM      4  N   UNL     1       1.904   5.664  20.810  0.00  0.00    +0.000 NA
ATOM      5  C   UNL     1       1.446   6.923  20.629  0.00  0.00    +0.000 A 
ATOM      6  C   UNL     1       1.862   7.654  19.520  0.00  0.00    +0.000 A 
ATOM      7  C   UNL     1       2.773   7.115  18.603  0.00  0.00    +0.000 A 
ATOM      8  C   UNL     1       2.969   8.091  17.586  0.00  0.00    +0.000 A 
ATOM      9  C   UNL     1       2.201   9.185  17.902  0.00  0.00    +0.000 A 
ATOM     10  N   UNL     1       1.550   8.925  19.085  0.00  0.00    +0.000 N 
ATOM     11  C   UNL     1       3.281   5.817  18.802  0.00  0.00    +0.000 A 
ATOM     12  C   UNL     1       4.229   5.155  17.839  0.00  0.00    +0.000 C 
ATOM     13  C   UNL     1       4.982   4.024  18.514  0.00  0.00    +0.000 C 
ATOM     14  N   UNL     1       4.011   3.169  19.166  0.00  0.00    +0.000 N 
ENDROOT
BRANCH  14  15
ATOM     15  O   UNL     1       4.482   1.856  19.353  0.00  0.00    +0.000 OA
ATOM     16  H   UNL     1       3.861   1.363  18.784  0.00  0.00    +0.000 HD
ENDBRANCH  14  15
BRANCH  10  17
ATOM     17  C   UNL     1       0.811   9.939  19.834  0.00  0.00    +0.000 C 
BRANCH  17  18
ATOM     18  C   UNL     1      -0.471  10.382  19.173  0.00  0.00    +0.000 A 
ATOM     19  C   UNL     1      -1.205  11.462  19.693  0.00  0.00    +0.000 A 
ATOM     20  C   UNL     1      -2.328  11.949  19.018  0.00  0.00    +0.000 A 
ATOM     21  C   UNL     1      -2.724  11.357  17.826  0.00  0.00    +0.000 A 
ATOM     22  F   UNL     1      -3.776  11.850  17.160  0.00  0.00    +0.000 F 
ATOM     23  C   UNL     1      -2.032  10.269  17.307  0.00  0.00    +0.000 A 
ATOM     24  C   UNL     1      -0.912   9.778  17.982  0.00  0.00    +0.000 A 
ENDBRANCH  17  18
ENDBRANCH  10  17
TORSDOF 3
ENDMDL
