MODEL 1
REMARK VINA RESULT:      -8.9      0.000      0.000
REMARK  Name = 
REMARK  8 active torsions:
REMARK  status: ('A' for Active; 'I' for Inactive)
REMARK    1  A    between atoms: C_1  and  C_2
REMARK    2  A    between atoms: N_4  and  C_5
REMARK    3  A    between atoms: C_5  and  C_6
REMARK    4  A    between atoms: C_13  and  C_14
REMARK    5  A    between atoms: C_15  and  N_16
REMARK    6  A    between atoms: C_17  and  C_19
REMARK    7  A    between atoms: C_20  and  C_21
REMARK    8  A    between atoms: C_29  and  C_30
REMARK                            x       y       z     vdW  Elec       q    Type
REMARK                         _______ _______ _______ _____ _____    ______ ____
ROOT
ATOM      1  N   UNL     1       2.622   6.544  20.187  0.00  0.00    +0.000 N 
ATOM      2  C   UNL     1       2.232   5.352  19.599  0.00  0.00    +0.000 C 
ATOM      3  O   UNL     1       1.261   5.209  18.868  0.00  0.00    +0.000 OA
ATOM      4  H   UNL     1       3.608   6.626  20.389  0.00  0.00    +0.000 HD
ENDROOT
BRANCH   1  11
ATOM      5  C   UNL     1       0.914   8.323  22.355  0.00  0.00    +0.000 C 
ATOM      6  C   UNL     1       1.155   8.513  20.903  0.00  0.00    +0.000 A 
ATOM      7  N   UNL     1       0.703   9.623  20.305  0.00  0.00    +0.000 NA
ATOM      8  N   UNL     1       1.138   9.527  19.031  0.00  0.00    +0.000 N 
ATOM      9  C   UNL     1       1.981   8.456  18.833  0.00  0.00    +0.000 A 
ATOM     10  C   UNL     1       2.648   8.134  17.548  0.00  0.00    +0.000 C 
ATOM     11  C   UNL     1       1.941   7.736  20.013  0.00  0.00    +0.000 A 
BRANCH   8  12
ATOM     12  C   UNL     1       0.681  10.530  18.060  0.00  0.00    +0.000 C 
BRANCH  12  13
ATOM     13  C   UNL     1      -0.826  10.634  18.028  0.00  0.00    +0.000 A 
ATOM     14  C   UNL     1      -1.590   9.730  17.270  0.00  0.00    +0.000 A 
ATOM     15  C   UNL     1      -2.975   9.876  17.166  0.00  0.00    +0.000 A 
ATOM     16  C   UNL     1      -3.610  10.915  17.838  0.00  0.00    +0.000 A 
ATOM     17 CL   UNL     1      -5.305  11.145  17.651  0.00  0.00    +0.000 Cl
ATOM     18  C   UNL     1      -2.878  11.782  18.646  0.00  0.00    +0.000 A 
ATOM     19  C   UNL     1      -1.490  11.640  18.747  0.00  0.00    +0.000 A 
ENDBRANCH  12  13
ENDBRANCH   8  12
ENDBRANCH   1  11
BRANCH   2  20
ATOM     20  C   UNL     1       3.169   4.272  19.858  0.00  0.00    +0.000 A 
ATOM     21  C   UNL     1       4.508   4.070  19.388  0.00  0.00    +0.000 A 
ATOM     22  N   UNL     1       4.993   2.911  19.870  0.00  0.00    +0.000 NA
ATOM     23  O   UNL     1       3.998   2.346  20.628  0.00  0.00    +0.000 OA
ATOM     24  C   UNL     1       2.907   3.148  20.618  0.00  0.00    +0.000 A 
ATOM     25  C   UNL     1       1.730   2.647  21.356  0.00  0.00    +0.000 C 
BRANCH  21  26
ATOM     26  C   UNL     1       5.364   4.917  18.551  0.00  0.00    +0.000 A 
ATOM     27  C   UNL     1       5.007   5.255  17.240  0.00  0.00    +0.000 A 
ATOM     28  C   UNL     1       5.837   6.073  16.466  0.00  0.00    +0.000 A 
ATOM     29  C   UNL     1       7.028   6.570  16.995  0.00  0.00    +0.000 A 
ATOM     30  C   UNL     1       7.385   6.259  18.304  0.00  0.00    +0.000 A 
ATOM     31  C   UNL     1       6.559   5.441  19.078  0.00  0.00    +0.000 A 
ENDBRANCH  21  26
ENDBRANCH   2  20
TORSDOF 5
ENDMDL
MODEL 2
REMARK VINA RESULT:      -8.8      0.151      1.253
REMARK  Name = 
REMARK  8 active torsions:
REMARK  status: ('A' for Active; 'I' for Inactive)
REMARK    1  A    between atoms: C_1  and  C_2
REMARK    2  A    between atoms: N_4  and  C_5
REMARK    3  A    between atoms: C_5  and  C_6
REMARK    4  A    between atoms: C_13  and  C_14
REMARK    5  A    between atoms: C_15  and  N_16
REMARK    6  A    between atoms: C_17  and  C_19
REMARK    7  A    between atoms: C_20  and  C_21
REMARK    8  A    between atoms: C_29  and  C_30
REMARK                            x       y       z     vdW  Elec       q    Type
REMARK                         _______ _______ _______ _____ _____    ______ ____
ROOT
ATOM      1  N   UNL     1       2.614   6.570  20.178  0.00  0.00    +0.000 N 
ATOM      2  C   UNL     1       2.241   5.390  19.555  0.00  0.00    +0.000 C 
ATOM      3  O   UNL     1       1.292   5.262  18.792  0.00  0.00    +0.000 OA
ATOM      4  H   UNL     1       3.594   6.648  20.411  0.00  0.00    +0.000 HD
ENDROOT
BRANCH   1  11
ATOM      5  C   UNL     1       0.812   8.286  22.321  0.00  0.00    +0.000 C 
ATOM      6  C   UNL     1       1.114   8.516  20.886  0.00  0.00    +0.000 A 
ATOM      7  N   UNL     1       0.683   9.641  20.301  0.00  0.00    +0.000 NA
ATOM      8  N   UNL     1       1.171   9.581  19.043  0.00  0.00    +0.000 N 
ATOM      9  C   UNL     1       2.024   8.517  18.852  0.00  0.00    +0.000 A 
ATOM     10  C   UNL     1       2.744   8.231  17.587  0.00  0.00    +0.000 C 
ATOM     11  C   UNL     1       1.937   7.765  20.008  0.00  0.00    +0.000 A 
BRANCH   8  12
ATOM     12  C   UNL     1       0.752  10.609  18.082  0.00  0.00    +0.000 C 
BRANCH  12  13
ATOM     13  C   UNL     1      -0.753  10.721  18.000  0.00  0.00    +0.000 A 
ATOM     14  C   UNL     1      -1.422  11.811  18.582  0.00  0.00    +0.000 A 
ATOM     15  C   UNL     1      -2.817  11.874  18.588  0.00  0.00    +0.000 A 
ATOM     16  C   UNL     1      -3.554  10.857  17.990  0.00  0.00    +0.000 A 
ATOM     17 CL   UNL     1      -5.273  10.891  18.061  0.00  0.00    +0.000 Cl
ATOM     18  C   UNL     1      -2.908   9.801  17.351  0.00  0.00    +0.000 A 
ATOM     19  C   UNL     1      -1.511   9.734  17.350  0.00  0.00    +0.000 A 
ENDBRANCH  12  13
ENDBRANCH   8  12
ENDBRANCH   1  11
BRANCH   2  20
ATOM     20  C   UNL     1       3.171   4.305  19.819  0.00  0.00    +0.000 A 
ATOM     21  C   UNL     1       4.532   4.125  19.405  0.00  0.00    +0.000 A 
ATOM     22  N   UNL     1       5.000   2.951  19.868  0.00  0.00    +0.000 NA
ATOM     23  O   UNL     1       3.973   2.355  20.558  0.00  0.00    +0.000 OA
ATOM     24  C   UNL     1       2.880   3.154  20.524  0.00  0.00    +0.000 A 
ATOM     25  C   UNL     1       1.672   2.622  21.188  0.00  0.00    +0.000 C 
BRANCH  21  26
ATOM     26  C   UNL     1       5.422   5.005  18.640  0.00  0.00    +0.000 A 
ATOM     27  C   UNL     1       6.628   5.475  19.173  0.00  0.00    +0.000 A 
ATOM     28  C   UNL     1       7.463   6.304  18.418  0.00  0.00    +0.000 A 
ATOM     29  C   UNL     1       7.108   6.667  17.119  0.00  0.00    +0.000 A 
ATOM     30  C   UNL     1       5.922   6.190  16.568  0.00  0.00    +0.000 A 
ATOM     31  C   UNL     1       5.085   5.363  17.322  0.00  0.00    +0.000 A 
ENDBRANCH  21  26
ENDBRANCH   2  20
TORSDOF 5
ENDMDL
MODEL 3
REMARK VINA RESULT:      -8.8      0.978      1.803
REMARK  Name = 
REMARK  8 active torsions:
REMARK  status: ('A' for Active; 'I' for Inactive)
REMARK    1  A    between atoms: C_1  and  C_2
REMARK    2  A    between atoms: N_4  and  C_5
REMARK    3  A    between atoms: C_5  and  C_6
REMARK    4  A    between atoms: C_13  and  C_14
REMARK    5  A    between atoms: C_15  and  N_16
REMARK    6  A    between atoms: C_17  and  C_19
REMARK    7  A    between atoms: C_20  and  C_21
REMARK    8  A    between atoms: C_29  and  C_30
REMARK                            x       y       z     vdW  Elec       q    Type
REMARK                         _______ _______ _______ _____ _____    ______ ____
ROOT
ATOM      1  N   UNL     1       2.927   6.309  19.692  0.00  0.00    +0.000 N 
ATOM      2  C   UNL     1       2.396   5.093  19.295  0.00  0.00    +0.000 C 
ATOM      3  O   UNL     1       1.424   4.950  18.565  0.00  0.00    +0.000 OA
ATOM      4  H   UNL     1       3.913   6.302  19.910  0.00  0.00    +0.000 HD
ENDROOT
BRANCH   1  11
ATOM      5  C   UNL     1       3.341   7.975  16.893  0.00  0.00    +0.000 C 
ATOM      6  C   UNL     1       2.590   8.306  18.131  0.00  0.00    +0.000 A 
ATOM      7  N   UNL     1       1.855   9.425  18.170  0.00  0.00    +0.000 NA
ATOM      8  N   UNL     1       1.256   9.399  19.379  0.00  0.00    +0.000 N 
ATOM      9  C   UNL     1       1.474   8.220  20.058  0.00  0.00    +0.000 A 
ATOM     10  C   UNL     1       0.898   7.893  21.385  0.00  0.00    +0.000 C 
ATOM     11  C   UNL     1       2.404   7.530  19.304  0.00  0.00    +0.000 A 
BRANCH   8  12
ATOM     12  C   UNL     1       0.482  10.574  19.800  0.00  0.00    +0.000 C 
BRANCH  12  13
ATOM     13  C   UNL     1      -0.809  10.702  19.027  0.00  0.00    +0.000 A 
ATOM     14  C   UNL     1      -1.019   9.953  17.856  0.00  0.00    +0.000 A 
ATOM     15  C   UNL     1      -2.172  10.134  17.089  0.00  0.00    +0.000 A 
ATOM     16  C   UNL     1      -3.135  11.049  17.499  0.00  0.00    +0.000 A 
ATOM     17 CL   UNL     1      -4.520  11.331  16.518  0.00  0.00    +0.000 Cl
ATOM     18  C   UNL     1      -2.975  11.753  18.691  0.00  0.00    +0.000 A 
ATOM     19  C   UNL     1      -1.818  11.578  19.456  0.00  0.00    +0.000 A 
ENDBRANCH  12  13
ENDBRANCH   8  12
ENDBRANCH   1  11
BRANCH   2  20
ATOM     20  C   UNL     1       3.186   3.964  19.757  0.00  0.00    +0.000 A 
ATOM     21  C   UNL     1       4.423   3.431  19.264  0.00  0.00    +0.000 A 
ATOM     22  N   UNL     1       4.781   2.357  19.991  0.00  0.00    +0.000 NA
ATOM     23  O   UNL     1       3.801   2.168  20.935  0.00  0.00    +0.000 OA
ATOM     24  C   UNL     1       2.846   3.118  20.793  0.00  0.00    +0.000 A 
ATOM     25  C   UNL     1       1.695   3.016  21.713  0.00  0.00    +0.000 C 
BRANCH  21  26
ATOM     26  C   UNL     1       5.299   3.893  18.181  0.00  0.00    +0.000 A 
ATOM     27  C   UNL     1       4.958   3.718  16.835  0.00  0.00    +0.000 A 
ATOM     28  C   UNL     1       5.807   4.178  15.822  0.00  0.00    +0.000 A 
ATOM     29  C   UNL     1       7.000   4.825  16.142  0.00  0.00    +0.000 A 
ATOM     30  C   UNL     1       7.341   5.024  17.477  0.00  0.00    +0.000 A 
ATOM     31  C   UNL     1       6.495   4.564  18.490  0.00  0.00    +0.000 A 
ENDBRANCH  21  26
ENDBRANCH   2  20
TORSDOF 5
ENDMDL
MODEL 4
REMARK VINA RESULT:      -8.7      0.945      2.149
REMARK  Name = 
REMARK  8 active torsions:
REMARK  status: ('A' for Active; 'I' for Inactive)
REMARK    1  A    between atoms: C_1  and  C_2
REMARK    2  A    between atoms: N_4  and  C_5
REMARK    3  A    between atoms: C_5  and  C_6
REMARK    4  A    between atoms: C_13  and  C_14
REMARK    5  A    between atoms: C_15  and  N_16
REMARK    6  A    between atoms: C_17  and  C_19
REMARK    7  A    between atoms: C_20  and  C_21
REMARK    8  A    between atoms: C_29  and  C_30
REMARK                            x       y       z     vdW  Elec       q    Type
REMARK                         _______ _______ _______ _____ _____    ______ ____
ROOT
ATOM      1  N   UNL     1       2.806   6.357  19.829  0.00  0.00    +0.000 N 
ATOM      2  C   UNL     1       2.361   5.152  19.310  0.00  0.00    +0.000 C 
ATOM      3  O   UNL     1       1.465   5.025  18.485  0.00  0.00    +0.000 OA
ATOM      4  H   UNL     1       3.768   6.368  20.138  0.00  0.00    +0.000 HD
ENDROOT
BRANCH   1  11
ATOM      5  C   UNL     1       3.127   8.046  17.032  0.00  0.00    +0.000 C 
ATOM      6  C   UNL     1       2.421   8.368  18.297  0.00  0.00    +0.000 A 
ATOM      7  N   UNL     1       1.691   9.488  18.372  0.00  0.00    +0.000 NA
ATOM      8  N   UNL     1       1.135   9.454  19.601  0.00  0.00    +0.000 N 
ATOM      9  C   UNL     1       1.372   8.269  20.262  0.00  0.00    +0.000 A 
ATOM     10  C   UNL     1       0.842   7.932  21.606  0.00  0.00    +0.000 C 
ATOM     11  C   UNL     1       2.273   7.582  19.470  0.00  0.00    +0.000 A 
BRANCH   8  12
ATOM     12  C   UNL     1       0.380  10.627  20.059  0.00  0.00    +0.000 C 
BRANCH  12  13
ATOM     13  C   UNL     1      -0.882  10.832  19.255  0.00  0.00    +0.000 A 
ATOM     14  C   UNL     1      -1.815  11.817  19.623  0.00  0.00    +0.000 A 
ATOM     15  C   UNL     1      -3.024  11.950  18.937  0.00  0.00    +0.000 A 
ATOM     16  C   UNL     1      -3.300  11.113  17.862  0.00  0.00    +0.000 A 
ATOM     17 CL   UNL     1      -4.820  11.221  17.062  0.00  0.00    +0.000 Cl
ATOM     18  C   UNL     1      -2.361  10.174  17.440  0.00  0.00    +0.000 A 
ATOM     19  C   UNL     1      -1.153  10.036  18.131  0.00  0.00    +0.000 A 
ENDBRANCH  12  13
ENDBRANCH   8  12
ENDBRANCH   1  11
BRANCH   2  20
ATOM     20  C   UNL     1       3.149   4.022  19.773  0.00  0.00    +0.000 A 
ATOM     21  C   UNL     1       4.396   3.500  19.294  0.00  0.00    +0.000 A 
ATOM     22  N   UNL     1       4.748   2.420  20.017  0.00  0.00    +0.000 NA
ATOM     23  O   UNL     1       3.754   2.217  20.942  0.00  0.00    +0.000 OA
ATOM     24  C   UNL     1       2.796   3.164  20.796  0.00  0.00    +0.000 A 
ATOM     25  C   UNL     1       1.631   3.048  21.696  0.00  0.00    +0.000 C 
BRANCH  21  26
ATOM     26  C   UNL     1       5.287   3.977  18.231  0.00  0.00    +0.000 A 
ATOM     27  C   UNL     1       6.475   4.658  18.519  0.00  0.00    +0.000 A 
ATOM     28  C   UNL     1       7.312   5.093  17.486  0.00  0.00    +0.000 A 
ATOM     29  C   UNL     1       6.976   4.847  16.155  0.00  0.00    +0.000 A 
ATOM     30  C   UNL     1       5.806   4.154  15.855  0.00  0.00    +0.000 A 
ATOM     31  C   UNL     1       4.968   3.719  16.885  0.00  0.00    +0.000 A 
ENDBRANCH  21  26
ENDBRANCH   2  20
TORSDOF 5
ENDMDL
MODEL 5
REMARK VINA RESULT:      -8.3      0.831      1.729
REMARK  Name = 
REMARK  8 active torsions:
REMARK  status: ('A' for Active; 'I' for Inactive)
REMARK    1  A    between atoms: C_1  and  C_2
REMARK    2  A    between atoms: N_4  and  C_5
REMARK    3  A    between atoms: C_5  and  C_6
REMARK    4  A    between atoms: C_13  and  C_14
REMARK    5  A    between atoms: C_15  and  N_16
REMARK    6  A    between atoms: C_17  and  C_19
REMARK    7  A    between atoms: C_20  and  C_21
REMARK    8  A    between atoms: C_29  and  C_30
REMARK                            x       y       z     vdW  Elec       q    Type
REMARK                         _______ _______ _______ _____ _____    ______ ____
ROOT
ATOM      1  N   UNL     1       2.582   6.818  19.828  0.00  0.00    +0.000 N 
ATOM      2  C   UNL     1       2.382   5.684  19.059  0.00  0.00    +0.000 C 
ATOM      3  O   UNL     1       1.666   5.618  18.068  0.00  0.00    +0.000 OA
ATOM      4  H   UNL     1       3.467   6.864  20.313  0.00  0.00    +0.000 HD
ENDROOT
BRANCH   1  11
ATOM      5  C   UNL     1       2.851   8.764  17.197  0.00  0.00    +0.000 C 
ATOM      6  C   UNL     1       2.097   8.927  18.466  0.00  0.00    +0.000 A 
ATOM      7  N   UNL     1       1.293   9.988  18.616  0.00  0.00    +0.000 NA
ATOM      8  N   UNL     1       0.714   9.809  19.822  0.00  0.00    +0.000 N 
ATOM      9  C   UNL     1       1.015   8.589  20.384  0.00  0.00    +0.000 A 
ATOM     10  C   UNL     1       0.479   8.101  21.679  0.00  0.00    +0.000 C 
ATOM     11  C   UNL     1       1.977   8.034  19.562  0.00  0.00    +0.000 A 
BRANCH   8  12
ATOM     12  C   UNL     1      -0.128  10.887  20.359  0.00  0.00    +0.000 C 
BRANCH  12  13
ATOM     13  C   UNL     1      -1.408  11.043  19.573  0.00  0.00    +0.000 A 
ATOM     14  C   UNL     1      -1.697  10.185  18.498  0.00  0.00    +0.000 A 
ATOM     15  C   UNL     1      -2.835  10.382  17.712  0.00  0.00    +0.000 A 
ATOM     16  C   UNL     1      -3.706  11.423  18.011  0.00  0.00    +0.000 A 
ATOM     17 CL   UNL     1      -5.068  11.716  17.001  0.00  0.00    +0.000 Cl
ATOM     18  C   UNL     1      -3.471  12.244  19.112  0.00  0.00    +0.000 A 
ATOM     19  C   UNL     1      -2.329  12.053  19.896  0.00  0.00    +0.000 A 
ENDBRANCH  12  13
ENDBRANCH   8  12
ENDBRANCH   1  11
BRANCH   2  20
ATOM     20  C   UNL     1       3.208   4.568  19.489  0.00  0.00    +0.000 A 
ATOM     21  C   UNL     1       4.615   4.340  19.340  0.00  0.00    +0.000 A 
ATOM     22  N   UNL     1       4.947   3.152  19.877  0.00  0.00    +0.000 NA
ATOM     23  O   UNL     1       3.789   2.594  20.359  0.00  0.00    +0.000 OA
ATOM     24  C   UNL     1       2.749   3.430  20.123  0.00  0.00    +0.000 A 
ATOM     25  C   UNL     1       1.421   2.942  20.544  0.00  0.00    +0.000 C 
BRANCH  21  26
ATOM     26  C   UNL     1       5.664   5.187  18.759  0.00  0.00    +0.000 A 
ATOM     27  C   UNL     1       5.479   5.853  17.542  0.00  0.00    +0.000 A 
ATOM     28  C   UNL     1       6.491   6.663  17.016  0.00  0.00    +0.000 A 
ATOM     29  C   UNL     1       7.695   6.823  17.702  0.00  0.00    +0.000 A 
ATOM     30  C   UNL     1       7.883   6.182  18.924  0.00  0.00    +0.000 A 
ATOM     31  C   UNL     1       6.874   5.372  19.451  0.00  0.00    +0.000 A 
ENDBRANCH  21  26
ENDBRANCH   2  20
TORSDOF 5
ENDMDL
MODEL 6
REMARK VINA RESULT:      -8.2      2.240      2.893
REMARK  Name = 
REMARK  8 active torsions:
REMARK  status: ('A' for Active; 'I' for Inactive)
REMARK    1  A    between atoms: C_1  and  C_2
REMARK    2  A    between atoms: N_4  and  C_5
REMARK    3  A    between atoms: C_5  and  C_6
REMARK    4  A    between atoms: C_13  and  C_14
REMARK    5  A    between atoms: C_15  and  N_16
REMARK    6  A    between atoms: C_17  and  C_19
REMARK    7  A    between atoms: C_20  and  C_21
REMARK    8  A    between atoms: C_29  and  C_30
REMARK                            x       y       z     vdW  Elec       q    Type
REMARK                         _______ _______ _______ _____ _____    ______ ____
ROOT
ATOM      1  N   UNL     1       2.624   6.572  20.142  0.00  0.00    +0.000 N 
ATOM      2  C   UNL     1       2.287   5.397  19.491  0.00  0.00    +0.000 C 
ATOM      3  O   UNL     1       1.374   5.272  18.685  0.00  0.00    +0.000 OA
ATOM      4  H   UNL     1       3.591   6.653  20.420  0.00  0.00    +0.000 HD
ENDROOT
BRANCH   1  11
ATOM      5  C   UNL     1       0.820   8.321  22.257  0.00  0.00    +0.000 C 
ATOM      6  C   UNL     1       1.124   8.531  20.819  0.00  0.00    +0.000 A 
ATOM      7  N   UNL     1       0.697   9.647  20.216  0.00  0.00    +0.000 NA
ATOM      8  N   UNL     1       1.187   9.568  18.961  0.00  0.00    +0.000 N 
ATOM      9  C   UNL     1       2.039   8.500  18.786  0.00  0.00    +0.000 A 
ATOM     10  C   UNL     1       2.762   8.196  17.527  0.00  0.00    +0.000 C 
ATOM     11  C   UNL     1       1.949   7.766  19.954  0.00  0.00    +0.000 A 
BRANCH   8  12
ATOM     12  C   UNL     1       0.771  10.583  17.983  0.00  0.00    +0.000 C 
BRANCH  12  13
ATOM     13  C   UNL     1       1.234  11.965  18.378  0.00  0.00    +0.000 A 
ATOM     14  C   UNL     1       0.340  12.880  18.961  0.00  0.00    +0.000 A 
ATOM     15  C   UNL     1       0.740  14.188  19.245  0.00  0.00    +0.000 A 
ATOM     16  C   UNL     1       2.044  14.584  18.971  0.00  0.00    +0.000 A 
ATOM     17 CL   UNL     1       2.520  16.214  19.248  0.00  0.00    +0.000 Cl
ATOM     18  C   UNL     1       2.963  13.673  18.454  0.00  0.00    +0.000 A 
ATOM     19  C   UNL     1       2.562  12.365  18.163  0.00  0.00    +0.000 A 
ENDBRANCH  12  13
ENDBRANCH   8  12
ENDBRANCH   1  11
BRANCH   2  20
ATOM     20  C   UNL     1       3.210   4.314  19.787  0.00  0.00    +0.000 A 
ATOM     21  C   UNL     1       4.575   4.121  19.392  0.00  0.00    +0.000 A 
ATOM     22  N   UNL     1       5.033   2.955  19.882  0.00  0.00    +0.000 NA
ATOM     23  O   UNL     1       3.996   2.376  20.572  0.00  0.00    +0.000 OA
ATOM     24  C   UNL     1       2.906   3.178  20.511  0.00  0.00    +0.000 A 
ATOM     25  C   UNL     1       1.690   2.664  21.172  0.00  0.00    +0.000 C 
BRANCH  21  26
ATOM     26  C   UNL     1       5.476   4.983  18.619  0.00  0.00    +0.000 A 
ATOM     27  C   UNL     1       5.159   5.402  17.322  0.00  0.00    +0.000 A 
ATOM     28  C   UNL     1       6.032   6.232  16.611  0.00  0.00    +0.000 A 
ATOM     29  C   UNL     1       7.226   6.660  17.190  0.00  0.00    +0.000 A 
ATOM     30  C   UNL     1       7.545   6.267  18.487  0.00  0.00    +0.000 A 
ATOM     31  C   UNL     1       6.675   5.437  19.199  0.00  0.00    +0.000 A 
ENDBRANCH  21  26
ENDBRANCH   2  20
TORSDOF 5
ENDMDL
MODEL 7
REMARK VINA RESULT:      -8.1      2.158      3.051
REMARK  Name = 
REMARK  8 active torsions:
REMARK  status: ('A' for Active; 'I' for Inactive)
REMARK    1  A    between atoms: C_1  and  C_2
REMARK    2  A    between atoms: N_4  and  C_5
REMARK    3  A    between atoms: C_5  and  C_6
REMARK    4  A    between atoms: C_13  and  C_14
REMARK    5  A    between atoms: C_15  and  N_16
REMARK    6  A    between atoms: C_17  and  C_19
REMARK    7  A    between atoms: C_20  and  C_21
REMARK    8  A    between atoms: C_29  and  C_30
REMARK                            x       y       z     vdW  Elec       q    Type
REMARK                         _______ _______ _______ _____ _____    ______ ____
ROOT
ATOM      1  N   UNL     1       2.642   6.431  20.022  0.00  0.00    +0.000 N 
ATOM      2  C   UNL     1       2.322   5.242  19.387  0.00  0.00    +0.000 C 
ATOM      3  O   UNL     1       1.488   5.117  18.500  0.00  0.00    +0.000 OA
ATOM      4  H   UNL     1       3.581   6.488  20.391  0.00  0.00    +0.000 HD
ENDROOT
BRANCH   1  11
ATOM      5  C   UNL     1       2.924   8.308  17.342  0.00  0.00    +0.000 C 
ATOM      6  C   UNL     1       2.165   8.505  18.603  0.00  0.00    +0.000 A 
ATOM      7  N   UNL     1       1.361   9.569  18.723  0.00  0.00    +0.000 NA
ATOM      8  N   UNL     1       0.777   9.422  19.931  0.00  0.00    +0.000 N 
ATOM      9  C   UNL     1       1.075   8.216  20.526  0.00  0.00    +0.000 A 
ATOM     10  C   UNL     1       0.533   7.763  21.830  0.00  0.00    +0.000 C 
ATOM     11  C   UNL     1       2.039   7.640  19.721  0.00  0.00    +0.000 A 
BRANCH   8  12
ATOM     12  C   UNL     1      -0.066  10.514  20.437  0.00  0.00    +0.000 C 
BRANCH  12  13
ATOM     13  C   UNL     1       0.380  11.857  19.908  0.00  0.00    +0.000 A 
ATOM     14  C   UNL     1       1.555  12.460  20.388  0.00  0.00    +0.000 A 
ATOM     15  C   UNL     1       1.924  13.741  19.969  0.00  0.00    +0.000 A 
ATOM     16  C   UNL     1       1.132  14.419  19.050  0.00  0.00    +0.000 A 
ATOM     17 CL   UNL     1       1.540  16.026  18.589  0.00  0.00    +0.000 Cl
ATOM     18  C   UNL     1      -0.002  13.812  18.514  0.00  0.00    +0.000 A 
ATOM     19  C   UNL     1      -0.376  12.532  18.937  0.00  0.00    +0.000 A 
ENDBRANCH  12  13
ENDBRANCH   8  12
ENDBRANCH   1  11
BRANCH   2  20
ATOM     20  C   UNL     1       3.166   4.139  19.814  0.00  0.00    +0.000 A 
ATOM     21  C   UNL     1       4.500   3.785  19.426  0.00  0.00    +0.000 A 
ATOM     22  N   UNL     1       4.881   2.664  20.065  0.00  0.00    +0.000 NA
ATOM     23  O   UNL     1       3.823   2.271  20.848  0.00  0.00    +0.000 OA
ATOM     24  C   UNL     1       2.797   3.142  20.695  0.00  0.00    +0.000 A 
ATOM     25  C   UNL     1       1.564   2.823  21.442  0.00  0.00    +0.000 C 
BRANCH  21  26
ATOM     26  C   UNL     1       5.443   4.456  18.525  0.00  0.00    +0.000 A 
ATOM     27  C   UNL     1       5.386   4.280  17.137  0.00  0.00    +0.000 A 
ATOM     28  C   UNL     1       6.291   4.941  16.299  0.00  0.00    +0.000 A 
ATOM     29  C   UNL     1       7.257   5.791  16.836  0.00  0.00    +0.000 A 
ATOM     30  C   UNL     1       7.312   5.991  18.213  0.00  0.00    +0.000 A 
ATOM     31  C   UNL     1       6.410   5.331  19.052  0.00  0.00    +0.000 A 
ENDBRANCH  21  26
ENDBRANCH   2  20
TORSDOF 5
ENDMDL
MODEL 8
REMARK VINA RESULT:      -8.0      2.252      3.201
REMARK  Name = 
REMARK  8 active torsions:
REMARK  status: ('A' for Active; 'I' for Inactive)
REMARK    1  A    between atoms: C_1  and  C_2
REMARK    2  A    between atoms: N_4  and  C_5
REMARK    3  A    between atoms: C_5  and  C_6
REMARK    4  A    between atoms: C_13  and  C_14
REMARK    5  A    between atoms: C_15  and  N_16
REMARK    6  A    between atoms: C_17  and  C_19
REMARK    7  A    between atoms: C_20  and  C_21
REMARK    8  A    between atoms: C_29  and  C_30
REMARK                            x       y       z     vdW  Elec       q    Type
REMARK                         _______ _______ _______ _____ _____    ______ ____
ROOT
ATOM      1  N   UNL     1       2.595   6.479  20.020  0.00  0.00    +0.000 N 
ATOM      2  C   UNL     1       2.339   5.314  19.315  0.00  0.00    +0.000 C 
ATOM      3  O   UNL     1       1.568   5.214  18.370  0.00  0.00    +0.000 OA
ATOM      4  H   UNL     1       3.506   6.533  20.453  0.00  0.00    +0.000 HD
ENDROOT
BRANCH   1  11
ATOM      5  C   UNL     1       2.849   8.362  17.342  0.00  0.00    +0.000 C 
ATOM      6  C   UNL     1       2.108   8.558  18.613  0.00  0.00    +0.000 A 
ATOM      7  N   UNL     1       1.309   9.625  18.746  0.00  0.00    +0.000 NA
ATOM      8  N   UNL     1       0.739   9.477  19.960  0.00  0.00    +0.000 N 
ATOM      9  C   UNL     1       1.041   8.268  20.548  0.00  0.00    +0.000 A 
ATOM     10  C   UNL     1       0.514   7.813  21.858  0.00  0.00    +0.000 C 
ATOM     11  C   UNL     1       1.993   7.691  19.730  0.00  0.00    +0.000 A 
BRANCH   8  12
ATOM     12  C   UNL     1      -0.093  10.570  20.480  0.00  0.00    +0.000 C 
BRANCH  12  13
ATOM     13  C   UNL     1       0.410  11.921  20.028  0.00  0.00    +0.000 A 
ATOM     14  C   UNL     1      -0.292  12.660  19.061  0.00  0.00    +0.000 A 
ATOM     15  C   UNL     1       0.215  13.867  18.575  0.00  0.00    +0.000 A 
ATOM     16  C   UNL     1       1.419  14.356  19.069  0.00  0.00    +0.000 A 
ATOM     17 CL   UNL     1       2.086  15.803  18.419  0.00  0.00    +0.000 Cl
ATOM     18  C   UNL     1       2.098  13.671  20.075  0.00  0.00    +0.000 A 
ATOM     19  C   UNL     1       1.593  12.459  20.558  0.00  0.00    +0.000 A 
ENDBRANCH  12  13
ENDBRANCH   8  12
ENDBRANCH   1  11
BRANCH   2  20
ATOM     20  C   UNL     1       3.171   4.205  19.752  0.00  0.00    +0.000 A 
ATOM     21  C   UNL     1       4.499   3.830  19.362  0.00  0.00    +0.000 A 
ATOM     22  N   UNL     1       4.870   2.712  20.014  0.00  0.00    +0.000 NA
ATOM     23  O   UNL     1       3.810   2.342  20.805  0.00  0.00    +0.000 OA
ATOM     24  C   UNL     1       2.794   3.223  20.646  0.00  0.00    +0.000 A 
ATOM     25  C   UNL     1       1.560   2.928  21.402  0.00  0.00    +0.000 C 
BRANCH  21  26
ATOM     26  C   UNL     1       5.446   4.480  18.449  0.00  0.00    +0.000 A 
ATOM     27  C   UNL     1       6.508   5.259  18.924  0.00  0.00    +0.000 A 
ATOM     28  C   UNL     1       7.403   5.859  18.032  0.00  0.00    +0.000 A 
ATOM     29  C   UNL     1       7.253   5.681  16.657  0.00  0.00    +0.000 A 
ATOM     30  C   UNL     1       6.214   4.892  16.172  0.00  0.00    +0.000 A 
ATOM     31  C   UNL     1       5.318   4.293  17.061  0.00  0.00    +0.000 A 
ENDBRANCH  21  26
ENDBRANCH   2  20
TORSDOF 5
ENDMDL
MODEL 9
REMARK VINA RESULT:      -8.0      2.266      3.006
REMARK  Name = 
REMARK  8 active torsions:
REMARK  status: ('A' for Active; 'I' for Inactive)
REMARK    1  A    between atoms: C_1  and  C_2
REMARK    2  A    between atoms: N_4  and  C_5
REMARK    3  A    between atoms: C_5  and  C_6
REMARK    4  A    between atoms: C_13  and  C_14
REMARK    5  A    between atoms: C_15  and  N_16
REMARK    6  A    between atoms: C_17  and  C_19
REMARK    7  A    between atoms: C_20  and  C_21
REMARK    8  A    between atoms: C_29  and  C_30
REMARK                            x       y       z     vdW  Elec       q    Type
REMARK                         _______ _______ _______ _____ _____    ______ ____
ROOT
ATOM      1  N   UNL     1       2.612   6.571  20.143  0.00  0.00    +0.000 N 
ATOM      2  C   UNL     1       2.302   5.408  19.458  0.00  0.00    +0.000 C 
ATOM      3  O   UNL     1       1.415   5.295  18.622  0.00  0.00    +0.000 OA
ATOM      4  H   UNL     1       3.571   6.651  20.452  0.00  0.00    +0.000 HD
ENDROOT
BRANCH   1  11
ATOM      5  C   UNL     1       0.760   8.282  22.247  0.00  0.00    +0.000 C 
ATOM      6  C   UNL     1       1.092   8.514  20.819  0.00  0.00    +0.000 A 
ATOM      7  N   UNL     1       0.672   9.638  20.224  0.00  0.00    +0.000 NA
ATOM      8  N   UNL     1       1.187   9.579  18.978  0.00  0.00    +0.000 N 
ATOM      9  C   UNL     1       2.047   8.517  18.805  0.00  0.00    +0.000 A 
ATOM     10  C   UNL     1       2.796   8.234  17.556  0.00  0.00    +0.000 C 
ATOM     11  C   UNL     1       1.937   7.765  19.959  0.00  0.00    +0.000 A 
BRANCH   8  12
ATOM     12  C   UNL     1       0.787  10.607  18.008  0.00  0.00    +0.000 C 
BRANCH  12  13
ATOM     13  C   UNL     1       1.218  11.987  18.443  0.00  0.00    +0.000 A 
ATOM     14  C   UNL     1       2.524  12.442  18.192  0.00  0.00    +0.000 A 
ATOM     15  C   UNL     1       2.954  13.681  18.671  0.00  0.00    +0.000 A 
ATOM     16  C   UNL     1       2.074  14.487  19.385  0.00  0.00    +0.000 A 
ATOM     17 CL   UNL     1       2.621  15.979  20.043  0.00  0.00    +0.000 Cl
ATOM     18  C   UNL     1       0.756  14.082  19.588  0.00  0.00    +0.000 A 
ATOM     19  C   UNL     1       0.326  12.839  19.114  0.00  0.00    +0.000 A 
ENDBRANCH  12  13
ENDBRANCH   8  12
ENDBRANCH   1  11
BRANCH   2  20
ATOM     20  C   UNL     1       3.222   4.324  19.759  0.00  0.00    +0.000 A 
ATOM     21  C   UNL     1       4.601   4.149  19.407  0.00  0.00    +0.000 A 
ATOM     22  N   UNL     1       5.050   2.974  19.884  0.00  0.00    +0.000 NA
ATOM     23  O   UNL     1       3.995   2.373  20.525  0.00  0.00    +0.000 OA
ATOM     24  C   UNL     1       2.902   3.169  20.445  0.00  0.00    +0.000 A 
ATOM     25  C   UNL     1       1.667   2.632  21.051  0.00  0.00    +0.000 C 
BRANCH  21  26
ATOM     26  C   UNL     1       5.522   5.035  18.686  0.00  0.00    +0.000 A 
ATOM     27  C   UNL     1       6.731   5.455  19.253  0.00  0.00    +0.000 A 
ATOM     28  C   UNL     1       7.597   6.292  18.540  0.00  0.00    +0.000 A 
ATOM     29  C   UNL     1       7.269   6.711  17.251  0.00  0.00    +0.000 A 
ATOM     30  C   UNL     1       6.079   6.283  16.667  0.00  0.00    +0.000 A 
ATOM     31  C   UNL     1       5.213   5.449  17.378  0.00  0.00    +0.000 A 
ENDBRANCH  21  26
ENDBRANCH   2  20
TORSDOF 5
ENDMDL
