MODEL 1
REMARK VINA RESULT:      -8.5      0.000      0.000
REMARK  Name = 
REMARK  4 active torsions:
REMARK  status: ('A' for Active; 'I' for Inactive)
REMARK    1  A    between atoms: C_2  and  C_20
REMARK    2  A    between atoms: N_3  and  C_4
REMARK    3  A    between atoms: C_9  and  C_10
REMARK    4  A    between atoms: C_23  and  N_24
REMARK                            x       y       z     vdW  Elec       q    Type
REMARK                         _______ _______ _______ _____ _____    ______ ____
ROOT
ATOM      1  C   UNL     1       2.997   6.485  18.407  0.00  0.00    +0.000 A 
ATOM      2  C   UNL     1       2.782   5.843  19.643  0.00  0.00    +0.000 A 
ATOM      3  C   UNL     1       2.018   6.399  20.671  0.00  0.00    +0.000 A 
ATOM      4  C   UNL     1       1.495   7.646  20.400  0.00  0.00    +0.000 A 
ATOM      5  O   UNL     1       0.691   8.378  21.213  0.00  0.00    +0.000 OA
ATOM      6  C   UNL     1       0.437   9.519  20.497  0.00  0.00    +0.000 A 
ATOM      7  N   UNL     1       1.019   9.556  19.307  0.00  0.00    +0.000 NA
ATOM      8  C   UNL     1       1.701   8.359  19.233  0.00  0.00    +0.000 A 
ATOM      9  C   UNL     1       2.498   7.788  18.215  0.00  0.00    +0.000 A 
ENDROOT
BRANCH   6  10
ATOM     10  C   UNL     1      -0.408  10.505  21.173  0.00  0.00    +0.000 A 
ATOM     11  C   UNL     1      -1.081  11.506  20.448  0.00  0.00    +0.000 A 
ATOM     12  C   UNL     1      -1.922  12.421  21.089  0.00  0.00    +0.000 A 
ATOM     13  C   UNL     1      -2.091  12.349  22.468  0.00  0.00    +0.000 A 
ATOM     14 BR   UNL     1      -3.245  13.570  23.333  0.00  0.00    +0.000 Br
ATOM     15  C   UNL     1      -1.421  11.378  23.210  0.00  0.00    +0.000 A 
ATOM     16  C   UNL     1      -0.584  10.460  22.563  0.00  0.00    +0.000 A 
ENDBRANCH   6  10
BRANCH   1  19
ATOM     17  O   UNL     1       5.644   7.021  17.458  0.00  0.00    +0.000 OA
ATOM     18  C   UNL     1       4.961   6.149  16.926  0.00  0.00    +0.000 C 
ATOM     19  N   UNL     1       3.669   5.823  17.334  0.00  0.00    +0.000 N 
ATOM     20  H   UNL     1       3.271   4.963  16.973  0.00  0.00    +0.000 HD
BRANCH  18  21
ATOM     21  C   UNL     1       5.564   5.384  15.853  0.00  0.00    +0.000 A 
ATOM     22  C   UNL     1       5.498   4.006  15.692  0.00  0.00    +0.000 A 
ATOM     23  C   UNL     1       6.292   3.673  14.580  0.00  0.00    +0.000 A 
ATOM     24  C   UNL     1       6.795   4.870  14.128  0.00  0.00    +0.000 A 
ATOM     25  O   UNL     1       6.351   5.933  14.871  0.00  0.00    +0.000 OA
BRANCH  24  26
ATOM     26  N   UNL     1       7.712   5.139  13.066  0.00  0.00    +0.000 N 
ATOM     27  O   UNL     1       7.473   4.591  11.983  0.00  0.00    +0.000 OA
ATOM     28  O   UNL     1       8.668   5.889  13.309  0.00  0.00    +0.000 OA
ENDBRANCH  24  26
ENDBRANCH  18  21
ENDBRANCH   1  19
TORSDOF 4
ENDMDL
MODEL 2
REMARK VINA RESULT:      -8.4      1.564      1.967
REMARK  Name = 
REMARK  4 active torsions:
REMARK  status: ('A' for Active; 'I' for Inactive)
REMARK    1  A    between atoms: C_2  and  C_20
REMARK    2  A    between atoms: N_3  and  C_4
REMARK    3  A    between atoms: C_9  and  C_10
REMARK    4  A    between atoms: C_23  and  N_24
REMARK                            x       y       z     vdW  Elec       q    Type
REMARK                         _______ _______ _______ _____ _____    ______ ____
ROOT
ATOM      1  C   UNL     1       3.676   5.648  17.748  0.00  0.00    +0.000 A 
ATOM      2  C   UNL     1       3.557   4.950  18.967  0.00  0.00    +0.000 A 
ATOM      3  C   UNL     1       2.876   5.458  20.075  0.00  0.00    +0.000 A 
ATOM      4  C   UNL     1       2.333   6.713  19.902  0.00  0.00    +0.000 A 
ATOM      5  O   UNL     1       1.595   7.405  20.806  0.00  0.00    +0.000 OA
ATOM      6  C   UNL     1       1.286   8.577  20.164  0.00  0.00    +0.000 A 
ATOM      7  N   UNL     1       1.774   8.669  18.936  0.00  0.00    +0.000 NA
ATOM      8  C   UNL     1       2.449   7.479  18.755  0.00  0.00    +0.000 A 
ATOM      9  C   UNL     1       3.164   6.957  17.654  0.00  0.00    +0.000 A 
ENDROOT
BRANCH   6  10
ATOM     10  C   UNL     1       0.496   9.529  20.947  0.00  0.00    +0.000 A 
ATOM     11  C   UNL     1       0.103  10.767  20.406  0.00  0.00    +0.000 A 
ATOM     12  C   UNL     1      -0.688  11.657  21.138  0.00  0.00    +0.000 A 
ATOM     13  C   UNL     1      -1.087  11.320  22.428  0.00  0.00    +0.000 A 
ATOM     14 BR   UNL     1      -2.176  12.512  23.411  0.00  0.00    +0.000 Br
ATOM     15  C   UNL     1      -0.696  10.108  22.992  0.00  0.00    +0.000 A 
ATOM     16  C   UNL     1       0.093   9.216  22.252  0.00  0.00    +0.000 A 
ENDBRANCH   6  10
BRANCH   1  19
ATOM     17  O   UNL     1       5.754   6.737  16.108  0.00  0.00    +0.000 OA
ATOM     18  C   UNL     1       5.271   5.638  15.844  0.00  0.00    +0.000 C 
ATOM     19  N   UNL     1       4.264   5.037  16.598  0.00  0.00    +0.000 N 
ATOM     20  H   UNL     1       4.077   4.056  16.425  0.00  0.00    +0.000 HD
BRANCH  18  21
ATOM     21  C   UNL     1       5.825   4.911  14.720  0.00  0.00    +0.000 A 
ATOM     22  C   UNL     1       7.133   4.987  14.262  0.00  0.00    +0.000 A 
ATOM     23  C   UNL     1       7.220   4.195  13.102  0.00  0.00    +0.000 A 
ATOM     24  C   UNL     1       5.957   3.684  12.923  0.00  0.00    +0.000 A 
ATOM     25  O   UNL     1       5.091   4.085  13.907  0.00  0.00    +0.000 OA
BRANCH  24  26
ATOM     26  N   UNL     1       5.438   2.864  11.874  0.00  0.00    +0.000 N 
ATOM     27  O   UNL     1       4.317   3.164  11.446  0.00  0.00    +0.000 OA
ATOM     28  O   UNL     1       6.142   1.923  11.480  0.00  0.00    +0.000 OA
ENDBRANCH  24  26
ENDBRANCH  18  21
ENDBRANCH   1  19
TORSDOF 4
ENDMDL
MODEL 3
REMARK VINA RESULT:      -8.4      0.208      1.126
REMARK  Name = 
REMARK  4 active torsions:
REMARK  status: ('A' for Active; 'I' for Inactive)
REMARK    1  A    between atoms: C_2  and  C_20
REMARK    2  A    between atoms: N_3  and  C_4
REMARK    3  A    between atoms: C_9  and  C_10
REMARK    4  A    between atoms: C_23  and  N_24
REMARK                            x       y       z     vdW  Elec       q    Type
REMARK                         _______ _______ _______ _____ _____    ______ ____
ROOT
ATOM      1  C   UNL     1       2.988   6.683  18.304  0.00  0.00    +0.000 A 
ATOM      2  C   UNL     1       2.791   6.044  19.545  0.00  0.00    +0.000 A 
ATOM      3  C   UNL     1       2.029   6.596  20.577  0.00  0.00    +0.000 A 
ATOM      4  C   UNL     1       1.489   7.835  20.304  0.00  0.00    +0.000 A 
ATOM      5  O   UNL     1       0.683   8.561  21.120  0.00  0.00    +0.000 OA
ATOM      6  C   UNL     1       0.409   9.696  20.401  0.00  0.00    +0.000 A 
ATOM      7  N   UNL     1       0.980   9.734  19.206  0.00  0.00    +0.000 NA
ATOM      8  C   UNL     1       1.677   8.545  19.132  0.00  0.00    +0.000 A 
ATOM      9  C   UNL     1       2.472   7.979  18.110  0.00  0.00    +0.000 A 
ENDROOT
BRANCH   6  10
ATOM     10  C   UNL     1      -0.443  10.675  21.078  0.00  0.00    +0.000 A 
ATOM     11  C   UNL     1      -0.599  10.661  22.477  0.00  0.00    +0.000 A 
ATOM     12  C   UNL     1      -1.378  11.623  23.127  0.00  0.00    +0.000 A 
ATOM     13  C   UNL     1      -2.018  12.607  22.380  0.00  0.00    +0.000 A 
ATOM     14 BR   UNL     1      -3.052  13.922  23.259  0.00  0.00    +0.000 Br
ATOM     15  C   UNL     1      -1.893  12.631  20.992  0.00  0.00    +0.000 A 
ATOM     16  C   UNL     1      -1.108  11.668  20.345  0.00  0.00    +0.000 A 
ENDBRANCH   6  10
BRANCH   1  19
ATOM     17  O   UNL     1       5.793   6.759  17.737  0.00  0.00    +0.000 OA
ATOM     18  C   UNL     1       5.033   6.117  17.014  0.00  0.00    +0.000 C 
ATOM     19  N   UNL     1       3.660   6.024  17.228  0.00  0.00    +0.000 N 
ATOM     20  H   UNL     1       3.155   5.314  16.708  0.00  0.00    +0.000 HD
BRANCH  18  21
ATOM     21  C   UNL     1       5.617   5.373  15.917  0.00  0.00    +0.000 A 
ATOM     22  C   UNL     1       5.547   3.998  15.731  0.00  0.00    +0.000 A 
ATOM     23  C   UNL     1       6.322   3.686  14.599  0.00  0.00    +0.000 A 
ATOM     24  C   UNL     1       6.820   4.892  14.163  0.00  0.00    +0.000 A 
ATOM     25  O   UNL     1       6.389   5.940  14.933  0.00  0.00    +0.000 OA
BRANCH  24  26
ATOM     26  N   UNL     1       7.719   5.180  13.091  0.00  0.00    +0.000 N 
ATOM     27  O   UNL     1       8.660   5.938  13.353  0.00  0.00    +0.000 OA
ATOM     28  O   UNL     1       7.487   4.657  11.991  0.00  0.00    +0.000 OA
ENDBRANCH  24  26
ENDBRANCH  18  21
ENDBRANCH   1  19
TORSDOF 4
ENDMDL
MODEL 4
REMARK VINA RESULT:      -8.3      1.622      2.276
REMARK  Name = 
REMARK  4 active torsions:
REMARK  status: ('A' for Active; 'I' for Inactive)
REMARK    1  A    between atoms: C_2  and  C_20
REMARK    2  A    between atoms: N_3  and  C_4
REMARK    3  A    between atoms: C_9  and  C_10
REMARK    4  A    between atoms: C_23  and  N_24
REMARK                            x       y       z     vdW  Elec       q    Type
REMARK                         _______ _______ _______ _____ _____    ______ ____
ROOT
ATOM      1  C   UNL     1       3.779   5.611  17.628  0.00  0.00    +0.000 A 
ATOM      2  C   UNL     1       3.725   4.940  18.867  0.00  0.00    +0.000 A 
ATOM      3  C   UNL     1       3.055   5.448  19.982  0.00  0.00    +0.000 A 
ATOM      4  C   UNL     1       2.457   6.676  19.794  0.00  0.00    +0.000 A 
ATOM      5  O   UNL     1       1.717   7.361  20.703  0.00  0.00    +0.000 OA
ATOM      6  C   UNL     1       1.342   8.502  20.042  0.00  0.00    +0.000 A 
ATOM      7  N   UNL     1       1.790   8.583  18.798  0.00  0.00    +0.000 NA
ATOM      8  C   UNL     1       2.508   7.416  18.627  0.00  0.00    +0.000 A 
ATOM      9  C   UNL     1       3.211   6.896  17.518  0.00  0.00    +0.000 A 
ENDROOT
BRANCH   6  10
ATOM     10  C   UNL     1       0.536   9.441  20.825  0.00  0.00    +0.000 A 
ATOM     11  C   UNL     1       0.271   9.214  22.188  0.00  0.00    +0.000 A 
ATOM     12  C   UNL     1      -0.462  10.133  22.944  0.00  0.00    +0.000 A 
ATOM     13  C   UNL     1      -0.947  11.288  22.340  0.00  0.00    +0.000 A 
ATOM     14 BR   UNL     1      -1.919  12.543  23.367  0.00  0.00    +0.000 Br
ATOM     15  C   UNL     1      -0.713  11.527  20.987  0.00  0.00    +0.000 A 
ATOM     16  C   UNL     1       0.027  10.606  20.234  0.00  0.00    +0.000 A 
ENDBRANCH   6  10
BRANCH   1  19
ATOM     17  O   UNL     1       5.816   6.710  15.943  0.00  0.00    +0.000 OA
ATOM     18  C   UNL     1       5.344   5.601  15.700  0.00  0.00    +0.000 C 
ATOM     19  N   UNL     1       4.358   4.995  16.476  0.00  0.00    +0.000 N 
ATOM     20  H   UNL     1       4.183   4.009  16.317  0.00  0.00    +0.000 HD
BRANCH  18  21
ATOM     21  C   UNL     1       5.892   4.869  14.576  0.00  0.00    +0.000 A 
ATOM     22  C   UNL     1       7.184   4.977  14.080  0.00  0.00    +0.000 A 
ATOM     23  C   UNL     1       7.266   4.164  12.935  0.00  0.00    +0.000 A 
ATOM     24  C   UNL     1       6.015   3.609  12.801  0.00  0.00    +0.000 A 
ATOM     25  O   UNL     1       5.163   4.002  13.800  0.00  0.00    +0.000 OA
BRANCH  24  26
ATOM     26  N   UNL     1       5.496   2.751  11.784  0.00  0.00    +0.000 N 
ATOM     27  O   UNL     1       6.240   1.842  11.399  0.00  0.00    +0.000 OA
ATOM     28  O   UNL     1       4.352   2.984  11.365  0.00  0.00    +0.000 OA
ENDBRANCH  24  26
ENDBRANCH  18  21
ENDBRANCH   1  19
TORSDOF 4
ENDMDL
MODEL 5
REMARK VINA RESULT:      -7.9      2.120      3.107
REMARK  Name = 
REMARK  4 active torsions:
REMARK  status: ('A' for Active; 'I' for Inactive)
REMARK    1  A    between atoms: C_2  and  C_20
REMARK    2  A    between atoms: N_3  and  C_4
REMARK    3  A    between atoms: C_9  and  C_10
REMARK    4  A    between atoms: C_23  and  N_24
REMARK                            x       y       z     vdW  Elec       q    Type
REMARK                         _______ _______ _______ _____ _____    ______ ____
ROOT
ATOM      1  C   UNL     1       1.756   8.651  18.579  0.00  0.00    +0.000 A 
ATOM      2  C   UNL     1       0.759   9.179  17.733  0.00  0.00    +0.000 A 
ATOM      3  C   UNL     1      -0.178  10.125  18.154  0.00  0.00    +0.000 A 
ATOM      4  C   UNL     1      -0.073  10.502  19.476  0.00  0.00    +0.000 A 
ATOM      5  O   UNL     1      -0.833  11.428  20.114  0.00  0.00    +0.000 OA
ATOM      6  C   UNL     1      -0.339  11.448  21.393  0.00  0.00    +0.000 A 
ATOM      7  N   UNL     1       0.665  10.608  21.601  0.00  0.00    +0.000 NA
ATOM      8  C   UNL     1       0.845   9.994  20.379  0.00  0.00    +0.000 A 
ATOM      9  C   UNL     1       1.768   9.020  19.939  0.00  0.00    +0.000 A 
ENDROOT
BRANCH   6  10
ATOM     10  C   UNL     1      -1.013  12.369  22.310  0.00  0.00    +0.000 A 
ATOM     11  C   UNL     1      -0.489  13.647  22.575  0.00  0.00    +0.000 A 
ATOM     12  C   UNL     1      -1.156  14.542  23.417  0.00  0.00    +0.000 A 
ATOM     13  C   UNL     1      -2.354  14.161  24.012  0.00  0.00    +0.000 A 
ATOM     14 BR   UNL     1      -3.270  15.377  25.132  0.00  0.00    +0.000 Br
ATOM     15  C   UNL     1      -2.885  12.893  23.780  0.00  0.00    +0.000 A 
ATOM     16  C   UNL     1      -2.216  12.002  22.931  0.00  0.00    +0.000 A 
ENDBRANCH   6  10
BRANCH   1  19
ATOM     17  O   UNL     1       1.937   5.818  18.945  0.00  0.00    +0.000 OA
ATOM     18  C   UNL     1       2.799   6.415  18.302  0.00  0.00    +0.000 C 
ATOM     19  N   UNL     1       2.777   7.789  18.073  0.00  0.00    +0.000 N 
ATOM     20  H   UNL     1       3.410   8.153  17.370  0.00  0.00    +0.000 HD
BRANCH  18  21
ATOM     21  C   UNL     1       3.860   5.628  17.707  0.00  0.00    +0.000 A 
ATOM     22  C   UNL     1       3.782   4.289  17.345  0.00  0.00    +0.000 A 
ATOM     23  C   UNL     1       5.056   3.900  16.894  0.00  0.00    +0.000 A 
ATOM     24  C   UNL     1       5.836   5.026  17.009  0.00  0.00    +0.000 A 
ATOM     25  O   UNL     1       5.128   6.101  17.481  0.00  0.00    +0.000 OA
BRANCH  24  26
ATOM     26  N   UNL     1       7.230   5.207  16.757  0.00  0.00    +0.000 N 
ATOM     27  O   UNL     1       7.548   6.228  16.135  0.00  0.00    +0.000 OA
ATOM     28  O   UNL     1       8.006   4.334  17.172  0.00  0.00    +0.000 OA
ENDBRANCH  24  26
ENDBRANCH  18  21
ENDBRANCH   1  19
TORSDOF 4
ENDMDL
MODEL 6
REMARK VINA RESULT:      -7.8      1.125      1.386
REMARK  Name = 
REMARK  4 active torsions:
REMARK  status: ('A' for Active; 'I' for Inactive)
REMARK    1  A    between atoms: C_2  and  C_20
REMARK    2  A    between atoms: N_3  and  C_4
REMARK    3  A    between atoms: C_9  and  C_10
REMARK    4  A    between atoms: C_23  and  N_24
REMARK                            x       y       z     vdW  Elec       q    Type
REMARK                         _______ _______ _______ _____ _____    ______ ____
ROOT
ATOM      1  C   UNL     1       2.691   7.210  18.402  0.00  0.00    +0.000 A 
ATOM      2  C   UNL     1       2.429   6.751  19.709  0.00  0.00    +0.000 A 
ATOM      3  C   UNL     1       1.675   7.473  20.636  0.00  0.00    +0.000 A 
ATOM      4  C   UNL     1       1.210   8.691  20.188  0.00  0.00    +0.000 A 
ATOM      5  O   UNL     1       0.426   9.559  20.877  0.00  0.00    +0.000 OA
ATOM      6  C   UNL     1       0.232  10.601  20.008  0.00  0.00    +0.000 A 
ATOM      7  N   UNL     1       0.833  10.453  18.836  0.00  0.00    +0.000 NA
ATOM      8  C   UNL     1       1.465   9.230  18.939  0.00  0.00    +0.000 A 
ATOM      9  C   UNL     1       2.251   8.494  18.025  0.00  0.00    +0.000 A 
ENDROOT
BRANCH   6  10
ATOM     10  C   UNL     1      -0.580  11.704  20.526  0.00  0.00    +0.000 A 
ATOM     11  C   UNL     1      -0.108  12.533  21.561  0.00  0.00    +0.000 A 
ATOM     12  C   UNL     1      -0.866  13.611  22.025  0.00  0.00    +0.000 A 
ATOM     13  C   UNL     1      -2.113  13.868  21.463  0.00  0.00    +0.000 A 
ATOM     14 BR   UNL     1      -3.129  15.339  22.073  0.00  0.00    +0.000 Br
ATOM     15  C   UNL     1      -2.610  13.050  20.449  0.00  0.00    +0.000 A 
ATOM     16  C   UNL     1      -1.844  11.973  19.983  0.00  0.00    +0.000 A 
ENDBRANCH   6  10
BRANCH   1  19
ATOM     17  O   UNL     1       5.441   7.354  17.622  0.00  0.00    +0.000 OA
ATOM     18  C   UNL     1       4.697   6.520  17.111  0.00  0.00    +0.000 C 
ATOM     19  N   UNL     1       3.350   6.381  17.443  0.00  0.00    +0.000 N 
ATOM     20  H   UNL     1       2.877   5.543  17.123  0.00  0.00    +0.000 HD
BRANCH  18  21
ATOM     21  C   UNL     1       5.275   5.598  16.154  0.00  0.00    +0.000 A 
ATOM     22  C   UNL     1       5.232   4.212  16.225  0.00  0.00    +0.000 A 
ATOM     23  C   UNL     1       5.990   3.711  15.151  0.00  0.00    +0.000 A 
ATOM     24  C   UNL     1       6.452   4.825  14.490  0.00  0.00    +0.000 A 
ATOM     25  O   UNL     1       6.014   5.989  15.066  0.00  0.00    +0.000 OA
BRANCH  24  26
ATOM     26  N   UNL     1       7.323   4.928  13.363  0.00  0.00    +0.000 N 
ATOM     27  O   UNL     1       7.044   4.221  12.387  0.00  0.00    +0.000 OA
ATOM     28  O   UNL     1       8.284   5.706  13.449  0.00  0.00    +0.000 OA
ENDBRANCH  24  26
ENDBRANCH  18  21
ENDBRANCH   1  19
TORSDOF 4
ENDMDL
MODEL 7
REMARK VINA RESULT:      -7.8      3.066      3.933
REMARK  Name = 
REMARK  4 active torsions:
REMARK  status: ('A' for Active; 'I' for Inactive)
REMARK    1  A    between atoms: C_2  and  C_20
REMARK    2  A    between atoms: N_3  and  C_4
REMARK    3  A    between atoms: C_9  and  C_10
REMARK    4  A    between atoms: C_23  and  N_24
REMARK                            x       y       z     vdW  Elec       q    Type
REMARK                         _______ _______ _______ _____ _____    ______ ____
ROOT
ATOM      1  C   UNL     1       1.687   8.757  18.429  0.00  0.00    +0.000 A 
ATOM      2  C   UNL     1       1.594   9.168  19.774  0.00  0.00    +0.000 A 
ATOM      3  C   UNL     1       0.512   9.890  20.280  0.00  0.00    +0.000 A 
ATOM      4  C   UNL     1      -0.468  10.195  19.359  0.00  0.00    +0.000 A 
ATOM      5  O   UNL     1      -1.631  10.849  19.605  0.00  0.00    +0.000 OA
ATOM      6  C   UNL     1      -2.258  10.894  18.386  0.00  0.00    +0.000 A 
ATOM      7  N   UNL     1      -1.577  10.322  17.403  0.00  0.00    +0.000 NA
ATOM      8  C   UNL     1      -0.426   9.870  18.015  0.00  0.00    +0.000 A 
ATOM      9  C   UNL     1       0.691   9.160  17.518  0.00  0.00    +0.000 A 
ENDROOT
BRANCH   6  10
ATOM     10  C   UNL     1      -3.551  11.580  18.372  0.00  0.00    +0.000 A 
ATOM     11  C   UNL     1      -4.386  11.537  17.240  0.00  0.00    +0.000 A 
ATOM     12  C   UNL     1      -5.639  12.156  17.243  0.00  0.00    +0.000 A 
ATOM     13  C   UNL     1      -6.067  12.836  18.379  0.00  0.00    +0.000 A 
ATOM     14 BR   UNL     1      -7.770  13.654  18.393  0.00  0.00    +0.000 Br
ATOM     15  C   UNL     1      -5.250  12.909  19.506  0.00  0.00    +0.000 A 
ATOM     16  C   UNL     1      -3.997  12.282  19.501  0.00  0.00    +0.000 A 
ENDBRANCH   6  10
BRANCH   1  19
ATOM     17  O   UNL     1       1.803   5.907  18.672  0.00  0.00    +0.000 OA
ATOM     18  C   UNL     1       2.730   6.521  18.148  0.00  0.00    +0.000 C 
ATOM     19  N   UNL     1       2.745   7.905  17.985  0.00  0.00    +0.000 N 
ATOM     20  H   UNL     1       3.448   8.292  17.365  0.00  0.00    +0.000 HD
BRANCH  18  21
ATOM     21  C   UNL     1       3.836   5.748  17.622  0.00  0.00    +0.000 A 
ATOM     22  C   UNL     1       3.835   4.381  17.374  0.00  0.00    +0.000 A 
ATOM     23  C   UNL     1       5.132   4.027  16.959  0.00  0.00    +0.000 A 
ATOM     24  C   UNL     1       5.847   5.201  16.979  0.00  0.00    +0.000 A 
ATOM     25  O   UNL     1       5.078   6.271  17.358  0.00  0.00    +0.000 OA
BRANCH  24  26
ATOM     26  N   UNL     1       7.230   5.438  16.714  0.00  0.00    +0.000 N 
ATOM     27  O   UNL     1       7.560   6.616  16.526  0.00  0.00    +0.000 OA
ATOM     28  O   UNL     1       7.986   4.456  16.688  0.00  0.00    +0.000 OA
ENDBRANCH  24  26
ENDBRANCH  18  21
ENDBRANCH   1  19
TORSDOF 4
ENDMDL
MODEL 8
REMARK VINA RESULT:      -7.7      3.768      4.699
REMARK  Name = 
REMARK  4 active torsions:
REMARK  status: ('A' for Active; 'I' for Inactive)
REMARK    1  A    between atoms: C_2  and  C_20
REMARK    2  A    between atoms: N_3  and  C_4
REMARK    3  A    between atoms: C_9  and  C_10
REMARK    4  A    between atoms: C_23  and  N_24
REMARK                            x       y       z     vdW  Elec       q    Type
REMARK                         _______ _______ _______ _____ _____    ______ ____
ROOT
ATOM      1  C   UNL     1       1.455   8.464  20.612  0.00  0.00    +0.000 A 
ATOM      2  C   UNL     1       1.163   9.259  19.485  0.00  0.00    +0.000 A 
ATOM      3  C   UNL     1       0.438  10.451  19.557  0.00  0.00    +0.000 A 
ATOM      4  C   UNL     1       0.005  10.794  20.820  0.00  0.00    +0.000 A 
ATOM      5  O   UNL     1      -0.679  11.916  21.161  0.00  0.00    +0.000 OA
ATOM      6  C   UNL     1      -0.863  11.800  22.515  0.00  0.00    +0.000 A 
ATOM      7  N   UNL     1      -0.351  10.697  23.042  0.00  0.00    +0.000 NA
ATOM      8  C   UNL     1       0.209  10.043  21.964  0.00  0.00    +0.000 A 
ATOM      9  C   UNL     1       0.924   8.828  21.865  0.00  0.00    +0.000 A 
ENDROOT
BRANCH   6  10
ATOM     10  C   UNL     1      -1.609  12.894  23.140  0.00  0.00    +0.000 A 
ATOM     11  C   UNL     1      -1.045  14.176  23.276  0.00  0.00    +0.000 A 
ATOM     12  C   UNL     1      -1.774  15.230  23.834  0.00  0.00    +0.000 A 
ATOM     13  C   UNL     1      -3.076  15.010  24.272  0.00  0.00    +0.000 A 
ATOM     14 BR   UNL     1      -4.070  16.439  25.006  0.00  0.00    +0.000 Br
ATOM     15  C   UNL     1      -3.650  13.744  24.166  0.00  0.00    +0.000 A 
ATOM     16  C   UNL     1      -2.918  12.691  23.601  0.00  0.00    +0.000 A 
ENDBRANCH   6  10
BRANCH   1  19
ATOM     17  O   UNL     1       2.262   7.132  18.210  0.00  0.00    +0.000 OA
ATOM     18  C   UNL     1       2.654   6.728  19.303  0.00  0.00    +0.000 C 
ATOM     19  N   UNL     1       2.313   7.325  20.514  0.00  0.00    +0.000 N 
ATOM     20  H   UNL     1       2.843   7.050  21.334  0.00  0.00    +0.000 HD
BRANCH  18  21
ATOM     21  C   UNL     1       3.566   5.602  19.316  0.00  0.00    +0.000 A 
ATOM     22  C   UNL     1       4.913   5.637  18.980  0.00  0.00    +0.000 A 
ATOM     23  C   UNL     1       5.397   4.317  19.040  0.00  0.00    +0.000 A 
ATOM     24  C   UNL     1       4.313   3.556  19.409  0.00  0.00    +0.000 A 
ATOM     25  O   UNL     1       3.189   4.315  19.606  0.00  0.00    +0.000 OA
BRANCH  24  26
ATOM     26  N   UNL     1       4.195   2.141  19.564  0.00  0.00    +0.000 N 
ATOM     27  O   UNL     1       3.299   1.589  18.913  0.00  0.00    +0.000 OA
ATOM     28  O   UNL     1       4.987   1.580  20.335  0.00  0.00    +0.000 OA
ENDBRANCH  24  26
ENDBRANCH  18  21
ENDBRANCH   1  19
TORSDOF 4
ENDMDL
MODEL 9
REMARK VINA RESULT:      -7.7      1.225      1.695
REMARK  Name = 
REMARK  4 active torsions:
REMARK  status: ('A' for Active; 'I' for Inactive)
REMARK    1  A    between atoms: C_2  and  C_20
REMARK    2  A    between atoms: N_3  and  C_4
REMARK    3  A    between atoms: C_9  and  C_10
REMARK    4  A    between atoms: C_23  and  N_24
REMARK                            x       y       z     vdW  Elec       q    Type
REMARK                         _______ _______ _______ _____ _____    ______ ____
ROOT
ATOM      1  C   UNL     1       3.366   6.701  17.975  0.00  0.00    +0.000 A 
ATOM      2  C   UNL     1       3.132   5.905  19.115  0.00  0.00    +0.000 A 
ATOM      3  C   UNL     1       2.320   6.310  20.176  0.00  0.00    +0.000 A 
ATOM      4  C   UNL     1       1.767   7.566  20.042  0.00  0.00    +0.000 A 
ATOM      5  O   UNL     1       0.916   8.170  20.909  0.00  0.00    +0.000 OA
ATOM      6  C   UNL     1       0.649   9.384  20.330  0.00  0.00    +0.000 A 
ATOM      7  N   UNL     1       1.267   9.584  19.175  0.00  0.00    +0.000 NA
ATOM      8  C   UNL     1       1.988   8.424  18.979  0.00  0.00    +0.000 A 
ATOM      9  C   UNL     1       2.834   8.005  17.927  0.00  0.00    +0.000 A 
ENDROOT
BRANCH   6  10
ATOM     10  C   UNL     1      -0.247  10.256  21.092  0.00  0.00    +0.000 A 
ATOM     11  C   UNL     1      -0.457  10.061  22.469  0.00  0.00    +0.000 A 
ATOM     12  C   UNL     1      -1.279  10.921  23.204  0.00  0.00    +0.000 A 
ATOM     13  C   UNL     1      -1.909  11.983  22.563  0.00  0.00    +0.000 A 
ATOM     14 BR   UNL     1      -3.002  13.159  23.559  0.00  0.00    +0.000 Br
ATOM     15  C   UNL     1      -1.732  12.186  21.196  0.00  0.00    +0.000 A 
ATOM     16  C   UNL     1      -0.903  11.325  20.464  0.00  0.00    +0.000 A 
ENDBRANCH   6  10
BRANCH   1  19
ATOM     17  O   UNL     1       5.801   5.197  18.052  0.00  0.00    +0.000 OA
ATOM     18  C   UNL     1       5.279   5.475  16.974  0.00  0.00    +0.000 C 
ATOM     19  N   UNL     1       4.093   6.195  16.853  0.00  0.00    +0.000 N 
ATOM     20  H   UNL     1       3.640   6.197  15.946  0.00  0.00    +0.000 HD
BRANCH  18  21
ATOM     21  C   UNL     1       5.912   4.972  15.771  0.00  0.00    +0.000 A 
ATOM     22  C   UNL     1       7.239   5.159  15.405  0.00  0.00    +0.000 A 
ATOM     23  C   UNL     1       7.409   4.588  14.131  0.00  0.00    +0.000 A 
ATOM     24  C   UNL     1       6.173   4.087  13.796  0.00  0.00    +0.000 A 
ATOM     25  O   UNL     1       5.247   4.287  14.786  0.00  0.00    +0.000 OA
BRANCH  24  26
ATOM     26  N   UNL     1       5.734   3.455  12.592  0.00  0.00    +0.000 N 
ATOM     27  O   UNL     1       6.603   2.880  11.926  0.00  0.00    +0.000 OA
ATOM     28  O   UNL     1       4.530   3.534  12.309  0.00  0.00    +0.000 OA
ENDBRANCH  24  26
ENDBRANCH  18  21
ENDBRANCH   1  19
TORSDOF 4
ENDMDL
