MODEL 1
REMARK VINA RESULT:      -4.6      0.000      0.000
REMARK  Name = 
REMARK  6 active torsions:
REMARK  status: ('A' for Active; 'I' for Inactive)
REMARK    1  A    between atoms: C_1  and  O_2
REMARK    2  A    between atoms: O_2  and  C_3
REMARK    3  A    between atoms: C_3  and  C_4
REMARK    4  A    between atoms: C_4  and  N_5
REMARK    5  A    between atoms: C_8  and  C_9
REMARK    6  A    between atoms: C_9  and  O_10
REMARK                            x       y       z     vdW  Elec       q    Type
REMARK                         _______ _______ _______ _____ _____    ______ ____
ROOT
ATOM      1  N   UNL     1       3.887   4.041  19.305  0.00  0.00    +0.000 NA
ATOM      2  C   UNL     1       4.051   2.576  19.268  0.00  0.00    +0.000 C 
ATOM      3  C   UNL     1       3.239   2.129  18.067  0.00  0.00    +0.000 C 
ATOM      4  C   UNL     1       2.014   3.035  18.123  0.00  0.00    +0.000 C 
ATOM      5  C   UNL     1       2.493   4.280  18.882  0.00  0.00    +0.000 C 
ENDROOT
BRANCH   1   6
ATOM      6  C   UNL     1       4.874   4.706  18.428  0.00  0.00    +0.000 C 
BRANCH   6   7
ATOM      7  C   UNL     1       6.111   5.235  19.171  0.00  0.00    +0.000 C 
BRANCH   7   9
ATOM      8  C   UNL     1       7.265   4.574  17.227  0.00  0.00    +0.000 C 
ATOM      9  O   UNL     1       7.279   4.593  18.650  0.00  0.00    +0.000 OA
ENDBRANCH   7   9
ENDBRANCH   6   7
ENDBRANCH   1   6
BRANCH   4  10
ATOM     10  C   UNL     1       0.833   2.379  18.844  0.00  0.00    +0.000 C 
BRANCH  10  11
ATOM     11  O   UNL     1       0.498   3.101  20.022  0.00  0.00    +0.000 OA
ATOM     12  H   UNL     1       0.194   2.457  20.687  0.00  0.00    +0.000 HD
ENDBRANCH  10  11
ENDBRANCH   4  10
TORSDOF 5
ENDMDL
MODEL 2
REMARK VINA RESULT:      -4.4      1.232      1.735
REMARK  Name = 
REMARK  6 active torsions:
REMARK  status: ('A' for Active; 'I' for Inactive)
REMARK    1  A    between atoms: C_1  and  O_2
REMARK    2  A    between atoms: O_2  and  C_3
REMARK    3  A    between atoms: C_3  and  C_4
REMARK    4  A    between atoms: C_4  and  N_5
REMARK    5  A    between atoms: C_8  and  C_9
REMARK    6  A    between atoms: C_9  and  O_10
REMARK                            x       y       z     vdW  Elec       q    Type
REMARK                         _______ _______ _______ _____ _____    ______ ____
ROOT
ATOM      1  N   UNL     1       3.939   3.383  18.323  0.00  0.00    +0.000 NA
ATOM      2  C   UNL     1       2.594   3.552  17.743  0.00  0.00    +0.000 C 
ATOM      3  C   UNL     1       1.851   4.418  18.743  0.00  0.00    +0.000 C 
ATOM      4  C   UNL     1       2.344   3.893  20.087  0.00  0.00    +0.000 C 
ATOM      5  C   UNL     1       3.718   3.283  19.778  0.00  0.00    +0.000 C 
ENDROOT
BRANCH   1   6
ATOM      6  C   UNL     1       4.819   4.512  17.953  0.00  0.00    +0.000 C 
BRANCH   6   7
ATOM      7  C   UNL     1       5.643   5.070  19.125  0.00  0.00    +0.000 C 
BRANCH   7   9
ATOM      8  C   UNL     1       7.424   4.640  17.644  0.00  0.00    +0.000 C 
ATOM      9  O   UNL     1       6.996   4.618  19.000  0.00  0.00    +0.000 OA
ENDBRANCH   7   9
ENDBRANCH   6   7
ENDBRANCH   1   6
BRANCH   4  10
ATOM     10  C   UNL     1       1.404   2.843  20.686  0.00  0.00    +0.000 C 
BRANCH  10  11
ATOM     11  O   UNL     1       1.708   2.620  22.057  0.00  0.00    +0.000 OA
ATOM     12  H   UNL     1       1.126   1.907  22.377  0.00  0.00    +0.000 HD
ENDBRANCH  10  11
ENDBRANCH   4  10
TORSDOF 5
ENDMDL
MODEL 3
REMARK VINA RESULT:      -4.4      2.683      3.238
REMARK  Name = 
REMARK  6 active torsions:
REMARK  status: ('A' for Active; 'I' for Inactive)
REMARK    1  A    between atoms: C_1  and  O_2
REMARK    2  A    between atoms: O_2  and  C_3
REMARK    3  A    between atoms: C_3  and  C_4
REMARK    4  A    between atoms: C_4  and  N_5
REMARK    5  A    between atoms: C_8  and  C_9
REMARK    6  A    between atoms: C_9  and  O_10
REMARK                            x       y       z     vdW  Elec       q    Type
REMARK                         _______ _______ _______ _____ _____    ______ ____
ROOT
ATOM      1  N   UNL     1       3.178   3.603  18.693  0.00  0.00    +0.000 NA
ATOM      2  C   UNL     1       2.270   2.467  18.447  0.00  0.00    +0.000 C 
ATOM      3  C   UNL     1       0.959   2.877  19.091  0.00  0.00    +0.000 C 
ATOM      4  C   UNL     1       1.408   3.590  20.361  0.00  0.00    +0.000 C 
ATOM      5  C   UNL     1       2.823   4.090  20.040  0.00  0.00    +0.000 C 
ENDROOT
BRANCH   1   6
ATOM      6  C   UNL     1       3.023   4.638  17.649  0.00  0.00    +0.000 C 
BRANCH   6   7
ATOM      7  C   UNL     1       3.434   6.048  18.103  0.00  0.00    +0.000 C 
BRANCH   7   9
ATOM      8  C   UNL     1       2.622   8.238  17.800  0.00  0.00    +0.000 C 
ATOM      9  O   UNL     1       2.278   6.892  18.107  0.00  0.00    +0.000 OA
ENDBRANCH   7   9
ENDBRANCH   6   7
ENDBRANCH   1   6
BRANCH   4  10
ATOM     10  C   UNL     1       1.422   2.664  21.580  0.00  0.00    +0.000 C 
BRANCH  10  11
ATOM     11  O   UNL     1       2.749   2.475  22.054  0.00  0.00    +0.000 OA
ATOM     12  H   UNL     1       3.189   3.345  22.059  0.00  0.00    +0.000 HD
ENDBRANCH  10  11
ENDBRANCH   4  10
TORSDOF 5
ENDMDL
MODEL 4
REMARK VINA RESULT:      -4.4      2.113      2.507
REMARK  Name = 
REMARK  6 active torsions:
REMARK  status: ('A' for Active; 'I' for Inactive)
REMARK    1  A    between atoms: C_1  and  O_2
REMARK    2  A    between atoms: O_2  and  C_3
REMARK    3  A    between atoms: C_3  and  C_4
REMARK    4  A    between atoms: C_4  and  N_5
REMARK    5  A    between atoms: C_8  and  C_9
REMARK    6  A    between atoms: C_9  and  O_10
REMARK                            x       y       z     vdW  Elec       q    Type
REMARK                         _______ _______ _______ _____ _____    ______ ____
ROOT
ATOM      1  N   UNL     1       3.177   3.088  18.622  0.00  0.00    +0.000 NA
ATOM      2  C   UNL     1       2.134   2.049  18.532  0.00  0.00    +0.000 C 
ATOM      3  C   UNL     1       0.885   2.710  19.082  0.00  0.00    +0.000 C 
ATOM      4  C   UNL     1       1.420   3.546  20.239  0.00  0.00    +0.000 C 
ATOM      5  C   UNL     1       2.886   3.813  19.873  0.00  0.00    +0.000 C 
ENDROOT
BRANCH   1   6
ATOM      6  C   UNL     1       3.153   3.964  17.432  0.00  0.00    +0.000 C 
BRANCH   6   7
ATOM      7  C   UNL     1       3.730   5.367  17.680  0.00  0.00    +0.000 C 
BRANCH   7   9
ATOM      8  C   UNL     1       5.575   6.671  17.012  0.00  0.00    +0.000 C 
ATOM      9  O   UNL     1       4.613   5.706  16.604  0.00  0.00    +0.000 OA
ENDBRANCH   7   9
ENDBRANCH   6   7
ENDBRANCH   1   6
BRANCH   4  10
ATOM     10  C   UNL     1       1.318   2.820  21.584  0.00  0.00    +0.000 C 
BRANCH  10  11
ATOM     11  O   UNL     1       2.602   2.673  22.175  0.00  0.00    +0.000 OA
ATOM     12  H   UNL     1       2.623   1.811  22.627  0.00  0.00    +0.000 HD
ENDBRANCH  10  11
ENDBRANCH   4  10
TORSDOF 5
ENDMDL
MODEL 5
REMARK VINA RESULT:      -4.4      2.171      5.400
REMARK  Name = 
REMARK  6 active torsions:
REMARK  status: ('A' for Active; 'I' for Inactive)
REMARK    1  A    between atoms: C_1  and  O_2
REMARK    2  A    between atoms: O_2  and  C_3
REMARK    3  A    between atoms: C_3  and  C_4
REMARK    4  A    between atoms: C_4  and  N_5
REMARK    5  A    between atoms: C_8  and  C_9
REMARK    6  A    between atoms: C_9  and  O_10
REMARK                            x       y       z     vdW  Elec       q    Type
REMARK                         _______ _______ _______ _____ _____    ______ ____
ROOT
ATOM      1  N   UNL     1       4.518   5.014  17.813  0.00  0.00    +0.000 NA
ATOM      2  C   UNL     1       5.261   6.231  17.436  0.00  0.00    +0.000 C 
ATOM      3  C   UNL     1       5.211   6.257  15.920  0.00  0.00    +0.000 C 
ATOM      4  C   UNL     1       5.368   4.788  15.546  0.00  0.00    +0.000 C 
ATOM      5  C   UNL     1       4.858   4.023  16.774  0.00  0.00    +0.000 C 
ENDROOT
BRANCH   1   6
ATOM      6  C   UNL     1       3.068   5.285  17.895  0.00  0.00    +0.000 C 
BRANCH   6   7
ATOM      7  C   UNL     1       2.187   4.064  17.584  0.00  0.00    +0.000 C 
BRANCH   7   9
ATOM      8  C   UNL     1       0.944   2.488  18.816  0.00  0.00    +0.000 C 
ATOM      9  O   UNL     1       1.268   3.864  18.663  0.00  0.00    +0.000 OA
ENDBRANCH   7   9
ENDBRANCH   6   7
ENDBRANCH   1   6
BRANCH   4  10
ATOM     10  C   UNL     1       6.820   4.413  15.236  0.00  0.00    +0.000 C 
BRANCH  10  11
ATOM     11  O   UNL     1       7.565   5.562  14.852  0.00  0.00    +0.000 OA
ATOM     12  H   UNL     1       6.931   6.260  14.611  0.00  0.00    +0.000 HD
ENDBRANCH  10  11
ENDBRANCH   4  10
TORSDOF 5
ENDMDL
MODEL 6
REMARK VINA RESULT:      -4.4      1.714      2.050
REMARK  Name = 
REMARK  6 active torsions:
REMARK  status: ('A' for Active; 'I' for Inactive)
REMARK    1  A    between atoms: C_1  and  O_2
REMARK    2  A    between atoms: O_2  and  C_3
REMARK    3  A    between atoms: C_3  and  C_4
REMARK    4  A    between atoms: C_4  and  N_5
REMARK    5  A    between atoms: C_8  and  C_9
REMARK    6  A    between atoms: C_9  and  O_10
REMARK                            x       y       z     vdW  Elec       q    Type
REMARK                         _______ _______ _______ _____ _____    ______ ____
ROOT
ATOM      1  N   UNL     1       3.643   3.398  18.687  0.00  0.00    +0.000 NA
ATOM      2  C   UNL     1       2.733   2.282  18.368  0.00  0.00    +0.000 C 
ATOM      3  C   UNL     1       1.349   2.809  18.697  0.00  0.00    +0.000 C 
ATOM      4  C   UNL     1       1.584   3.628  19.962  0.00  0.00    +0.000 C 
ATOM      5  C   UNL     1       3.062   4.033  19.886  0.00  0.00    +0.000 C 
ENDROOT
BRANCH   1   6
ATOM      6  C   UNL     1       3.758   4.328  17.545  0.00  0.00    +0.000 C 
BRANCH   6   7
ATOM      7  C   UNL     1       4.821   3.918  16.512  0.00  0.00    +0.000 C 
BRANCH   7   9
ATOM      8  C   UNL     1       6.948   4.709  15.883  0.00  0.00    +0.000 C 
ATOM      9  O   UNL     1       6.108   4.346  16.971  0.00  0.00    +0.000 OA
ENDBRANCH   7   9
ENDBRANCH   6   7
ENDBRANCH   1   6
BRANCH   4  10
ATOM     10  C   UNL     1       1.303   2.829  21.238  0.00  0.00    +0.000 C 
BRANCH  10  11
ATOM     11  O   UNL     1       2.247   3.151  22.251  0.00  0.00    +0.000 OA
ATOM     12  H   UNL     1       2.663   2.321  22.543  0.00  0.00    +0.000 HD
ENDBRANCH  10  11
ENDBRANCH   4  10
TORSDOF 5
ENDMDL
MODEL 7
REMARK VINA RESULT:      -4.3      2.971      3.551
REMARK  Name = 
REMARK  6 active torsions:
REMARK  status: ('A' for Active; 'I' for Inactive)
REMARK    1  A    between atoms: C_1  and  O_2
REMARK    2  A    between atoms: O_2  and  C_3
REMARK    3  A    between atoms: C_3  and  C_4
REMARK    4  A    between atoms: C_4  and  N_5
REMARK    5  A    between atoms: C_8  and  C_9
REMARK    6  A    between atoms: C_9  and  O_10
REMARK                            x       y       z     vdW  Elec       q    Type
REMARK                         _______ _______ _______ _____ _____    ______ ____
ROOT
ATOM      1  N   UNL     1       3.310   4.901  19.270  0.00  0.00    +0.000 NA
ATOM      2  C   UNL     1       3.194   3.529  18.741  0.00  0.00    +0.000 C 
ATOM      3  C   UNL     1       1.708   3.225  18.788  0.00  0.00    +0.000 C 
ATOM      4  C   UNL     1       1.265   3.876  20.094  0.00  0.00    +0.000 C 
ATOM      5  C   UNL     1       2.295   4.987  20.337  0.00  0.00    +0.000 C 
ENDROOT
BRANCH   1   6
ATOM      6  C   UNL     1       3.103   5.898  18.199  0.00  0.00    +0.000 C 
BRANCH   6   7
ATOM      7  C   UNL     1       2.516   7.231  18.693  0.00  0.00    +0.000 C 
BRANCH   7   9
ATOM      8  C   UNL     1       1.824   9.333  17.888  0.00  0.00    +0.000 C 
ATOM      9  O   UNL     1       2.685   8.222  17.674  0.00  0.00    +0.000 OA
ENDBRANCH   7   9
ENDBRANCH   6   7
ENDBRANCH   1   6
BRANCH   4  10
ATOM     10  C   UNL     1       1.243   2.888  21.264  0.00  0.00    +0.000 C 
BRANCH  10  11
ATOM     11  O   UNL     1       2.246   3.215  22.217  0.00  0.00    +0.000 OA
ATOM     12  H   UNL     1       2.883   3.811  21.784  0.00  0.00    +0.000 HD
ENDBRANCH  10  11
ENDBRANCH   4  10
TORSDOF 5
ENDMDL
MODEL 8
REMARK VINA RESULT:      -4.3      2.067      4.665
REMARK  Name = 
REMARK  6 active torsions:
REMARK  status: ('A' for Active; 'I' for Inactive)
REMARK    1  A    between atoms: C_1  and  O_2
REMARK    2  A    between atoms: O_2  and  C_3
REMARK    3  A    between atoms: C_3  and  C_4
REMARK    4  A    between atoms: C_4  and  N_5
REMARK    5  A    between atoms: C_8  and  C_9
REMARK    6  A    between atoms: C_9  and  O_10
REMARK                            x       y       z     vdW  Elec       q    Type
REMARK                         _______ _______ _______ _____ _____    ______ ____
ROOT
ATOM      1  N   UNL     1       4.708   4.016  19.037  0.00  0.00    +0.000 NA
ATOM      2  C   UNL     1       4.187   5.320  19.489  0.00  0.00    +0.000 C 
ATOM      3  C   UNL     1       3.416   5.859  18.299  0.00  0.00    +0.000 C 
ATOM      4  C   UNL     1       4.277   5.440  17.113  0.00  0.00    +0.000 C 
ATOM      5  C   UNL     1       5.053   4.215  17.616  0.00  0.00    +0.000 C 
ENDROOT
BRANCH   1   6
ATOM      6  C   UNL     1       3.706   2.949  19.240  0.00  0.00    +0.000 C 
BRANCH   6   7
ATOM      7  C   UNL     1       3.450   2.088  17.992  0.00  0.00    +0.000 C 
BRANCH   7   9
ATOM      8  C   UNL     1       1.268   2.745  18.588  0.00  0.00    +0.000 C 
ATOM      9  O   UNL     1       2.117   2.326  17.526  0.00  0.00    +0.000 OA
ENDBRANCH   7   9
ENDBRANCH   6   7
ENDBRANCH   1   6
BRANCH   4  10
ATOM     10  C   UNL     1       5.238   6.546  16.666  0.00  0.00    +0.000 C 
BRANCH  10  11
ATOM     11  O   UNL     1       5.177   6.727  15.258  0.00  0.00    +0.000 OA
ATOM     12  H   UNL     1       4.479   6.141  14.913  0.00  0.00    +0.000 HD
ENDBRANCH  10  11
ENDBRANCH   4  10
TORSDOF 5
ENDMDL
MODEL 9
REMARK VINA RESULT:      -4.3      1.337      1.438
REMARK  Name = 
REMARK  6 active torsions:
REMARK  status: ('A' for Active; 'I' for Inactive)
REMARK    1  A    between atoms: C_1  and  O_2
REMARK    2  A    between atoms: O_2  and  C_3
REMARK    3  A    between atoms: C_3  and  C_4
REMARK    4  A    between atoms: C_4  and  N_5
REMARK    5  A    between atoms: C_8  and  C_9
REMARK    6  A    between atoms: C_9  and  O_10
REMARK                            x       y       z     vdW  Elec       q    Type
REMARK                         _______ _______ _______ _____ _____    ______ ____
ROOT
ATOM      1  N   UNL     1       4.537   4.832  18.372  0.00  0.00    +0.000 NA
ATOM      2  C   UNL     1       4.556   3.424  18.810  0.00  0.00    +0.000 C 
ATOM      3  C   UNL     1       3.681   2.698  17.806  0.00  0.00    +0.000 C 
ATOM      4  C   UNL     1       2.552   3.691  17.553  0.00  0.00    +0.000 C 
ATOM      5  C   UNL     1       3.165   5.059  17.878  0.00  0.00    +0.000 C 
ENDROOT
BRANCH   1   6
ATOM      6  C   UNL     1       5.567   5.078  17.341  0.00  0.00    +0.000 C 
BRANCH   6   7
ATOM      7  C   UNL     1       6.999   4.760  17.802  0.00  0.00    +0.000 C 
BRANCH   7   9
ATOM      8  C   UNL     1       7.069   4.645  15.451  0.00  0.00    +0.000 C 
ATOM      9  O   UNL     1       7.806   4.476  16.655  0.00  0.00    +0.000 OA
ENDBRANCH   7   9
ENDBRANCH   6   7
ENDBRANCH   1   6
BRANCH   4  10
ATOM     10  C   UNL     1       1.326   3.422  18.430  0.00  0.00    +0.000 C 
BRANCH  10  11
ATOM     11  O   UNL     1       1.316   4.285  19.559  0.00  0.00    +0.000 OA
ATOM     12  H   UNL     1       1.445   3.736  20.354  0.00  0.00    +0.000 HD
ENDBRANCH  10  11
ENDBRANCH   4  10
TORSDOF 5
ENDMDL
