MODEL 1
REMARK VINA RESULT:      -7.0      0.000      0.000
REMARK  Name = 
REMARK  14 active torsions:
REMARK  status: ('A' for Active; 'I' for Inactive)
REMARK    1  A    between atoms: C_1  and  C_2
REMARK    2  A    between atoms: C_2  and  C_3
REMARK    3  A    between atoms: C_3  and  C_4
REMARK    4  A    between atoms: C_3  and  C_29
REMARK    5  A    between atoms: C_4  and  C_5
REMARK    6  A    between atoms: C_5  and  O_6
REMARK    7  A    between atoms: C_5  and  C_7
REMARK    8  A    between atoms: C_7  and  C_8
REMARK    9  A    between atoms: C_7  and  C_9
REMARK   10  A    between atoms: C_18  and  O_19
REMARK   11  A    between atoms: C_22  and  C_23
REMARK   12  A    between atoms: C_27  and  C_28
REMARK   13  A    between atoms: C_29  and  C_30
REMARK   14  A    between atoms: C_29  and  C_31
REMARK                            x       y       z     vdW  Elec       q    Type
REMARK                         _______ _______ _______ _____ _____    ______ ____
ROOT
ATOM      1  C   UNL     1       1.106  11.007  19.446  0.00  0.00    +0.000 C 
ATOM      2  C   UNL     1       0.378  10.784  20.791  0.00  0.00    +0.000 C 
ATOM      3  C   UNL     1       0.448   9.278  21.085  0.00  0.00    +0.000 C 
ATOM      4  C   UNL     1       1.472   8.742  20.091  0.00  0.00    +0.000 C 
ATOM      5  C   UNL     1       1.480   7.236  19.808  0.00  0.00    +0.000 C 
ATOM      6  C   UNL     1       1.661   6.421  21.093  0.00  0.00    +0.000 C 
ATOM      7  C   UNL     1       1.929   4.970  20.816  0.00  0.00    +0.000 C 
ATOM      8  C   UNL     1       2.304   4.482  19.620  0.00  0.00    +0.000 C 
ATOM      9  C   UNL     1       2.513   2.995  19.443  0.00  0.00    +0.000 C 
ATOM     10  C   UNL     1       3.874   2.676  18.822  0.00  0.00    +0.000 C 
ATOM     11  C   UNL     1       4.111   3.471  17.539  0.00  0.00    +0.000 C 
ATOM     12  C   UNL     1       3.935   4.971  17.770  0.00  0.00    +0.000 C 
ATOM     13  C   UNL     1       2.562   5.363  18.388  0.00  0.00    +0.000 C 
ATOM     14  C   UNL     1       1.443   5.095  17.349  0.00  0.00    +0.000 C 
ATOM     15  C   UNL     1       2.611   6.887  18.797  0.00  0.00    +0.000 C 
ATOM     16  C   UNL     1       2.675   7.846  17.586  0.00  0.00    +0.000 C 
ATOM     17  C   UNL     1       2.482   9.324  17.933  0.00  0.00    +0.000 C 
ATOM     18  C   UNL     1       1.232   9.576  18.812  0.00  0.00    +0.000 C 
ATOM     19  C   UNL     1      -0.050   9.164  18.055  0.00  0.00    +0.000 C 
ENDROOT
BRANCH   1  20
ATOM     20  C   UNL     1       0.583  12.217  18.581  0.00  0.00    +0.000 C 
ATOM     21  C   UNL     1       1.542  13.405  18.444  0.00  0.00    +0.000 C 
BRANCH  20  22
ATOM     22  C   UNL     1      -0.832  12.610  19.062  0.00  0.00    +0.000 C 
BRANCH  22  23
ATOM     23  O   UNL     1      -1.669  12.555  17.909  0.00  0.00    +0.000 OA
ATOM     24  H   UNL     1      -2.542  12.231  18.188  0.00  0.00    +0.000 HD
ENDBRANCH  22  23
BRANCH  22  25
ATOM     25  C   UNL     1      -1.044  13.953  19.770  0.00  0.00    +0.000 C 
BRANCH  25  26
ATOM     26  C   UNL     1      -1.726  13.824  21.181  0.00  0.00    +0.000 C 
BRANCH  26  27
ATOM     27  C   UNL     1      -0.680  13.791  22.353  0.00  0.00    +0.000 C 
ATOM     28  C   UNL     1       0.652  14.435  21.951  0.00  0.00    +0.000 C 
ATOM     29  C   UNL     1      -1.191  14.473  23.634  0.00  0.00    +0.000 C 
ENDBRANCH  26  27
BRANCH  26  31
ATOM     30  C   UNL     1      -4.116  12.935  20.699  0.00  0.00    +0.000 C 
ATOM     31  C   UNL     1      -2.740  12.653  21.289  0.00  0.00    +0.000 C 
ENDBRANCH  26  31
ENDBRANCH  25  26
ENDBRANCH  22  25
ENDBRANCH  20  22
ENDBRANCH   1  20
BRANCH  10  32
ATOM     32  O   UNL     1       3.959   1.282  18.533  0.00  0.00    +0.000 OA
ATOM     33  H   UNL     1       4.747   0.932  18.983  0.00  0.00    +0.000 HD
ENDBRANCH  10  32
TORSDOF 8
ENDMDL
MODEL 2
REMARK VINA RESULT:      -6.7      2.127      9.326
REMARK  Name = 
REMARK  14 active torsions:
REMARK  status: ('A' for Active; 'I' for Inactive)
REMARK    1  A    between atoms: C_1  and  C_2
REMARK    2  A    between atoms: C_2  and  C_3
REMARK    3  A    between atoms: C_3  and  C_4
REMARK    4  A    between atoms: C_3  and  C_29
REMARK    5  A    between atoms: C_4  and  C_5
REMARK    6  A    between atoms: C_5  and  O_6
REMARK    7  A    between atoms: C_5  and  C_7
REMARK    8  A    between atoms: C_7  and  C_8
REMARK    9  A    between atoms: C_7  and  C_9
REMARK   10  A    between atoms: C_18  and  O_19
REMARK   11  A    between atoms: C_22  and  C_23
REMARK   12  A    between atoms: C_27  and  C_28
REMARK   13  A    between atoms: C_29  and  C_30
REMARK   14  A    between atoms: C_29  and  C_31
REMARK                            x       y       z     vdW  Elec       q    Type
REMARK                         _______ _______ _______ _____ _____    ______ ____
ROOT
ATOM      1  C   UNL     1       1.124   8.611  20.005  0.00  0.00    +0.000 C 
ATOM      2  C   UNL     1       1.552   8.353  21.468  0.00  0.00    +0.000 C 
ATOM      3  C   UNL     1       0.783   9.360  22.337  0.00  0.00    +0.000 C 
ATOM      4  C   UNL     1      -0.282   9.930  21.407  0.00  0.00    +0.000 C 
ATOM      5  C   UNL     1      -0.947  11.254  21.801  0.00  0.00    +0.000 C 
ATOM      6  C   UNL     1      -1.588  11.172  23.190  0.00  0.00    +0.000 C 
ATOM      7  C   UNL     1      -2.459  12.358  23.488  0.00  0.00    +0.000 C 
ATOM      8  C   UNL     1      -2.909  13.222  22.560  0.00  0.00    +0.000 C 
ATOM      9  C   UNL     1      -3.752  14.405  22.976  0.00  0.00    +0.000 C 
ATOM     10  C   UNL     1      -5.051  14.496  22.173  0.00  0.00    +0.000 C 
ATOM     11  C   UNL     1      -4.791  14.445  20.668  0.00  0.00    +0.000 C 
ATOM     12  C   UNL     1      -3.976  13.211  20.283  0.00  0.00    +0.000 C 
ATOM     13  C   UNL     1      -2.633  13.069  21.056  0.00  0.00    +0.000 C 
ATOM     14  C   UNL     1      -1.671  14.204  20.616  0.00  0.00    +0.000 C 
ATOM     15  C   UNL     1      -2.022  11.648  20.745  0.00  0.00    +0.000 C 
ATOM     16  C   UNL     1      -1.540  11.492  19.285  0.00  0.00    +0.000 C 
ATOM     17  C   UNL     1      -0.729  10.223  19.013  0.00  0.00    +0.000 C 
ATOM     18  C   UNL     1       0.418  10.014  20.032  0.00  0.00    +0.000 C 
ATOM     19  C   UNL     1       1.435  11.173  19.943  0.00  0.00    +0.000 C 
ENDROOT
BRANCH   1  20
ATOM     20  C   UNL     1       2.210   8.287  18.910  0.00  0.00    +0.000 C 
ATOM     21  C   UNL     1       1.814   8.599  17.462  0.00  0.00    +0.000 C 
BRANCH  20  22
ATOM     22  C   UNL     1       2.726   6.846  19.119  0.00  0.00    +0.000 C 
BRANCH  22  23
ATOM     23  O   UNL     1       3.871   6.712  18.279  0.00  0.00    +0.000 OA
ATOM     24  H   UNL     1       4.291   5.859  18.479  0.00  0.00    +0.000 HD
ENDBRANCH  22  23
BRANCH  22  25
ATOM     25  C   UNL     1       1.785   5.663  18.872  0.00  0.00    +0.000 C 
BRANCH  25  26
ATOM     26  C   UNL     1       2.225   4.340  19.600  0.00  0.00    +0.000 C 
BRANCH  26  27
ATOM     27  C   UNL     1       2.224   3.097  18.639  0.00  0.00    +0.000 C 
ATOM     28  C   UNL     1       0.860   2.395  18.612  0.00  0.00    +0.000 C 
ATOM     29  C   UNL     1       2.624   3.450  17.197  0.00  0.00    +0.000 C 
ENDBRANCH  26  27
BRANCH  26  31
ATOM     30  C   UNL     1       2.110   3.054  21.851  0.00  0.00    +0.000 C 
ATOM     31  C   UNL     1       1.444   4.049  20.910  0.00  0.00    +0.000 C 
ENDBRANCH  26  31
ENDBRANCH  25  26
ENDBRANCH  22  25
ENDBRANCH  20  22
ENDBRANCH   1  20
BRANCH  10  32
ATOM     32  O   UNL     1      -5.733  15.708  22.490  0.00  0.00    +0.000 OA
ATOM     33  H   UNL     1      -5.198  16.188  23.145  0.00  0.00    +0.000 HD
ENDBRANCH  10  32
TORSDOF 8
ENDMDL
MODEL 3
REMARK VINA RESULT:      -6.6      0.597      1.581
REMARK  Name = 
REMARK  14 active torsions:
REMARK  status: ('A' for Active; 'I' for Inactive)
REMARK    1  A    between atoms: C_1  and  C_2
REMARK    2  A    between atoms: C_2  and  C_3
REMARK    3  A    between atoms: C_3  and  C_4
REMARK    4  A    between atoms: C_3  and  C_29
REMARK    5  A    between atoms: C_4  and  C_5
REMARK    6  A    between atoms: C_5  and  O_6
REMARK    7  A    between atoms: C_5  and  C_7
REMARK    8  A    between atoms: C_7  and  C_8
REMARK    9  A    between atoms: C_7  and  C_9
REMARK   10  A    between atoms: C_18  and  O_19
REMARK   11  A    between atoms: C_22  and  C_23
REMARK   12  A    between atoms: C_27  and  C_28
REMARK   13  A    between atoms: C_29  and  C_30
REMARK   14  A    between atoms: C_29  and  C_31
REMARK                            x       y       z     vdW  Elec       q    Type
REMARK                         _______ _______ _______ _____ _____    ______ ____
ROOT
ATOM      1  C   UNL     1       1.067  10.976  19.522  0.00  0.00    +0.000 C 
ATOM      2  C   UNL     1       0.333  10.727  20.860  0.00  0.00    +0.000 C 
ATOM      3  C   UNL     1       0.415   9.218  21.132  0.00  0.00    +0.000 C 
ATOM      4  C   UNL     1       1.450   8.706  20.137  0.00  0.00    +0.000 C 
ATOM      5  C   UNL     1       1.474   7.204  19.833  0.00  0.00    +0.000 C 
ATOM      6  C   UNL     1       1.655   6.372  21.107  0.00  0.00    +0.000 C 
ATOM      7  C   UNL     1       1.939   4.928  20.811  0.00  0.00    +0.000 C 
ATOM      8  C   UNL     1       2.325   4.460  19.611  0.00  0.00    +0.000 C 
ATOM      9  C   UNL     1       2.549   2.979  19.414  0.00  0.00    +0.000 C 
ATOM     10  C   UNL     1       3.917   2.681  18.797  0.00  0.00    +0.000 C 
ATOM     11  C   UNL     1       4.154   3.496  17.527  0.00  0.00    +0.000 C 
ATOM     12  C   UNL     1       3.963   4.992  17.779  0.00  0.00    +0.000 C 
ATOM     13  C   UNL     1       2.583   5.362  18.393  0.00  0.00    +0.000 C 
ATOM     14  C   UNL     1       1.472   5.099  17.343  0.00  0.00    +0.000 C 
ATOM     15  C   UNL     1       2.615   6.880  18.824  0.00  0.00    +0.000 C 
ATOM     16  C   UNL     1       2.678   7.857  17.627  0.00  0.00    +0.000 C 
ATOM     17  C   UNL     1       2.468   9.328  17.994  0.00  0.00    +0.000 C 
ATOM     18  C   UNL     1       1.211   9.556  18.869  0.00  0.00    +0.000 C 
ATOM     19  C   UNL     1      -0.063   9.143  18.097  0.00  0.00    +0.000 C 
ENDROOT
BRANCH   1  20
ATOM     20  C   UNL     1       0.538  12.194  18.672  0.00  0.00    +0.000 C 
ATOM     21  C   UNL     1       1.366  13.481  18.759  0.00  0.00    +0.000 C 
BRANCH  20  22
ATOM     22  C   UNL     1      -0.965  12.399  18.960  0.00  0.00    +0.000 C 
BRANCH  22  23
ATOM     23  O   UNL     1      -1.605  12.467  17.688  0.00  0.00    +0.000 OA
ATOM     24  H   UNL     1      -1.605  11.573  17.305  0.00  0.00    +0.000 HD
ENDBRANCH  22  23
BRANCH  22  25
ATOM     25  C   UNL     1      -1.415  13.592  19.809  0.00  0.00    +0.000 C 
BRANCH  25  26
ATOM     26  C   UNL     1      -2.141  13.183  21.143  0.00  0.00    +0.000 C 
BRANCH  26  27
ATOM     27  C   UNL     1      -3.651  13.615  21.163  0.00  0.00    +0.000 C 
ATOM     28  C   UNL     1      -4.441  12.885  22.256  0.00  0.00    +0.000 C 
ATOM     29  C   UNL     1      -3.841  15.131  21.347  0.00  0.00    +0.000 C 
ENDBRANCH  26  27
BRANCH  26  31
ATOM     30  C   UNL     1      -0.007  14.210  22.206  0.00  0.00    +0.000 C 
ATOM     31  C   UNL     1      -1.401  13.639  22.431  0.00  0.00    +0.000 C 
ENDBRANCH  26  31
ENDBRANCH  25  26
ENDBRANCH  22  25
ENDBRANCH  20  22
ENDBRANCH   1  20
BRANCH  10  32
ATOM     32  O   UNL     1       4.017   1.292  18.489  0.00  0.00    +0.000 OA
ATOM     33  H   UNL     1       4.723   0.915  19.041  0.00  0.00    +0.000 HD
ENDBRANCH  10  32
TORSDOF 8
ENDMDL
MODEL 4
REMARK VINA RESULT:      -6.6      1.299      2.421
REMARK  Name = 
REMARK  14 active torsions:
REMARK  status: ('A' for Active; 'I' for Inactive)
REMARK    1  A    between atoms: C_1  and  C_2
REMARK    2  A    between atoms: C_2  and  C_3
REMARK    3  A    between atoms: C_3  and  C_4
REMARK    4  A    between atoms: C_3  and  C_29
REMARK    5  A    between atoms: C_4  and  C_5
REMARK    6  A    between atoms: C_5  and  O_6
REMARK    7  A    between atoms: C_5  and  C_7
REMARK    8  A    between atoms: C_7  and  C_8
REMARK    9  A    between atoms: C_7  and  C_9
REMARK   10  A    between atoms: C_18  and  O_19
REMARK   11  A    between atoms: C_22  and  C_23
REMARK   12  A    between atoms: C_27  and  C_28
REMARK   13  A    between atoms: C_29  and  C_30
REMARK   14  A    between atoms: C_29  and  C_31
REMARK                            x       y       z     vdW  Elec       q    Type
REMARK                         _______ _______ _______ _____ _____    ______ ____
ROOT
ATOM      1  C   UNL     1       1.052  11.096  19.617  0.00  0.00    +0.000 C 
ATOM      2  C   UNL     1       0.290  10.827  20.936  0.00  0.00    +0.000 C 
ATOM      3  C   UNL     1       0.360   9.313  21.185  0.00  0.00    +0.000 C 
ATOM      4  C   UNL     1       1.413   8.814  20.202  0.00  0.00    +0.000 C 
ATOM      5  C   UNL     1       1.437   7.317  19.873  0.00  0.00    +0.000 C 
ATOM      6  C   UNL     1       1.590   6.464  21.136  0.00  0.00    +0.000 C 
ATOM      7  C   UNL     1       1.874   5.024  20.822  0.00  0.00    +0.000 C 
ATOM      8  C   UNL     1       2.282   4.574  19.622  0.00  0.00    +0.000 C 
ATOM      9  C   UNL     1       2.504   3.095  19.405  0.00  0.00    +0.000 C 
ATOM     10  C   UNL     1       3.883   2.802  18.811  0.00  0.00    +0.000 C 
ATOM     11  C   UNL     1       4.150   3.637  17.560  0.00  0.00    +0.000 C 
ATOM     12  C   UNL     1       3.960   5.129  17.833  0.00  0.00    +0.000 C 
ATOM     13  C   UNL     1       2.569   5.495  18.425  0.00  0.00    +0.000 C 
ATOM     14  C   UNL     1       1.478   5.254  17.349  0.00  0.00    +0.000 C 
ATOM     15  C   UNL     1       2.598   7.006  18.882  0.00  0.00    +0.000 C 
ATOM     16  C   UNL     1       2.688   8.002  17.704  0.00  0.00    +0.000 C 
ATOM     17  C   UNL     1       2.477   9.467  18.091  0.00  0.00    +0.000 C 
ATOM     18  C   UNL     1       1.203   9.686  18.944  0.00  0.00    +0.000 C 
ATOM     19  C   UNL     1      -0.056   9.292  18.140  0.00  0.00    +0.000 C 
ENDROOT
BRANCH   1  20
ATOM     20  C   UNL     1       0.545  12.330  18.777  0.00  0.00    +0.000 C 
ATOM     21  C   UNL     1       0.832  13.711  19.377  0.00  0.00    +0.000 C 
BRANCH  20  22
ATOM     22  C   UNL     1      -0.936  12.111  18.398  0.00  0.00    +0.000 C 
BRANCH  22  23
ATOM     23  O   UNL     1      -1.118  12.750  17.136  0.00  0.00    +0.000 OA
ATOM     24  H   UNL     1      -0.508  12.339  16.502  0.00  0.00    +0.000 HD
ENDBRANCH  22  23
BRANCH  22  25
ATOM     25  C   UNL     1      -2.038  12.575  19.356  0.00  0.00    +0.000 C 
BRANCH  25  26
ATOM     26  C   UNL     1      -3.376  11.758  19.226  0.00  0.00    +0.000 C 
BRANCH  26  27
ATOM     27  C   UNL     1      -3.623  11.238  17.764  0.00  0.00    +0.000 C 
ATOM     28  C   UNL     1      -3.525   9.710  17.675  0.00  0.00    +0.000 C 
ATOM     29  C   UNL     1      -4.981  11.679  17.191  0.00  0.00    +0.000 C 
ENDBRANCH  26  27
BRANCH  26  31
ATOM     30  C   UNL     1      -4.330  13.531  20.864  0.00  0.00    +0.000 C 
ATOM     31  C   UNL     1      -4.623  12.494  19.788  0.00  0.00    +0.000 C 
ENDBRANCH  26  31
ENDBRANCH  25  26
ENDBRANCH  22  25
ENDBRANCH  20  22
ENDBRANCH   1  20
BRANCH  10  32
ATOM     32  O   UNL     1       3.984   1.418  18.481  0.00  0.00    +0.000 OA
ATOM     33  H   UNL     1       3.632   0.907  19.230  0.00  0.00    +0.000 HD
ENDBRANCH  10  32
TORSDOF 8
ENDMDL
MODEL 5
REMARK VINA RESULT:      -6.6      0.859      1.648
REMARK  Name = 
REMARK  14 active torsions:
REMARK  status: ('A' for Active; 'I' for Inactive)
REMARK    1  A    between atoms: C_1  and  C_2
REMARK    2  A    between atoms: C_2  and  C_3
REMARK    3  A    between atoms: C_3  and  C_4
REMARK    4  A    between atoms: C_3  and  C_29
REMARK    5  A    between atoms: C_4  and  C_5
REMARK    6  A    between atoms: C_5  and  O_6
REMARK    7  A    between atoms: C_5  and  C_7
REMARK    8  A    between atoms: C_7  and  C_8
REMARK    9  A    between atoms: C_7  and  C_9
REMARK   10  A    between atoms: C_18  and  O_19
REMARK   11  A    between atoms: C_22  and  C_23
REMARK   12  A    between atoms: C_27  and  C_28
REMARK   13  A    between atoms: C_29  and  C_30
REMARK   14  A    between atoms: C_29  and  C_31
REMARK                            x       y       z     vdW  Elec       q    Type
REMARK                         _______ _______ _______ _____ _____    ______ ____
ROOT
ATOM      1  C   UNL     1       1.178  10.834  19.536  0.00  0.00    +0.000 C 
ATOM      2  C   UNL     1       0.423  10.592  20.864  0.00  0.00    +0.000 C 
ATOM      3  C   UNL     1       0.468   9.080  21.127  0.00  0.00    +0.000 C 
ATOM      4  C   UNL     1       1.503   8.551  20.141  0.00  0.00    +0.000 C 
ATOM      5  C   UNL     1       1.496   7.051  19.826  0.00  0.00    +0.000 C 
ATOM      6  C   UNL     1       1.644   6.208  21.096  0.00  0.00    +0.000 C 
ATOM      7  C   UNL     1       1.899   4.759  20.794  0.00  0.00    +0.000 C 
ATOM      8  C   UNL     1       2.288   4.291  19.595  0.00  0.00    +0.000 C 
ATOM      9  C   UNL     1       2.481   2.806  19.390  0.00  0.00    +0.000 C 
ATOM     10  C   UNL     1       3.848   2.481  18.787  0.00  0.00    +0.000 C 
ATOM     11  C   UNL     1       4.118   3.299  17.525  0.00  0.00    +0.000 C 
ATOM     12  C   UNL     1       3.958   4.797  17.785  0.00  0.00    +0.000 C 
ATOM     13  C   UNL     1       2.580   5.194  18.386  0.00  0.00    +0.000 C 
ATOM     14  C   UNL     1       1.475   4.963  17.322  0.00  0.00    +0.000 C 
ATOM     15  C   UNL     1       2.641   6.708  18.828  0.00  0.00    +0.000 C 
ATOM     16  C   UNL     1       2.739   7.691  17.638  0.00  0.00    +0.000 C 
ATOM     17  C   UNL     1       2.559   9.164  18.013  0.00  0.00    +0.000 C 
ATOM     18  C   UNL     1       1.297   9.414  18.875  0.00  0.00    +0.000 C 
ATOM     19  C   UNL     1       0.023   9.036  18.087  0.00  0.00    +0.000 C 
ENDROOT
BRANCH   1  20
ATOM     20  C   UNL     1       0.686  12.068  18.689  0.00  0.00    +0.000 C 
ATOM     21  C   UNL     1       1.775  13.054  18.248  0.00  0.00    +0.000 C 
BRANCH  20  22
ATOM     22  C   UNL     1      -0.505  12.737  19.410  0.00  0.00    +0.000 C 
BRANCH  22  23
ATOM     23  O   UNL     1      -1.552  12.820  18.446  0.00  0.00    +0.000 OA
ATOM     24  H   UNL     1      -1.202  12.508  17.595  0.00  0.00    +0.000 HD
ENDBRANCH  22  23
BRANCH  22  25
ATOM     25  C   UNL     1      -0.318  14.110  20.064  0.00  0.00    +0.000 C 
BRANCH  25  26
ATOM     26  C   UNL     1       0.269  14.042  21.522  0.00  0.00    +0.000 C 
BRANCH  26  27
ATOM     27  C   UNL     1      -0.838  14.214  22.624  0.00  0.00    +0.000 C 
ATOM     28  C   UNL     1      -2.033  15.029  22.114  0.00  0.00    +0.000 C 
ATOM     29  C   UNL     1      -1.354  12.873  23.173  0.00  0.00    +0.000 C 
ENDBRANCH  26  27
BRANCH  26  31
ATOM     30  C   UNL     1       1.747  15.984  20.639  0.00  0.00    +0.000 C 
ATOM     31  C   UNL     1       1.468  14.998  21.765  0.00  0.00    +0.000 C 
ENDBRANCH  26  31
ENDBRANCH  25  26
ENDBRANCH  22  25
ENDBRANCH  20  22
ENDBRANCH   1  20
BRANCH  10  32
ATOM     32  O   UNL     1       3.921   1.092  18.470  0.00  0.00    +0.000 OA
ATOM     33  H   UNL     1       4.857   0.866  18.336  0.00  0.00    +0.000 HD
ENDBRANCH  10  32
TORSDOF 8
ENDMDL
MODEL 6
REMARK VINA RESULT:      -6.6      1.593      2.836
REMARK  Name = 
REMARK  14 active torsions:
REMARK  status: ('A' for Active; 'I' for Inactive)
REMARK    1  A    between atoms: C_1  and  C_2
REMARK    2  A    between atoms: C_2  and  C_3
REMARK    3  A    between atoms: C_3  and  C_4
REMARK    4  A    between atoms: C_3  and  C_29
REMARK    5  A    between atoms: C_4  and  C_5
REMARK    6  A    between atoms: C_5  and  O_6
REMARK    7  A    between atoms: C_5  and  C_7
REMARK    8  A    between atoms: C_7  and  C_8
REMARK    9  A    between atoms: C_7  and  C_9
REMARK   10  A    between atoms: C_18  and  O_19
REMARK   11  A    between atoms: C_22  and  C_23
REMARK   12  A    between atoms: C_27  and  C_28
REMARK   13  A    between atoms: C_29  and  C_30
REMARK   14  A    between atoms: C_29  and  C_31
REMARK                            x       y       z     vdW  Elec       q    Type
REMARK                         _______ _______ _______ _____ _____    ______ ____
ROOT
ATOM      1  C   UNL     1       0.668  11.217  19.845  0.00  0.00    +0.000 C 
ATOM      2  C   UNL     1       0.013  10.838  21.194  0.00  0.00    +0.000 C 
ATOM      3  C   UNL     1       0.221   9.327  21.376  0.00  0.00    +0.000 C 
ATOM      4  C   UNL     1       1.249   8.953  20.315  0.00  0.00    +0.000 C 
ATOM      5  C   UNL     1       1.374   7.476  19.924  0.00  0.00    +0.000 C 
ATOM      6  C   UNL     1       1.672   6.594  21.140  0.00  0.00    +0.000 C 
ATOM      7  C   UNL     1       2.052   5.195  20.752  0.00  0.00    +0.000 C 
ATOM      8  C   UNL     1       2.421   4.824  19.513  0.00  0.00    +0.000 C 
ATOM      9  C   UNL     1       2.748   3.377  19.223  0.00  0.00    +0.000 C 
ATOM     10  C   UNL     1       4.107   3.222  18.538  0.00  0.00    +0.000 C 
ATOM     11  C   UNL     1       4.228   4.120  17.309  0.00  0.00    +0.000 C 
ATOM     12  C   UNL     1       3.934   5.580  17.652  0.00  0.00    +0.000 C 
ATOM     13  C   UNL     1       2.557   5.807  18.340  0.00  0.00    +0.000 C 
ATOM     14  C   UNL     1       1.426   5.515  17.320  0.00  0.00    +0.000 C 
ATOM     15  C   UNL     1       2.492   7.298  18.855  0.00  0.00    +0.000 C 
ATOM     16  C   UNL     1       2.429   8.340  17.715  0.00  0.00    +0.000 C 
ATOM     17  C   UNL     1       2.124   9.768  18.173  0.00  0.00    +0.000 C 
ATOM     18  C   UNL     1       0.892   9.849  19.107  0.00  0.00    +0.000 C 
ATOM     19  C   UNL     1      -0.379   9.380  18.363  0.00  0.00    +0.000 C 
ENDROOT
BRANCH   1  20
ATOM     20  C   UNL     1       0.013  12.433  19.087  0.00  0.00    +0.000 C 
ATOM     21  C   UNL     1      -0.337  13.650  19.951  0.00  0.00    +0.000 C 
BRANCH  20  22
ATOM     22  C   UNL     1      -1.165  11.920  18.228  0.00  0.00    +0.000 C 
BRANCH  22  23
ATOM     23  O   UNL     1      -1.150  12.700  17.035  0.00  0.00    +0.000 OA
ATOM     24  H   UNL     1      -1.835  12.351  16.440  0.00  0.00    +0.000 HD
ENDBRANCH  22  23
BRANCH  22  25
ATOM     25  C   UNL     1      -2.582  11.923  18.810  0.00  0.00    +0.000 C 
BRANCH  25  26
ATOM     26  C   UNL     1      -3.693  11.516  17.774  0.00  0.00    +0.000 C 
BRANCH  26  27
ATOM     27  C   UNL     1      -5.143  11.819  18.298  0.00  0.00    +0.000 C 
ATOM     28  C   UNL     1      -5.124  12.577  19.631  0.00  0.00    +0.000 C 
ATOM     29  C   UNL     1      -5.992  12.614  17.291  0.00  0.00    +0.000 C 
ENDBRANCH  26  27
BRANCH  26  31
ATOM     30  C   UNL     1      -3.245   9.928  15.771  0.00  0.00    +0.000 C 
ATOM     31  C   UNL     1      -3.569  10.058  17.254  0.00  0.00    +0.000 C 
ENDBRANCH  26  31
ENDBRANCH  25  26
ENDBRANCH  22  25
ENDBRANCH  20  22
ENDBRANCH   1  20
BRANCH  10  32
ATOM     32  O   UNL     1       4.300   1.863  18.147  0.00  0.00    +0.000 OA
ATOM     33  H   UNL     1       3.424   1.447  18.076  0.00  0.00    +0.000 HD
ENDBRANCH  10  32
TORSDOF 8
ENDMDL
MODEL 7
REMARK VINA RESULT:      -6.5      2.184      9.426
REMARK  Name = 
REMARK  14 active torsions:
REMARK  status: ('A' for Active; 'I' for Inactive)
REMARK    1  A    between atoms: C_1  and  C_2
REMARK    2  A    between atoms: C_2  and  C_3
REMARK    3  A    between atoms: C_3  and  C_4
REMARK    4  A    between atoms: C_3  and  C_29
REMARK    5  A    between atoms: C_4  and  C_5
REMARK    6  A    between atoms: C_5  and  O_6
REMARK    7  A    between atoms: C_5  and  C_7
REMARK    8  A    between atoms: C_7  and  C_8
REMARK    9  A    between atoms: C_7  and  C_9
REMARK   10  A    between atoms: C_18  and  O_19
REMARK   11  A    between atoms: C_22  and  C_23
REMARK   12  A    between atoms: C_27  and  C_28
REMARK   13  A    between atoms: C_29  and  C_30
REMARK   14  A    between atoms: C_29  and  C_31
REMARK                            x       y       z     vdW  Elec       q    Type
REMARK                         _______ _______ _______ _____ _____    ______ ____
ROOT
ATOM      1  C   UNL     1       1.047   8.585  20.199  0.00  0.00    +0.000 C 
ATOM      2  C   UNL     1       1.488   8.413  21.671  0.00  0.00    +0.000 C 
ATOM      3  C   UNL     1       0.730   9.473  22.484  0.00  0.00    +0.000 C 
ATOM      4  C   UNL     1      -0.342   9.990  21.532  0.00  0.00    +0.000 C 
ATOM      5  C   UNL     1      -0.999  11.337  21.852  0.00  0.00    +0.000 C 
ATOM      6  C   UNL     1      -1.628  11.341  23.249  0.00  0.00    +0.000 C 
ATOM      7  C   UNL     1      -2.492  12.546  23.483  0.00  0.00    +0.000 C 
ATOM      8  C   UNL     1      -2.948  13.354  22.510  0.00  0.00    +0.000 C 
ATOM      9  C   UNL     1      -3.784  14.563  22.862  0.00  0.00    +0.000 C 
ATOM     10  C   UNL     1      -5.090  14.611  22.066  0.00  0.00    +0.000 C 
ATOM     11  C   UNL     1      -4.844  14.470  20.566  0.00  0.00    +0.000 C 
ATOM     12  C   UNL     1      -4.036  13.212  20.247  0.00  0.00    +0.000 C 
ATOM     13  C   UNL     1      -2.687  13.112  21.015  0.00  0.00    +0.000 C 
ATOM     14  C   UNL     1      -1.725  14.214  20.499  0.00  0.00    +0.000 C 
ATOM     15  C   UNL     1      -2.083  11.671  20.785  0.00  0.00    +0.000 C 
ATOM     16  C   UNL     1      -1.615  11.428  19.331  0.00  0.00    +0.000 C 
ATOM     17  C   UNL     1      -0.810  10.141  19.129  0.00  0.00    +0.000 C 
ATOM     18  C   UNL     1       0.345   9.989  20.148  0.00  0.00    +0.000 C 
ATOM     19  C   UNL     1       1.365  11.138  19.981  0.00  0.00    +0.000 C 
ENDROOT
BRANCH   1  20
ATOM     20  C   UNL     1       2.122   8.192  19.116  0.00  0.00    +0.000 C 
ATOM     21  C   UNL     1       1.922   8.801  17.723  0.00  0.00    +0.000 C 
BRANCH  20  22
ATOM     22  C   UNL     1       2.294   6.657  19.106  0.00  0.00    +0.000 C 
BRANCH  22  23
ATOM     23  O   UNL     1       3.385   6.378  19.981  0.00  0.00    +0.000 OA
ATOM     24  H   UNL     1       3.020   6.153  20.853  0.00  0.00    +0.000 HD
ENDBRANCH  22  23
BRANCH  22  25
ATOM     25  C   UNL     1       2.523   5.931  17.776  0.00  0.00    +0.000 C 
BRANCH  25  26
ATOM     26  C   UNL     1       3.997   5.418  17.579  0.00  0.00    +0.000 C 
BRANCH  26  27
ATOM     27  C   UNL     1       4.810   6.303  16.566  0.00  0.00    +0.000 C 
ATOM     28  C   UNL     1       5.941   7.073  17.259  0.00  0.00    +0.000 C 
ATOM     29  C   UNL     1       5.407   5.491  15.404  0.00  0.00    +0.000 C 
ENDBRANCH  26  27
BRANCH  26  31
ATOM     30  C   UNL     1       3.641   2.958  18.327  0.00  0.00    +0.000 C 
ATOM     31  C   UNL     1       4.100   3.909  17.229  0.00  0.00    +0.000 C 
ENDBRANCH  26  31
ENDBRANCH  25  26
ENDBRANCH  22  25
ENDBRANCH  20  22
ENDBRANCH   1  20
BRANCH  10  32
ATOM     32  O   UNL     1      -5.765  15.842  22.317  0.00  0.00    +0.000 OA
ATOM     33  H   UNL     1      -6.497  15.660  22.932  0.00  0.00    +0.000 HD
ENDBRANCH  10  32
TORSDOF 8
ENDMDL
MODEL 8
REMARK VINA RESULT:      -6.5      1.009      1.479
REMARK  Name = 
REMARK  14 active torsions:
REMARK  status: ('A' for Active; 'I' for Inactive)
REMARK    1  A    between atoms: C_1  and  C_2
REMARK    2  A    between atoms: C_2  and  C_3
REMARK    3  A    between atoms: C_3  and  C_4
REMARK    4  A    between atoms: C_3  and  C_29
REMARK    5  A    between atoms: C_4  and  C_5
REMARK    6  A    between atoms: C_5  and  O_6
REMARK    7  A    between atoms: C_5  and  C_7
REMARK    8  A    between atoms: C_7  and  C_8
REMARK    9  A    between atoms: C_7  and  C_9
REMARK   10  A    between atoms: C_18  and  O_19
REMARK   11  A    between atoms: C_22  and  C_23
REMARK   12  A    between atoms: C_27  and  C_28
REMARK   13  A    between atoms: C_29  and  C_30
REMARK   14  A    between atoms: C_29  and  C_31
REMARK                            x       y       z     vdW  Elec       q    Type
REMARK                         _______ _______ _______ _____ _____    ______ ____
ROOT
ATOM      1  C   UNL     1       1.323  10.660  19.552  0.00  0.00    +0.000 C 
ATOM      2  C   UNL     1       0.572  10.433  20.884  0.00  0.00    +0.000 C 
ATOM      3  C   UNL     1       0.580   8.919  21.142  0.00  0.00    +0.000 C 
ATOM      4  C   UNL     1       1.593   8.368  20.146  0.00  0.00    +0.000 C 
ATOM      5  C   UNL     1       1.545   6.870  19.826  0.00  0.00    +0.000 C 
ATOM      6  C   UNL     1       1.681   6.018  21.092  0.00  0.00    +0.000 C 
ATOM      7  C   UNL     1       1.896   4.565  20.783  0.00  0.00    +0.000 C 
ATOM      8  C   UNL     1       2.263   4.090  19.580  0.00  0.00    +0.000 C 
ATOM      9  C   UNL     1       2.416   2.602  19.369  0.00  0.00    +0.000 C 
ATOM     10  C   UNL     1       3.770   2.244  18.754  0.00  0.00    +0.000 C 
ATOM     11  C   UNL     1       4.052   3.059  17.493  0.00  0.00    +0.000 C 
ATOM     12  C   UNL     1       3.933   4.560  17.759  0.00  0.00    +0.000 C 
ATOM     13  C   UNL     1       2.570   4.990  18.372  0.00  0.00    +0.000 C 
ATOM     14  C   UNL     1       1.452   4.792  17.315  0.00  0.00    +0.000 C 
ATOM     15  C   UNL     1       2.674   6.501  18.818  0.00  0.00    +0.000 C 
ATOM     16  C   UNL     1       2.788   7.485  17.631  0.00  0.00    +0.000 C 
ATOM     17  C   UNL     1       2.649   8.961  18.013  0.00  0.00    +0.000 C 
ATOM     18  C   UNL     1       1.400   9.241  18.885  0.00  0.00    +0.000 C 
ATOM     19  C   UNL     1       0.111   8.898  18.105  0.00  0.00    +0.000 C 
ENDROOT
BRANCH   1  20
ATOM     20  C   UNL     1       0.857  11.910  18.712  0.00  0.00    +0.000 C 
ATOM     21  C   UNL     1       1.950  12.925  18.360  0.00  0.00    +0.000 C 
BRANCH  20  22
ATOM     22  C   UNL     1      -0.384  12.538  19.384  0.00  0.00    +0.000 C 
BRANCH  22  23
ATOM     23  O   UNL     1      -1.515  12.009  18.695  0.00  0.00    +0.000 OA
ATOM     24  H   UNL     1      -1.554  12.427  17.818  0.00  0.00    +0.000 HD
ENDBRANCH  22  23
BRANCH  22  25
ATOM     25  C   UNL     1      -0.513  14.063  19.457  0.00  0.00    +0.000 C 
BRANCH  25  26
ATOM     26  C   UNL     1      -0.274  14.651  20.895  0.00  0.00    +0.000 C 
BRANCH  26  27
ATOM     27  C   UNL     1       0.880  15.718  20.925  0.00  0.00    +0.000 C 
ATOM     28  C   UNL     1       2.169  15.151  21.532  0.00  0.00    +0.000 C 
ATOM     29  C   UNL     1       1.201  16.294  19.535  0.00  0.00    +0.000 C 
ENDBRANCH  26  27
BRANCH  26  31
ATOM     30  C   UNL     1      -1.210  13.476  23.012  0.00  0.00    +0.000 C 
ATOM     31  C   UNL     1      -0.080  13.572  21.995  0.00  0.00    +0.000 C 
ENDBRANCH  26  31
ENDBRANCH  25  26
ENDBRANCH  22  25
ENDBRANCH  20  22
ENDBRANCH   1  20
BRANCH  10  32
ATOM     32  O   UNL     1       3.805   0.855  18.432  0.00  0.00    +0.000 OA
ATOM     33  H   UNL     1       4.492   0.439  18.980  0.00  0.00    +0.000 HD
ENDBRANCH  10  32
TORSDOF 8
ENDMDL
MODEL 9
REMARK VINA RESULT:      -6.5      2.140      9.395
REMARK  Name = 
REMARK  14 active torsions:
REMARK  status: ('A' for Active; 'I' for Inactive)
REMARK    1  A    between atoms: C_1  and  C_2
REMARK    2  A    between atoms: C_2  and  C_3
REMARK    3  A    between atoms: C_3  and  C_4
REMARK    4  A    between atoms: C_3  and  C_29
REMARK    5  A    between atoms: C_4  and  C_5
REMARK    6  A    between atoms: C_5  and  O_6
REMARK    7  A    between atoms: C_5  and  C_7
REMARK    8  A    between atoms: C_7  and  C_8
REMARK    9  A    between atoms: C_7  and  C_9
REMARK   10  A    between atoms: C_18  and  O_19
REMARK   11  A    between atoms: C_22  and  C_23
REMARK   12  A    between atoms: C_27  and  C_28
REMARK   13  A    between atoms: C_29  and  C_30
REMARK   14  A    between atoms: C_29  and  C_31
REMARK                            x       y       z     vdW  Elec       q    Type
REMARK                         _______ _______ _______ _____ _____    ______ ____
ROOT
ATOM      1  C   UNL     1       0.965   8.667  20.190  0.00  0.00    +0.000 C 
ATOM      2  C   UNL     1       1.377   8.459  21.666  0.00  0.00    +0.000 C 
ATOM      3  C   UNL     1       0.612   9.506  22.489  0.00  0.00    +0.000 C 
ATOM      4  C   UNL     1      -0.438  10.053  21.529  0.00  0.00    +0.000 C 
ATOM      5  C   UNL     1      -1.090  11.398  21.867  0.00  0.00    +0.000 C 
ATOM      6  C   UNL     1      -1.745  11.376  23.252  0.00  0.00    +0.000 C 
ATOM      7  C   UNL     1      -2.604  12.581  23.498  0.00  0.00    +0.000 C 
ATOM      8  C   UNL     1      -3.036  13.415  22.535  0.00  0.00    +0.000 C 
ATOM      9  C   UNL     1      -3.868  14.623  22.898  0.00  0.00    +0.000 C 
ATOM     10  C   UNL     1      -5.159  14.699  22.080  0.00  0.00    +0.000 C 
ATOM     11  C   UNL     1      -4.886  14.590  20.581  0.00  0.00    +0.000 C 
ATOM     12  C   UNL     1      -4.082  13.333  20.249  0.00  0.00    +0.000 C 
ATOM     13  C   UNL     1      -2.748  13.204  21.040  0.00  0.00    +0.000 C 
ATOM     14  C   UNL     1      -1.769  14.310  20.567  0.00  0.00    +0.000 C 
ATOM     15  C   UNL     1      -2.151  11.765  20.788  0.00  0.00    +0.000 C 
ATOM     16  C   UNL     1      -1.658  11.550  19.338  0.00  0.00    +0.000 C 
ATOM     17  C   UNL     1      -0.860  10.262  19.122  0.00  0.00    +0.000 C 
ATOM     18  C   UNL     1       0.276  10.077  20.159  0.00  0.00    +0.000 C 
ATOM     19  C   UNL     1       1.307  11.221  20.036  0.00  0.00    +0.000 C 
ENDROOT
BRANCH   1  20
ATOM     20  C   UNL     1       2.057   8.290  19.118  0.00  0.00    +0.000 C 
ATOM     21  C   UNL     1       1.773   8.749  17.684  0.00  0.00    +0.000 C 
BRANCH  20  22
ATOM     22  C   UNL     1       2.386   6.785  19.238  0.00  0.00    +0.000 C 
BRANCH  22  23
ATOM     23  O   UNL     1       3.672   6.711  19.849  0.00  0.00    +0.000 OA
ATOM     24  H   UNL     1       3.854   7.567  20.270  0.00  0.00    +0.000 HD
ENDBRANCH  22  23
BRANCH  22  25
ATOM     25  C   UNL     1       2.379   5.908  17.981  0.00  0.00    +0.000 C 
BRANCH  25  26
ATOM     26  C   UNL     1       1.876   4.440  18.236  0.00  0.00    +0.000 C 
BRANCH  26  27
ATOM     27  C   UNL     1       1.822   4.080  19.765  0.00  0.00    +0.000 C 
ATOM     28  C   UNL     1       0.591   3.233  20.110  0.00  0.00    +0.000 C 
ATOM     29  C   UNL     1       3.081   3.344  20.254  0.00  0.00    +0.000 C 
ENDBRANCH  26  27
BRANCH  26  31
ATOM     30  C   UNL     1       3.959   3.823  16.815  0.00  0.00    +0.000 C 
ATOM     31  C   UNL     1       2.641   3.360  17.423  0.00  0.00    +0.000 C 
ENDBRANCH  26  31
ENDBRANCH  25  26
ENDBRANCH  22  25
ENDBRANCH  20  22
ENDBRANCH   1  20
BRANCH  10  32
ATOM     32  O   UNL     1      -5.829  15.930  22.346  0.00  0.00    +0.000 OA
ATOM     33  H   UNL     1      -5.363  16.633  21.863  0.00  0.00    +0.000 HD
ENDBRANCH  10  32
TORSDOF 8
ENDMDL
