MODEL 1
REMARK VINA RESULT:      -8.8      0.000      0.000
REMARK  Name = 
REMARK  11 active torsions:
REMARK  status: ('A' for Active; 'I' for Inactive)
REMARK    1  A    between atoms: C_1  and  C_2
REMARK    2  A    between atoms: N_10  and  C_11
REMARK    3  A    between atoms: C_14  and  C_15
REMARK    4  A    between atoms: C_18  and  C_19
REMARK    5  A    between atoms: C_19  and  O_20
REMARK    6  A    between atoms: O_20  and  C_21
REMARK    7  A    between atoms: C_21  and  C_22
REMARK    8  A    between atoms: C_22  and  C_23
REMARK    9  A    between atoms: C_22  and  C_24
REMARK   10  A    between atoms: N_26  and  C_27
REMARK   11  A    between atoms: N_29  and  C_30
REMARK                            x       y       z     vdW  Elec       q    Type
REMARK                         _______ _______ _______ _____ _____    ______ ____
ROOT
ATOM      1  C   UNL     1       2.845   6.507  18.753  0.00  0.00    +0.000 C 
ATOM      2  N   UNL     1       3.087   5.999  17.582  0.00  0.00    +0.000 NA
ATOM      3  C   UNL     1       3.584   4.678  17.549  0.00  0.00    +0.000 A 
ATOM      4  C   UNL     1       4.509   4.229  16.577  0.00  0.00    +0.000 A 
ATOM      5  N   UNL     1       4.725   2.914  16.701  0.00  0.00    +0.000 NA
ATOM      6  N   UNL     1       3.930   2.530  17.718  0.00  0.00    +0.000 N 
ATOM      7  C   UNL     1       4.015   1.135  18.083  0.00  0.00    +0.000 C 
ATOM      8  C   UNL     1       3.254   3.571  18.331  0.00  0.00    +0.000 A 
ATOM      9  N   UNL     1       2.439   3.475  19.483  0.00  0.00    +0.000 N 
ATOM     10  C   UNL     1       1.742   2.299  19.967  0.00  0.00    +0.000 C 
ATOM     11  C   UNL     1       2.150   4.641  20.199  0.00  0.00    +0.000 C 
ATOM     12  O   UNL     1       1.209   4.739  20.990  0.00  0.00    +0.000 OA
ATOM     13  C   UNL     1       3.118   5.775  20.036  0.00  0.00    +0.000 C 
ENDROOT
BRANCH   1  17
ATOM     14  C   UNL     1       0.992  10.398  19.006  0.00  0.00    +0.000 A 
ATOM     15  C   UNL     1       1.725  10.033  17.870  0.00  0.00    +0.000 A 
ATOM     16  C   UNL     1       2.360   8.788  17.800  0.00  0.00    +0.000 A 
ATOM     17  C   UNL     1       2.283   7.889  18.868  0.00  0.00    +0.000 A 
ATOM     18  C   UNL     1       1.624   8.279  20.036  0.00  0.00    +0.000 A 
ATOM     19  C   UNL     1       0.976   9.525  20.103  0.00  0.00    +0.000 A 
BRANCH  14  29
ATOM     20  C   UNL     1      -2.069  10.745  18.312  0.00  0.00    +0.000 C 
ATOM     21  C   UNL     1      -1.091  11.815  18.646  0.00  0.00    +0.000 A 
ATOM     22  N   UNL     1      -1.444  13.083  18.750  0.00  0.00    +0.000 NA
ATOM     23  C   UNL     1      -0.340  13.750  19.198  0.00  0.00    +0.000 A 
ATOM     24  C   UNL     1      -0.174  15.113  19.471  0.00  0.00    +0.000 A 
ATOM     25  N   UNL     1       1.027  15.592  19.887  0.00  0.00    +0.000 NA
ATOM     26  C   UNL     1       2.057  14.734  20.005  0.00  0.00    +0.000 A 
ATOM     27  C   UNL     1       1.992  13.369  19.754  0.00  0.00    +0.000 A 
ATOM     28  C   UNL     1       0.734  12.878  19.369  0.00  0.00    +0.000 A 
ATOM     29  N   UNL     1       0.242  11.619  19.011  0.00  0.00    +0.000 N 
ENDBRANCH  14  29
ENDBRANCH   1  17
BRANCH   4  30
ATOM     30  C   UNL     1       5.250   5.002  15.537  0.00  0.00    +0.000 C 
BRANCH  30  31
ATOM     31  O   UNL     1       5.986   6.128  16.042  0.00  0.00    +0.000 OA
BRANCH  31  32
ATOM     32  C   UNL     1       7.141   5.758  16.795  0.00  0.00    +0.000 C 
BRANCH  32  33
ATOM     33  C   UNL     1       7.201   6.626  18.058  0.00  0.00    +0.000 C 
ATOM     34  C   UNL     1       7.913   5.893  19.198  0.00  0.00    +0.000 C 
ATOM     35  C   UNL     1       7.893   7.957  17.769  0.00  0.00    +0.000 C 
ENDBRANCH  32  33
ENDBRANCH  31  32
ENDBRANCH  30  31
ENDBRANCH   4  30
TORSDOF 6
ENDMDL
MODEL 2
REMARK VINA RESULT:      -8.7      1.280      2.265
REMARK  Name = 
REMARK  11 active torsions:
REMARK  status: ('A' for Active; 'I' for Inactive)
REMARK    1  A    between atoms: C_1  and  C_2
REMARK    2  A    between atoms: N_10  and  C_11
REMARK    3  A    between atoms: C_14  and  C_15
REMARK    4  A    between atoms: C_18  and  C_19
REMARK    5  A    between atoms: C_19  and  O_20
REMARK    6  A    between atoms: O_20  and  C_21
REMARK    7  A    between atoms: C_21  and  C_22
REMARK    8  A    between atoms: C_22  and  C_23
REMARK    9  A    between atoms: C_22  and  C_24
REMARK   10  A    between atoms: N_26  and  C_27
REMARK   11  A    between atoms: N_29  and  C_30
REMARK                            x       y       z     vdW  Elec       q    Type
REMARK                         _______ _______ _______ _____ _____    ______ ____
ROOT
ATOM      1  C   UNL     1       2.783   6.442  18.866  0.00  0.00    +0.000 C 
ATOM      2  N   UNL     1       3.254   5.961  17.754  0.00  0.00    +0.000 NA
ATOM      3  C   UNL     1       3.699   4.622  17.775  0.00  0.00    +0.000 A 
ATOM      4  C   UNL     1       4.796   4.164  17.008  0.00  0.00    +0.000 A 
ATOM      5  N   UNL     1       4.933   2.837  17.121  0.00  0.00    +0.000 NA
ATOM      6  N   UNL     1       3.923   2.456  17.927  0.00  0.00    +0.000 N 
ATOM      7  C   UNL     1       3.878   1.048  18.245  0.00  0.00    +0.000 C 
ATOM      8  C   UNL     1       3.168   3.506  18.422  0.00  0.00    +0.000 A 
ATOM      9  N   UNL     1       2.120   3.408  19.367  0.00  0.00    +0.000 N 
ATOM     10  C   UNL     1       1.293   2.249  19.641  0.00  0.00    +0.000 C 
ATOM     11  C   UNL     1       1.724   4.563  20.051  0.00  0.00    +0.000 C 
ATOM     12  O   UNL     1       0.638   4.676  20.624  0.00  0.00    +0.000 OA
ATOM     13  C   UNL     1       2.744   5.658  20.146  0.00  0.00    +0.000 C 
ENDROOT
BRANCH   1  17
ATOM     14  C   UNL     1       1.038  10.391  18.921  0.00  0.00    +0.000 A 
ATOM     15  C   UNL     1       1.786   9.960  17.818  0.00  0.00    +0.000 A 
ATOM     16  C   UNL     1       2.386   8.696  17.812  0.00  0.00    +0.000 A 
ATOM     17  C   UNL     1       2.258   7.842  18.913  0.00  0.00    +0.000 A 
ATOM     18  C   UNL     1       1.584   8.298  20.048  0.00  0.00    +0.000 A 
ATOM     19  C   UNL     1       0.971   9.563  20.050  0.00  0.00    +0.000 A 
BRANCH  14  29
ATOM     20  C   UNL     1      -2.042  10.778  18.343  0.00  0.00    +0.000 C 
ATOM     21  C   UNL     1      -1.019  11.841  18.542  0.00  0.00    +0.000 A 
ATOM     22  N   UNL     1      -1.330  13.123  18.558  0.00  0.00    +0.000 NA
ATOM     23  C   UNL     1      -0.187  13.788  18.898  0.00  0.00    +0.000 A 
ATOM     24  C   UNL     1       0.031  15.162  19.050  0.00  0.00    +0.000 A 
ATOM     25  N   UNL     1       1.263  15.635  19.369  0.00  0.00    +0.000 NA
ATOM     26  C   UNL     1       2.273  14.756  19.509  0.00  0.00    +0.000 A 
ATOM     27  C   UNL     1       2.157  13.378  19.375  0.00  0.00    +0.000 A 
ATOM     28  C   UNL     1       0.869  12.899  19.090  0.00  0.00    +0.000 A 
ATOM     29  N   UNL     1       0.325  11.631  18.860  0.00  0.00    +0.000 N 
ENDBRANCH  14  29
ENDBRANCH   1  17
BRANCH   4  30
ATOM     30  C   UNL     1       5.772   4.937  16.183  0.00  0.00    +0.000 C 
BRANCH  30  31
ATOM     31  O   UNL     1       6.290   4.225  15.048  0.00  0.00    +0.000 OA
BRANCH  31  32
ATOM     32  C   UNL     1       5.475   4.350  13.882  0.00  0.00    +0.000 C 
BRANCH  32  33
ATOM     33  C   UNL     1       6.095   3.506  12.760  0.00  0.00    +0.000 C 
ATOM     34  C   UNL     1       5.029   3.054  11.758  0.00  0.00    +0.000 C 
ATOM     35  C   UNL     1       7.200   4.282  12.046  0.00  0.00    +0.000 C 
ENDBRANCH  32  33
ENDBRANCH  31  32
ENDBRANCH  30  31
ENDBRANCH   4  30
TORSDOF 6
ENDMDL
MODEL 3
REMARK VINA RESULT:      -8.6      0.835      1.188
REMARK  Name = 
REMARK  11 active torsions:
REMARK  status: ('A' for Active; 'I' for Inactive)
REMARK    1  A    between atoms: C_1  and  C_2
REMARK    2  A    between atoms: N_10  and  C_11
REMARK    3  A    between atoms: C_14  and  C_15
REMARK    4  A    between atoms: C_18  and  C_19
REMARK    5  A    between atoms: C_19  and  O_20
REMARK    6  A    between atoms: O_20  and  C_21
REMARK    7  A    between atoms: C_21  and  C_22
REMARK    8  A    between atoms: C_22  and  C_23
REMARK    9  A    between atoms: C_22  and  C_24
REMARK   10  A    between atoms: N_26  and  C_27
REMARK   11  A    between atoms: N_29  and  C_30
REMARK                            x       y       z     vdW  Elec       q    Type
REMARK                         _______ _______ _______ _____ _____    ______ ____
ROOT
ATOM      1  C   UNL     1       2.572   6.630  18.761  0.00  0.00    +0.000 C 
ATOM      2  N   UNL     1       2.907   6.138  17.606  0.00  0.00    +0.000 NA
ATOM      3  C   UNL     1       3.452   4.836  17.601  0.00  0.00    +0.000 A 
ATOM      4  C   UNL     1       4.454   4.427  16.688  0.00  0.00    +0.000 A 
ATOM      5  N   UNL     1       4.710   3.120  16.821  0.00  0.00    +0.000 NA
ATOM      6  N   UNL     1       3.866   2.701  17.784  0.00  0.00    +0.000 N 
ATOM      7  C   UNL     1       3.980   1.309  18.151  0.00  0.00    +0.000 C 
ATOM      8  C   UNL     1       3.114   3.714  18.357  0.00  0.00    +0.000 A 
ATOM      9  N   UNL     1       2.233   3.582  19.454  0.00  0.00    +0.000 N 
ATOM     10  C   UNL     1       1.549   2.378  19.889  0.00  0.00    +0.000 C 
ATOM     11  C   UNL     1       1.855   4.733  20.154  0.00  0.00    +0.000 C 
ATOM     12  O   UNL     1       0.863   4.792  20.884  0.00  0.00    +0.000 OA
ATOM     13  C   UNL     1       2.789   5.902  20.056  0.00  0.00    +0.000 C 
ENDROOT
BRANCH   1  17
ATOM     14  C   UNL     1       1.025  10.653  19.031  0.00  0.00    +0.000 A 
ATOM     15  C   UNL     1       1.043   9.821  20.157  0.00  0.00    +0.000 A 
ATOM     16  C   UNL     1       1.507   8.504  20.066  0.00  0.00    +0.000 A 
ATOM     17  C   UNL     1       1.953   7.990  18.844  0.00  0.00    +0.000 A 
ATOM     18  C   UNL     1       1.860   8.786  17.700  0.00  0.00    +0.000 A 
ATOM     19  C   UNL     1       1.405  10.113  17.794  0.00  0.00    +0.000 A 
BRANCH  14  29
ATOM     20  C   UNL     1      -1.724  11.808  20.069  0.00  0.00    +0.000 C 
ATOM     21  C   UNL     1      -0.556  12.576  19.558  0.00  0.00    +0.000 A 
ATOM     22  N   UNL     1      -0.532  13.895  19.546  0.00  0.00    +0.000 NA
ATOM     23  C   UNL     1       0.727  14.249  19.151  0.00  0.00    +0.000 A 
ATOM     24  C   UNL     1       1.275  15.524  18.970  0.00  0.00    +0.000 A 
ATOM     25  N   UNL     1       2.555  15.670  18.538  0.00  0.00    +0.000 NA
ATOM     26  C   UNL     1       3.272  14.563  18.264  0.00  0.00    +0.000 A 
ATOM     27  C   UNL     1       2.815  13.260  18.409  0.00  0.00    +0.000 A 
ATOM     28  C   UNL     1       1.506  13.122  18.900  0.00  0.00    +0.000 A 
ATOM     29  N   UNL     1       0.670  12.033  19.167  0.00  0.00    +0.000 N 
ENDBRANCH  14  29
ENDBRANCH   1  17
BRANCH   4  30
ATOM     30  C   UNL     1       5.230   5.232  15.700  0.00  0.00    +0.000 C 
BRANCH  30  31
ATOM     31  O   UNL     1       5.876   6.392  16.250  0.00  0.00    +0.000 OA
BRANCH  31  32
ATOM     32  C   UNL     1       7.176   6.121  16.775  0.00  0.00    +0.000 C 
BRANCH  32  33
ATOM     33  C   UNL     1       7.322   6.846  18.119  0.00  0.00    +0.000 C 
ATOM     34  C   UNL     1       7.961   5.935  19.170  0.00  0.00    +0.000 C 
ATOM     35  C   UNL     1       8.141   8.126  17.957  0.00  0.00    +0.000 C 
ENDBRANCH  32  33
ENDBRANCH  31  32
ENDBRANCH  30  31
ENDBRANCH   4  30
TORSDOF 6
ENDMDL
MODEL 4
REMARK VINA RESULT:      -8.5      1.265      2.043
REMARK  Name = 
REMARK  11 active torsions:
REMARK  status: ('A' for Active; 'I' for Inactive)
REMARK    1  A    between atoms: C_1  and  C_2
REMARK    2  A    between atoms: N_10  and  C_11
REMARK    3  A    between atoms: C_14  and  C_15
REMARK    4  A    between atoms: C_18  and  C_19
REMARK    5  A    between atoms: C_19  and  O_20
REMARK    6  A    between atoms: O_20  and  C_21
REMARK    7  A    between atoms: C_21  and  C_22
REMARK    8  A    between atoms: C_22  and  C_23
REMARK    9  A    between atoms: C_22  and  C_24
REMARK   10  A    between atoms: N_26  and  C_27
REMARK   11  A    between atoms: N_29  and  C_30
REMARK                            x       y       z     vdW  Elec       q    Type
REMARK                         _______ _______ _______ _____ _____    ______ ____
ROOT
ATOM      1  C   UNL     1       2.614   6.664  19.699  0.00  0.00    +0.000 C 
ATOM      2  N   UNL     1       3.623   6.296  18.968  0.00  0.00    +0.000 NA
ATOM      3  C   UNL     1       4.184   5.031  19.245  0.00  0.00    +0.000 A 
ATOM      4  C   UNL     1       5.567   4.759  19.115  0.00  0.00    +0.000 A 
ATOM      5  N   UNL     1       5.816   3.460  19.324  0.00  0.00    +0.000 NA
ATOM      6  N   UNL     1       4.608   2.913  19.557  0.00  0.00    +0.000 N 
ATOM      7  C   UNL     1       4.611   1.501  19.861  0.00  0.00    +0.000 C 
ATOM      8  C   UNL     1       3.569   3.829  19.593  0.00  0.00    +0.000 A 
ATOM      9  N   UNL     1       2.222   3.551  19.920  0.00  0.00    +0.000 N 
ATOM     10  C   UNL     1       1.535   2.279  19.800  0.00  0.00    +0.000 C 
ATOM     11  C   UNL     1       1.389   4.613  20.290  0.00  0.00    +0.000 C 
ATOM     12  O   UNL     1       0.158   4.553  20.266  0.00  0.00    +0.000 OA
ATOM     13  C   UNL     1       2.074   5.834  20.828  0.00  0.00    +0.000 C 
ENDROOT
BRANCH   1  17
ATOM     14  C   UNL     1       0.900  10.568  19.017  0.00  0.00    +0.000 A 
ATOM     15  C   UNL     1       0.714   9.914  20.242  0.00  0.00    +0.000 A 
ATOM     16  C   UNL     1       1.234   8.632  20.454  0.00  0.00    +0.000 A 
ATOM     17  C   UNL     1       1.942   7.976  19.441  0.00  0.00    +0.000 A 
ATOM     18  C   UNL     1       2.059   8.587  18.191  0.00  0.00    +0.000 A 
ATOM     19  C   UNL     1       1.547   9.879  17.982  0.00  0.00    +0.000 A 
BRANCH  14  29
ATOM     20  C   UNL     1      -1.976  11.568  18.182  0.00  0.00    +0.000 C 
ATOM     21  C   UNL     1      -0.767  12.399  18.429  0.00  0.00    +0.000 A 
ATOM     22  N   UNL     1      -0.797  13.717  18.380  0.00  0.00    +0.000 NA
ATOM     23  C   UNL     1       0.435  14.142  18.791  0.00  0.00    +0.000 A 
ATOM     24  C   UNL     1       0.929  15.445  18.917  0.00  0.00    +0.000 A 
ATOM     25  N   UNL     1       2.208  15.662  19.320  0.00  0.00    +0.000 NA
ATOM     26  C   UNL     1       2.994  14.598  19.568  0.00  0.00    +0.000 A 
ATOM     27  C   UNL     1       2.596  13.271  19.468  0.00  0.00    +0.000 A 
ATOM     28  C   UNL     1       1.259  13.061  19.095  0.00  0.00    +0.000 A 
ATOM     29  N   UNL     1       0.474  11.927  18.861  0.00  0.00    +0.000 N 
ENDBRANCH  14  29
ENDBRANCH   1  17
BRANCH   4  30
ATOM     30  C   UNL     1       6.701   5.690  18.837  0.00  0.00    +0.000 C 
BRANCH  30  31
ATOM     31  O   UNL     1       6.788   6.133  17.473  0.00  0.00    +0.000 OA
BRANCH  31  32
ATOM     32  C   UNL     1       7.083   5.080  16.554  0.00  0.00    +0.000 C 
BRANCH  32  33
ATOM     33  C   UNL     1       5.890   4.913  15.604  0.00  0.00    +0.000 C 
ATOM     34  C   UNL     1       5.133   6.232  15.431  0.00  0.00    +0.000 C 
ATOM     35  C   UNL     1       6.349   4.383  14.247  0.00  0.00    +0.000 C 
ENDBRANCH  32  33
ENDBRANCH  31  32
ENDBRANCH  30  31
ENDBRANCH   4  30
TORSDOF 6
ENDMDL
MODEL 5
REMARK VINA RESULT:      -8.4      1.000      2.109
REMARK  Name = 
REMARK  11 active torsions:
REMARK  status: ('A' for Active; 'I' for Inactive)
REMARK    1  A    between atoms: C_1  and  C_2
REMARK    2  A    between atoms: N_10  and  C_11
REMARK    3  A    between atoms: C_14  and  C_15
REMARK    4  A    between atoms: C_18  and  C_19
REMARK    5  A    between atoms: C_19  and  O_20
REMARK    6  A    between atoms: O_20  and  C_21
REMARK    7  A    between atoms: C_21  and  C_22
REMARK    8  A    between atoms: C_22  and  C_23
REMARK    9  A    between atoms: C_22  and  C_24
REMARK   10  A    between atoms: N_26  and  C_27
REMARK   11  A    between atoms: N_29  and  C_30
REMARK                            x       y       z     vdW  Elec       q    Type
REMARK                         _______ _______ _______ _____ _____    ______ ____
ROOT
ATOM      1  C   UNL     1       2.593   6.774  18.777  0.00  0.00    +0.000 C 
ATOM      2  N   UNL     1       2.909   6.323  17.600  0.00  0.00    +0.000 NA
ATOM      3  C   UNL     1       3.469   5.029  17.541  0.00  0.00    +0.000 A 
ATOM      4  C   UNL     1       4.456   4.662  16.595  0.00  0.00    +0.000 A 
ATOM      5  N   UNL     1       4.730   3.354  16.680  0.00  0.00    +0.000 NA
ATOM      6  N   UNL     1       3.911   2.895  17.645  0.00  0.00    +0.000 N 
ATOM      7  C   UNL     1       4.048   1.493  17.963  0.00  0.00    +0.000 C 
ATOM      8  C   UNL     1       3.160   3.879  18.266  0.00  0.00    +0.000 A 
ATOM      9  N   UNL     1       2.302   3.700  19.376  0.00  0.00    +0.000 N 
ATOM     10  C   UNL     1       1.642   2.475  19.785  0.00  0.00    +0.000 C 
ATOM     11  C   UNL     1       1.926   4.823  20.120  0.00  0.00    +0.000 C 
ATOM     12  O   UNL     1       0.948   4.847  20.872  0.00  0.00    +0.000 OA
ATOM     13  C   UNL     1       2.845   6.006  20.042  0.00  0.00    +0.000 C 
ENDROOT
BRANCH   1  17
ATOM     14  C   UNL     1       1.005  10.764  19.223  0.00  0.00    +0.000 A 
ATOM     15  C   UNL     1       1.001   9.873  20.303  0.00  0.00    +0.000 A 
ATOM     16  C   UNL     1       1.478   8.566  20.153  0.00  0.00    +0.000 A 
ATOM     17  C   UNL     1       1.960   8.123  18.917  0.00  0.00    +0.000 A 
ATOM     18  C   UNL     1       1.890   8.979  17.816  0.00  0.00    +0.000 A 
ATOM     19  C   UNL     1       1.421  10.295  17.969  0.00  0.00    +0.000 A 
BRANCH  14  29
ATOM     20  C   UNL     1       2.770  13.313  18.623  0.00  0.00    +0.000 C 
ATOM     21  C   UNL     1       1.413  13.276  19.232  0.00  0.00    +0.000 A 
ATOM     22  N   UNL     1       0.752  14.375  19.544  0.00  0.00    +0.000 NA
ATOM     23  C   UNL     1      -0.491  13.971  19.942  0.00  0.00    +0.000 A 
ATOM     24  C   UNL     1      -1.577  14.739  20.380  0.00  0.00    +0.000 A 
ATOM     25  N   UNL     1      -2.734  14.141  20.765  0.00  0.00    +0.000 NA
ATOM     26  C   UNL     1      -2.802  12.796  20.741  0.00  0.00    +0.000 A 
ATOM     27  C   UNL     1      -1.780  11.952  20.327  0.00  0.00    +0.000 A 
ATOM     28  C   UNL     1      -0.606  12.584  19.888  0.00  0.00    +0.000 A 
ATOM     29  N   UNL     1       0.634  12.133  19.424  0.00  0.00    +0.000 N 
ENDBRANCH  14  29
ENDBRANCH   1  17
BRANCH   4  30
ATOM     30  C   UNL     1       5.203   5.509  15.618  0.00  0.00    +0.000 C 
BRANCH  30  31
ATOM     31  O   UNL     1       6.493   5.950  16.074  0.00  0.00    +0.000 OA
BRANCH  31  32
ATOM     32  C   UNL     1       6.422   6.958  17.082  0.00  0.00    +0.000 C 
BRANCH  32  33
ATOM     33  C   UNL     1       7.805   7.100  17.730  0.00  0.00    +0.000 C 
ATOM     34  C   UNL     1       8.130   8.568  18.020  0.00  0.00    +0.000 C 
ATOM     35  C   UNL     1       7.888   6.275  19.014  0.00  0.00    +0.000 C 
ENDBRANCH  32  33
ENDBRANCH  31  32
ENDBRANCH  30  31
ENDBRANCH   4  30
TORSDOF 6
ENDMDL
MODEL 6
REMARK VINA RESULT:      -8.4      1.474      2.458
REMARK  Name = 
REMARK  11 active torsions:
REMARK  status: ('A' for Active; 'I' for Inactive)
REMARK    1  A    between atoms: C_1  and  C_2
REMARK    2  A    between atoms: N_10  and  C_11
REMARK    3  A    between atoms: C_14  and  C_15
REMARK    4  A    between atoms: C_18  and  C_19
REMARK    5  A    between atoms: C_19  and  O_20
REMARK    6  A    between atoms: O_20  and  C_21
REMARK    7  A    between atoms: C_21  and  C_22
REMARK    8  A    between atoms: C_22  and  C_23
REMARK    9  A    between atoms: C_22  and  C_24
REMARK   10  A    between atoms: N_26  and  C_27
REMARK   11  A    between atoms: N_29  and  C_30
REMARK                            x       y       z     vdW  Elec       q    Type
REMARK                         _______ _______ _______ _____ _____    ______ ____
ROOT
ATOM      1  C   UNL     1       2.510   6.656  18.824  0.00  0.00    +0.000 C 
ATOM      2  N   UNL     1       2.914   6.173  17.688  0.00  0.00    +0.000 NA
ATOM      3  C   UNL     1       3.448   4.866  17.703  0.00  0.00    +0.000 A 
ATOM      4  C   UNL     1       4.502   4.457  16.852  0.00  0.00    +0.000 A 
ATOM      5  N   UNL     1       4.738   3.146  16.987  0.00  0.00    +0.000 NA
ATOM      6  N   UNL     1       3.831   2.726  17.890  0.00  0.00    +0.000 N 
ATOM      7  C   UNL     1       3.909   1.329  18.248  0.00  0.00    +0.000 C 
ATOM      8  C   UNL     1       3.053   3.740  18.424  0.00  0.00    +0.000 A 
ATOM      9  N   UNL     1       2.101   3.604  19.461  0.00  0.00    +0.000 N 
ATOM     10  C   UNL     1       1.381   2.402  19.839  0.00  0.00    +0.000 C 
ATOM     11  C   UNL     1       1.690   4.751  20.147  0.00  0.00    +0.000 C 
ATOM     12  O   UNL     1       0.653   4.812  20.813  0.00  0.00    +0.000 OA
ATOM     13  C   UNL     1       2.638   5.913  20.122  0.00  0.00    +0.000 C 
ENDROOT
BRANCH   1  17
ATOM     14  C   UNL     1       0.986  10.692  19.012  0.00  0.00    +0.000 A 
ATOM     15  C   UNL     1       1.029   9.894  20.162  0.00  0.00    +0.000 A 
ATOM     16  C   UNL     1       1.486   8.573  20.099  0.00  0.00    +0.000 A 
ATOM     17  C   UNL     1       1.898   8.021  18.882  0.00  0.00    +0.000 A 
ATOM     18  C   UNL     1       1.779   8.782  17.717  0.00  0.00    +0.000 A 
ATOM     19  C   UNL     1       1.331  10.113  17.782  0.00  0.00    +0.000 A 
BRANCH  14  29
ATOM     20  C   UNL     1      -1.794  11.887  19.914  0.00  0.00    +0.000 C 
ATOM     21  C   UNL     1      -0.597  12.637  19.446  0.00  0.00    +0.000 A 
ATOM     22  N   UNL     1      -0.559  13.955  19.419  0.00  0.00    +0.000 NA
ATOM     23  C   UNL     1       0.719  14.293  19.075  0.00  0.00    +0.000 A 
ATOM     24  C   UNL     1       1.289  15.560  18.903  0.00  0.00    +0.000 A 
ATOM     25  N   UNL     1       2.587  15.687  18.526  0.00  0.00    +0.000 NA
ATOM     26  C   UNL     1       3.304  14.570  18.298  0.00  0.00    +0.000 A 
ATOM     27  C   UNL     1       2.828  13.273  18.438  0.00  0.00    +0.000 A 
ATOM     28  C   UNL     1       1.498  13.155  18.872  0.00  0.00    +0.000 A 
ATOM     29  N   UNL     1       0.639  12.078  19.115  0.00  0.00    +0.000 N 
ENDBRANCH  14  29
ENDBRANCH   1  17
BRANCH   4  30
ATOM     30  C   UNL     1       5.347   5.265  15.924  0.00  0.00    +0.000 C 
BRANCH  30  31
ATOM     31  O   UNL     1       5.354   4.799  14.565  0.00  0.00    +0.000 OA
BRANCH  31  32
ATOM     32  C   UNL     1       6.559   4.123  14.205  0.00  0.00    +0.000 C 
BRANCH  32  33
ATOM     33  C   UNL     1       6.414   3.594  12.772  0.00  0.00    +0.000 C 
ATOM     34  C   UNL     1       4.946   3.572  12.339  0.00  0.00    +0.000 C 
ATOM     35  C   UNL     1       7.241   4.433  11.799  0.00  0.00    +0.000 C 
ENDBRANCH  32  33
ENDBRANCH  31  32
ENDBRANCH  30  31
ENDBRANCH   4  30
TORSDOF 6
ENDMDL
MODEL 7
REMARK VINA RESULT:      -8.4      0.799      1.308
REMARK  Name = 
REMARK  11 active torsions:
REMARK  status: ('A' for Active; 'I' for Inactive)
REMARK    1  A    between atoms: C_1  and  C_2
REMARK    2  A    between atoms: N_10  and  C_11
REMARK    3  A    between atoms: C_14  and  C_15
REMARK    4  A    between atoms: C_18  and  C_19
REMARK    5  A    between atoms: C_19  and  O_20
REMARK    6  A    between atoms: O_20  and  C_21
REMARK    7  A    between atoms: C_21  and  C_22
REMARK    8  A    between atoms: C_22  and  C_23
REMARK    9  A    between atoms: C_22  and  C_24
REMARK   10  A    between atoms: N_26  and  C_27
REMARK   11  A    between atoms: N_29  and  C_30
REMARK                            x       y       z     vdW  Elec       q    Type
REMARK                         _______ _______ _______ _____ _____    ______ ____
ROOT
ATOM      1  C   UNL     1       2.521   6.859  18.826  0.00  0.00    +0.000 C 
ATOM      2  N   UNL     1       2.884   6.431  17.654  0.00  0.00    +0.000 NA
ATOM      3  C   UNL     1       3.450   5.139  17.593  0.00  0.00    +0.000 A 
ATOM      4  C   UNL     1       4.474   4.791  16.681  0.00  0.00    +0.000 A 
ATOM      5  N   UNL     1       4.747   3.482  16.752  0.00  0.00    +0.000 NA
ATOM      6  N   UNL     1       3.892   3.004  17.676  0.00  0.00    +0.000 N 
ATOM      7  C   UNL     1       4.019   1.596  17.973  0.00  0.00    +0.000 C 
ATOM      8  C   UNL     1       3.114   3.975  18.284  0.00  0.00    +0.000 A 
ATOM      9  N   UNL     1       2.213   3.775  19.356  0.00  0.00    +0.000 N 
ATOM     10  C   UNL     1       1.540   2.541  19.715  0.00  0.00    +0.000 C 
ATOM     11  C   UNL     1       1.806   4.883  20.105  0.00  0.00    +0.000 C 
ATOM     12  O   UNL     1       0.799   4.891  20.817  0.00  0.00    +0.000 OA
ATOM     13  C   UNL     1       2.724   6.068  20.086  0.00  0.00    +0.000 C 
ENDROOT
BRANCH   1  17
ATOM     14  C   UNL     1       0.904  10.835  19.300  0.00  0.00    +0.000 A 
ATOM     15  C   UNL     1       0.784   9.891  20.328  0.00  0.00    +0.000 A 
ATOM     16  C   UNL     1       1.272   8.590  20.165  0.00  0.00    +0.000 A 
ATOM     17  C   UNL     1       1.880   8.204  18.965  0.00  0.00    +0.000 A 
ATOM     18  C   UNL     1       1.928   9.114  17.907  0.00  0.00    +0.000 A 
ATOM     19  C   UNL     1       1.449  10.425  18.075  0.00  0.00    +0.000 A 
BRANCH  14  29
ATOM     20  C   UNL     1      -1.999  12.049  19.038  0.00  0.00    +0.000 C 
ATOM     21  C   UNL     1      -0.740  12.776  19.358  0.00  0.00    +0.000 A 
ATOM     22  N   UNL     1      -0.724  14.065  19.640  0.00  0.00    +0.000 NA
ATOM     23  C   UNL     1       0.556  14.357  20.015  0.00  0.00    +0.000 A 
ATOM     24  C   UNL     1       1.109  15.581  20.409  0.00  0.00    +0.000 A 
ATOM     25  N   UNL     1       2.428  15.674  20.719  0.00  0.00    +0.000 NA
ATOM     26  C   UNL     1       3.194  14.571  20.614  0.00  0.00    +0.000 A 
ATOM     27  C   UNL     1       2.738  13.317  20.230  0.00  0.00    +0.000 A 
ATOM     28  C   UNL     1       1.364  13.224  19.956  0.00  0.00    +0.000 A 
ATOM     29  N   UNL     1       0.518  12.195  19.529  0.00  0.00    +0.000 N 
ENDBRANCH  14  29
ENDBRANCH   1  17
BRANCH   4  30
ATOM     30  C   UNL     1       5.257   5.657  15.750  0.00  0.00    +0.000 C 
BRANCH  30  31
ATOM     31  O   UNL     1       6.400   6.292  16.346  0.00  0.00    +0.000 OA
BRANCH  31  32
ATOM     32  C   UNL     1       7.322   5.370  16.928  0.00  0.00    +0.000 C 
BRANCH  32  33
ATOM     33  C   UNL     1       7.749   5.905  18.300  0.00  0.00    +0.000 C 
ATOM     34  C   UNL     1       7.962   7.420  18.259  0.00  0.00    +0.000 C 
ATOM     35  C   UNL     1       6.718   5.543  19.368  0.00  0.00    +0.000 C 
ENDBRANCH  32  33
ENDBRANCH  31  32
ENDBRANCH  30  31
ENDBRANCH   4  30
TORSDOF 6
ENDMDL
MODEL 8
REMARK VINA RESULT:      -8.3      3.102     10.182
REMARK  Name = 
REMARK  11 active torsions:
REMARK  status: ('A' for Active; 'I' for Inactive)
REMARK    1  A    between atoms: C_1  and  C_2
REMARK    2  A    between atoms: N_10  and  C_11
REMARK    3  A    between atoms: C_14  and  C_15
REMARK    4  A    between atoms: C_18  and  C_19
REMARK    5  A    between atoms: C_19  and  O_20
REMARK    6  A    between atoms: O_20  and  C_21
REMARK    7  A    between atoms: C_21  and  C_22
REMARK    8  A    between atoms: C_22  and  C_23
REMARK    9  A    between atoms: C_22  and  C_24
REMARK   10  A    between atoms: N_26  and  C_27
REMARK   11  A    between atoms: N_29  and  C_30
REMARK                            x       y       z     vdW  Elec       q    Type
REMARK                         _______ _______ _______ _____ _____    ______ ____
ROOT
ATOM      1  C   UNL     1       0.308  10.398  19.771  0.00  0.00    +0.000 C 
ATOM      2  N   UNL     1      -0.650  10.814  18.999  0.00  0.00    +0.000 NA
ATOM      3  C   UNL     1      -1.467  11.852  19.498  0.00  0.00    +0.000 A 
ATOM      4  C   UNL     1      -2.848  11.951  19.205  0.00  0.00    +0.000 A 
ATOM      5  N   UNL     1      -3.358  13.083  19.703  0.00  0.00    +0.000 NA
ATOM      6  N   UNL     1      -2.312  13.706  20.280  0.00  0.00    +0.000 N 
ATOM      7  C   UNL     1      -2.616  14.953  20.941  0.00  0.00    +0.000 C 
ATOM      8  C   UNL     1      -1.135  12.976  20.253  0.00  0.00    +0.000 A 
ATOM      9  N   UNL     1       0.084  13.335  20.872  0.00  0.00    +0.000 N 
ATOM     10  C   UNL     1       0.533  14.671  21.215  0.00  0.00    +0.000 C 
ATOM     11  C   UNL     1       1.045  12.341  21.088  0.00  0.00    +0.000 C 
ATOM     12  O   UNL     1       2.237  12.579  21.297  0.00  0.00    +0.000 OA
ATOM     13  C   UNL     1       0.535  10.933  21.156  0.00  0.00    +0.000 C 
ENDROOT
BRANCH   1  17
ATOM     14  C   UNL     1       2.786   7.179  18.308  0.00  0.00    +0.000 A 
ATOM     15  C   UNL     1       2.365   7.201  19.644  0.00  0.00    +0.000 A 
ATOM     16  C   UNL     1       1.594   8.262  20.133  0.00  0.00    +0.000 A 
ATOM     17  C   UNL     1       1.239   9.326  19.298  0.00  0.00    +0.000 A 
ATOM     18  C   UNL     1       1.725   9.352  17.989  0.00  0.00    +0.000 A 
ATOM     19  C   UNL     1       2.489   8.281  17.494  0.00  0.00    +0.000 A 
BRANCH  14  29
ATOM     20  C   UNL     1       1.529   4.337  17.746  0.00  0.00    +0.000 C 
ATOM     21  C   UNL     1       2.953   4.742  17.594  0.00  0.00    +0.000 A 
ATOM     22  N   UNL     1       3.872   3.920  17.124  0.00  0.00    +0.000 NA
ATOM     23  C   UNL     1       5.013   4.659  16.992  0.00  0.00    +0.000 A 
ATOM     24  C   UNL     1       6.278   4.268  16.539  0.00  0.00    +0.000 A 
ATOM     25  N   UNL     1       7.306   5.156  16.509  0.00  0.00    +0.000 NA
ATOM     26  C   UNL     1       7.086   6.410  16.948  0.00  0.00    +0.000 A 
ATOM     27  C   UNL     1       5.870   6.889  17.417  0.00  0.00    +0.000 A 
ATOM     28  C   UNL     1       4.805   5.975  17.400  0.00  0.00    +0.000 A 
ATOM     29  N   UNL     1       3.462   6.027  17.791  0.00  0.00    +0.000 N 
ENDBRANCH  14  29
ENDBRANCH   1  17
BRANCH   4  30
ATOM     30  C   UNL     1      -3.744  10.989  18.497  0.00  0.00    +0.000 C 
BRANCH  30  31
ATOM     31  O   UNL     1      -4.744  11.604  17.668  0.00  0.00    +0.000 OA
BRANCH  31  32
ATOM     32  C   UNL     1      -6.066  11.137  17.935  0.00  0.00    +0.000 C 
BRANCH  32  33
ATOM     33  C   UNL     1      -6.626  11.912  19.134  0.00  0.00    +0.000 C 
ATOM     34  C   UNL     1      -7.672  12.937  18.689  0.00  0.00    +0.000 C 
ATOM     35  C   UNL     1      -7.225  10.956  20.165  0.00  0.00    +0.000 C 
ENDBRANCH  32  33
ENDBRANCH  31  32
ENDBRANCH  30  31
ENDBRANCH   4  30
TORSDOF 6
ENDMDL
MODEL 9
REMARK VINA RESULT:      -8.2      2.043      2.692
REMARK  Name = 
REMARK  11 active torsions:
REMARK  status: ('A' for Active; 'I' for Inactive)
REMARK    1  A    between atoms: C_1  and  C_2
REMARK    2  A    between atoms: N_10  and  C_11
REMARK    3  A    between atoms: C_14  and  C_15
REMARK    4  A    between atoms: C_18  and  C_19
REMARK    5  A    between atoms: C_19  and  O_20
REMARK    6  A    between atoms: O_20  and  C_21
REMARK    7  A    between atoms: C_21  and  C_22
REMARK    8  A    between atoms: C_22  and  C_23
REMARK    9  A    between atoms: C_22  and  C_24
REMARK   10  A    between atoms: N_26  and  C_27
REMARK   11  A    between atoms: N_29  and  C_30
REMARK                            x       y       z     vdW  Elec       q    Type
REMARK                         _______ _______ _______ _____ _____    ______ ____
ROOT
ATOM      1  C   UNL     1       2.290   6.862  19.502  0.00  0.00    +0.000 C 
ATOM      2  N   UNL     1       2.711   6.764  18.276  0.00  0.00    +0.000 NA
ATOM      3  C   UNL     1       3.255   5.522  17.885  0.00  0.00    +0.000 A 
ATOM      4  C   UNL     1       4.322   5.408  16.962  0.00  0.00    +0.000 A 
ATOM      5  N   UNL     1       4.567   4.123  16.678  0.00  0.00    +0.000 NA
ATOM      6  N   UNL     1       3.652   3.435  17.389  0.00  0.00    +0.000 N 
ATOM      7  C   UNL     1       3.737   1.997  17.286  0.00  0.00    +0.000 C 
ATOM      8  C   UNL     1       2.860   4.224  18.205  0.00  0.00    +0.000 A 
ATOM      9  N   UNL     1       1.897   3.763  19.133  0.00  0.00    +0.000 N 
ATOM     10  C   UNL     1       1.182   2.501  19.100  0.00  0.00    +0.000 C 
ATOM     11  C   UNL     1       1.468   4.632  20.142  0.00  0.00    +0.000 C 
ATOM     12  O   UNL     1       0.423   4.475  20.778  0.00  0.00    +0.000 OA
ATOM     13  C   UNL     1       2.407   5.745  20.499  0.00  0.00    +0.000 C 
ENDROOT
BRANCH   1  17
ATOM     14  C   UNL     1       0.730  10.643  20.886  0.00  0.00    +0.000 A 
ATOM     15  C   UNL     1       0.991   9.607  21.792  0.00  0.00    +0.000 A 
ATOM     16  C   UNL     1       1.460   8.367  21.344  0.00  0.00    +0.000 A 
ATOM     17  C   UNL     1       1.666   8.135  19.980  0.00  0.00    +0.000 A 
ATOM     18  C   UNL     1       1.329   9.135  19.065  0.00  0.00    +0.000 A 
ATOM     19  C   UNL     1       0.870  10.384  19.515  0.00  0.00    +0.000 A 
BRANCH  14  29
ATOM     20  C   UNL     1       2.254  13.351  20.329  0.00  0.00    +0.000 C 
ATOM     21  C   UNL     1       1.063  13.146  21.198  0.00  0.00    +0.000 A 
ATOM     22  N   UNL     1       0.456  14.147  21.807  0.00  0.00    +0.000 NA
ATOM     23  C   UNL     1      -0.659  13.617  22.391  0.00  0.00    +0.000 A 
ATOM     24  C   UNL     1      -1.643  14.246  23.162  0.00  0.00    +0.000 A 
ATOM     25  N   UNL     1      -2.672  13.531  23.685  0.00  0.00    +0.000 NA
ATOM     26  C   UNL     1      -2.709  12.203  23.469  0.00  0.00    +0.000 A 
ATOM     27  C   UNL     1      -1.779  11.490  22.723  0.00  0.00    +0.000 A 
ATOM     28  C   UNL     1      -0.745  12.247  22.150  0.00  0.00    +0.000 A 
ATOM     29  N   UNL     1       0.376  11.943  21.371  0.00  0.00    +0.000 N 
ENDBRANCH  14  29
ENDBRANCH   1  17
BRANCH   4  30
ATOM     30  C   UNL     1       5.172   6.472  16.350  0.00  0.00    +0.000 C 
BRANCH  30  31
ATOM     31  O   UNL     1       6.342   5.984  15.672  0.00  0.00    +0.000 OA
BRANCH  31  32
ATOM     32  C   UNL     1       7.493   5.909  16.513  0.00  0.00    +0.000 C 
BRANCH  32  33
ATOM     33  C   UNL     1       7.240   6.757  17.765  0.00  0.00    +0.000 C 
ATOM     34  C   UNL     1       7.699   6.026  19.029  0.00  0.00    +0.000 C 
ATOM     35  C   UNL     1       7.939   8.111  17.653  0.00  0.00    +0.000 C 
ENDBRANCH  32  33
ENDBRANCH  31  32
ENDBRANCH  30  31
ENDBRANCH   4  30
TORSDOF 6
ENDMDL
