MODEL 1
REMARK VINA RESULT:      -8.1      0.000      0.000
REMARK  Name = 
REMARK  7 active torsions:
REMARK  status: ('A' for Active; 'I' for Inactive)
REMARK    1  A    between atoms: C_1  and  C_2
REMARK    2  A    between atoms: C_2  and  C_3
REMARK    3  A    between atoms: C_2  and  O_19
REMARK    4  A    between atoms: C_3  and  O_4
REMARK    5  A    between atoms: O_4  and  C_5
REMARK    6  A    between atoms: N_8  and  C_9
REMARK    7  A    between atoms: O_19  and  C_20
REMARK                            x       y       z     vdW  Elec       q    Type
REMARK                         _______ _______ _______ _____ _____    ______ ____
ROOT
ATOM      1  C   UNL     1       2.739   7.275  18.247  0.00  0.00    +0.000 A 
ATOM      2  C   UNL     1       2.534   6.841  19.606  0.00  0.00    +0.000 A 
ATOM      3  C   UNL     1       1.801   7.584  20.451  0.00  0.00    +0.000 A 
ATOM      4  N   UNL     1       1.223   8.800  20.071  0.00  0.00    +0.000 N 
ATOM      5  C   UNL     1       1.490   9.320  18.792  0.00  0.00    +0.000 A 
ATOM      6  O   UNL     1       1.174  10.428  18.353  0.00  0.00    +0.000 OA
ATOM      7  C   UNL     1       2.244   8.457  17.864  0.00  0.00    +0.000 A 
ENDROOT
BRANCH   4   8
ATOM      8  C   UNL     1       0.384   9.575  20.962  0.00  0.00    +0.000 A 
ATOM      9  C   UNL     1      -0.303  10.716  20.500  0.00  0.00    +0.000 A 
ATOM     10  C   UNL     1      -1.078  11.504  21.352  0.00  0.00    +0.000 A 
ATOM     11  C   UNL     1      -1.195  11.145  22.682  0.00  0.00    +0.000 A 
ATOM     12  F   UNL     1      -1.929  11.902  23.508  0.00  0.00    +0.000 F 
ATOM     13  C   UNL     1      -0.562  10.009  23.169  0.00  0.00    +0.000 A 
ATOM     14  C   UNL     1       0.222   9.224  22.312  0.00  0.00    +0.000 A 
ENDBRANCH   4   8
BRANCH   1  15
ATOM     15  O   UNL     1       3.440   6.390  17.438  0.00  0.00    +0.000 OA
BRANCH  15  16
ATOM     16  C   UNL     1       4.414   5.620  18.160  0.00  0.00    +0.000 C 
BRANCH  16  18
ATOM     17  C   UNL     1       5.042   4.265  16.132  0.00  0.00    +0.000 C 
ATOM     18  C   UNL     1       4.642   4.214  17.603  0.00  0.00    +0.000 C 
BRANCH  18  19
ATOM     19  O   UNL     1       3.397   3.494  17.682  0.00  0.00    +0.000 OA
BRANCH  19  20
ATOM     20  C   UNL     1       2.815   3.312  18.908  0.00  0.00    +0.000 A 
ATOM     21  C   UNL     1       3.466   2.890  20.068  0.00  0.00    +0.000 A 
ATOM     22  C   UNL     1       2.743   2.658  21.241  0.00  0.00    +0.000 A 
ATOM     23  C   UNL     1       1.367   2.868  21.270  0.00  0.00    +0.000 A 
ATOM     24  C   UNL     1       0.715   3.333  20.131  0.00  0.00    +0.000 A 
ATOM     25  C   UNL     1       1.439   3.554  18.955  0.00  0.00    +0.000 A 
ENDBRANCH  19  20
ENDBRANCH  18  19
ENDBRANCH  16  18
ENDBRANCH  15  16
ENDBRANCH   1  15
TORSDOF 6
ENDMDL
MODEL 2
REMARK VINA RESULT:      -7.9      0.360      1.021
REMARK  Name = 
REMARK  7 active torsions:
REMARK  status: ('A' for Active; 'I' for Inactive)
REMARK    1  A    between atoms: C_1  and  C_2
REMARK    2  A    between atoms: C_2  and  C_3
REMARK    3  A    between atoms: C_2  and  O_19
REMARK    4  A    between atoms: C_3  and  O_4
REMARK    5  A    between atoms: O_4  and  C_5
REMARK    6  A    between atoms: N_8  and  C_9
REMARK    7  A    between atoms: O_19  and  C_20
REMARK                            x       y       z     vdW  Elec       q    Type
REMARK                         _______ _______ _______ _____ _____    ______ ____
ROOT
ATOM      1  C   UNL     1       2.680   6.935  18.401  0.00  0.00    +0.000 A 
ATOM      2  C   UNL     1       2.451   6.595  19.783  0.00  0.00    +0.000 A 
ATOM      3  C   UNL     1       1.774   7.433  20.584  0.00  0.00    +0.000 A 
ATOM      4  N   UNL     1       1.279   8.662  20.135  0.00  0.00    +0.000 N 
ATOM      5  C   UNL     1       1.576   9.088  18.828  0.00  0.00    +0.000 A 
ATOM      6  O   UNL     1       1.335  10.189  18.326  0.00  0.00    +0.000 OA
ATOM      7  C   UNL     1       2.265   8.124  17.951  0.00  0.00    +0.000 A 
ENDROOT
BRANCH   4   8
ATOM      8  C   UNL     1       0.498   9.542  20.980  0.00  0.00    +0.000 A 
ATOM      9  C   UNL     1       0.168   9.173  22.300  0.00  0.00    +0.000 A 
ATOM     10  C   UNL     1      -0.624   9.984  23.114  0.00  0.00    +0.000 A 
ATOM     11  C   UNL     1      -1.081  11.193  22.623  0.00  0.00    +0.000 A 
ATOM     12  F   UNL     1      -1.849  11.972  23.395  0.00  0.00    +0.000 F 
ATOM     13  C   UNL     1      -0.749  11.608  21.340  0.00  0.00    +0.000 A 
ATOM     14  C   UNL     1       0.040  10.788  20.522  0.00  0.00    +0.000 A 
ENDBRANCH   4   8
BRANCH   1  15
ATOM     15  O   UNL     1       3.316   5.959  17.644  0.00  0.00    +0.000 OA
BRANCH  15  16
ATOM     16  C   UNL     1       4.184   5.121  18.423  0.00  0.00    +0.000 C 
BRANCH  16  18
ATOM     17  C   UNL     1       4.715   4.079  16.193  0.00  0.00    +0.000 C 
ATOM     18  C   UNL     1       4.652   3.857  17.700  0.00  0.00    +0.000 C 
BRANCH  18  19
ATOM     19  O   UNL     1       3.680   2.820  17.939  0.00  0.00    +0.000 OA
BRANCH  19  20
ATOM     20  C   UNL     1       2.956   2.847  19.100  0.00  0.00    +0.000 A 
ATOM     21  C   UNL     1       3.458   2.621  20.383  0.00  0.00    +0.000 A 
ATOM     22  C   UNL     1       2.598   2.591  21.485  0.00  0.00    +0.000 A 
ATOM     23  C   UNL     1       1.233   2.808  21.315  0.00  0.00    +0.000 A 
ATOM     24  C   UNL     1       0.729   3.079  20.047  0.00  0.00    +0.000 A 
ATOM     25  C   UNL     1       1.589   3.099  18.944  0.00  0.00    +0.000 A 
ENDBRANCH  19  20
ENDBRANCH  18  19
ENDBRANCH  16  18
ENDBRANCH  15  16
ENDBRANCH   1  15
TORSDOF 6
ENDMDL
MODEL 3
REMARK VINA RESULT:      -7.9      0.324      1.009
REMARK  Name = 
REMARK  7 active torsions:
REMARK  status: ('A' for Active; 'I' for Inactive)
REMARK    1  A    between atoms: C_1  and  C_2
REMARK    2  A    between atoms: C_2  and  C_3
REMARK    3  A    between atoms: C_2  and  O_19
REMARK    4  A    between atoms: C_3  and  O_4
REMARK    5  A    between atoms: O_4  and  C_5
REMARK    6  A    between atoms: N_8  and  C_9
REMARK    7  A    between atoms: O_19  and  C_20
REMARK                            x       y       z     vdW  Elec       q    Type
REMARK                         _______ _______ _______ _____ _____    ______ ____
ROOT
ATOM      1  C   UNL     1       2.642   7.102  18.484  0.00  0.00    +0.000 A 
ATOM      2  C   UNL     1       2.408   6.751  19.863  0.00  0.00    +0.000 A 
ATOM      3  C   UNL     1       1.683   7.559  20.653  0.00  0.00    +0.000 A 
ATOM      4  N   UNL     1       1.142   8.766  20.197  0.00  0.00    +0.000 N 
ATOM      5  C   UNL     1       1.439   9.205  18.894  0.00  0.00    +0.000 A 
ATOM      6  O   UNL     1       1.158  10.294  18.388  0.00  0.00    +0.000 OA
ATOM      7  C   UNL     1       2.183   8.272  18.028  0.00  0.00    +0.000 A 
ENDROOT
BRANCH   4   8
ATOM      8  C   UNL     1       0.311   9.611  21.030  0.00  0.00    +0.000 A 
ATOM      9  C   UNL     1      -0.237  10.809  20.527  0.00  0.00    +0.000 A 
ATOM     10  C   UNL     1      -0.999  11.662  21.326  0.00  0.00    +0.000 A 
ATOM     11  C   UNL     1      -1.244  11.314  22.642  0.00  0.00    +0.000 A 
ATOM     12  F   UNL     1      -1.968  12.132  23.418  0.00  0.00    +0.000 F 
ATOM     13  C   UNL     1      -0.751  10.126  23.165  0.00  0.00    +0.000 A 
ATOM     14  C   UNL     1       0.021   9.275  22.362  0.00  0.00    +0.000 A 
ENDBRANCH   4   8
BRANCH   1  15
ATOM     15  O   UNL     1       3.331   6.155  17.737  0.00  0.00    +0.000 OA
BRANCH  15  16
ATOM     16  C   UNL     1       4.113   5.262  18.545  0.00  0.00    +0.000 C 
BRANCH  16  18
ATOM     17  C   UNL     1       4.806   4.426  16.273  0.00  0.00    +0.000 C 
ATOM     18  C   UNL     1       4.768   4.120  17.767  0.00  0.00    +0.000 C 
BRANCH  18  19
ATOM     19  O   UNL     1       3.962   2.940  17.941  0.00  0.00    +0.000 OA
BRANCH  19  20
ATOM     20  C   UNL     1       3.007   2.929  18.922  0.00  0.00    +0.000 A 
ATOM     21  C   UNL     1       1.649   3.202  18.745  0.00  0.00    +0.000 A 
ATOM     22  C   UNL     1       0.787   3.244  19.844  0.00  0.00    +0.000 A 
ATOM     23  C   UNL     1       1.270   2.994  21.125  0.00  0.00    +0.000 A 
ATOM     24  C   UNL     1       2.614   2.677  21.307  0.00  0.00    +0.000 A 
ATOM     25  C   UNL     1       3.477   2.645  20.208  0.00  0.00    +0.000 A 
ENDBRANCH  19  20
ENDBRANCH  18  19
ENDBRANCH  16  18
ENDBRANCH  15  16
ENDBRANCH   1  15
TORSDOF 6
ENDMDL
MODEL 4
REMARK VINA RESULT:      -7.8      2.379      4.022
REMARK  Name = 
REMARK  7 active torsions:
REMARK  status: ('A' for Active; 'I' for Inactive)
REMARK    1  A    between atoms: C_1  and  C_2
REMARK    2  A    between atoms: C_2  and  C_3
REMARK    3  A    between atoms: C_2  and  O_19
REMARK    4  A    between atoms: C_3  and  O_4
REMARK    5  A    between atoms: O_4  and  C_5
REMARK    6  A    between atoms: N_8  and  C_9
REMARK    7  A    between atoms: O_19  and  C_20
REMARK                            x       y       z     vdW  Elec       q    Type
REMARK                         _______ _______ _______ _____ _____    ______ ____
ROOT
ATOM      1  C   UNL     1       2.205   6.897  19.669  0.00  0.00    +0.000 A 
ATOM      2  C   UNL     1       1.621   7.611  20.777  0.00  0.00    +0.000 A 
ATOM      3  C   UNL     1       1.176   8.867  20.614  0.00  0.00    +0.000 A 
ATOM      4  N   UNL     1       1.268   9.542  19.392  0.00  0.00    +0.000 N 
ATOM      5  C   UNL     1       1.932   8.928  18.315  0.00  0.00    +0.000 A 
ATOM      6  O   UNL     1       2.216   9.432  17.225  0.00  0.00    +0.000 OA
ATOM      7  C   UNL     1       2.354   7.528  18.500  0.00  0.00    +0.000 A 
ENDROOT
BRANCH   4   8
ATOM      8  C   UNL     1       0.736  10.875  19.198  0.00  0.00    +0.000 A 
ATOM      9  C   UNL     1      -0.535  11.070  18.622  0.00  0.00    +0.000 A 
ATOM     10  C   UNL     1      -1.046  12.347  18.380  0.00  0.00    +0.000 A 
ATOM     11  C   UNL     1      -0.295  13.452  18.736  0.00  0.00    +0.000 A 
ATOM     12  F   UNL     1      -0.774  14.680  18.498  0.00  0.00    +0.000 F 
ATOM     13  C   UNL     1       0.947  13.302  19.337  0.00  0.00    +0.000 A 
ATOM     14  C   UNL     1       1.461  12.019  19.571  0.00  0.00    +0.000 A 
ENDBRANCH   4   8
BRANCH   1  15
ATOM     15  O   UNL     1       2.553   5.576  19.928  0.00  0.00    +0.000 OA
BRANCH  15  16
ATOM     16  C   UNL     1       2.264   4.695  18.831  0.00  0.00    +0.000 C 
BRANCH  16  18
ATOM     17  C   UNL     1       3.412   2.688  17.833  0.00  0.00    +0.000 C 
ATOM     18  C   UNL     1       3.502   4.188  18.090  0.00  0.00    +0.000 C 
BRANCH  18  19
ATOM     19  O   UNL     1       4.649   4.409  18.932  0.00  0.00    +0.000 OA
BRANCH  19  20
ATOM     20  C   UNL     1       5.583   5.334  18.549  0.00  0.00    +0.000 A 
ATOM     21  C   UNL     1       5.463   6.223  17.480  0.00  0.00    +0.000 A 
ATOM     22  C   UNL     1       6.526   7.063  17.135  0.00  0.00    +0.000 A 
ATOM     23  C   UNL     1       7.708   7.036  17.870  0.00  0.00    +0.000 A 
ATOM     24  C   UNL     1       7.822   6.186  18.966  0.00  0.00    +0.000 A 
ATOM     25  C   UNL     1       6.761   5.338  19.302  0.00  0.00    +0.000 A 
ENDBRANCH  19  20
ENDBRANCH  18  19
ENDBRANCH  16  18
ENDBRANCH  15  16
ENDBRANCH   1  15
TORSDOF 6
ENDMDL
MODEL 5
REMARK VINA RESULT:      -7.8      1.710      2.313
REMARK  Name = 
REMARK  7 active torsions:
REMARK  status: ('A' for Active; 'I' for Inactive)
REMARK    1  A    between atoms: C_1  and  C_2
REMARK    2  A    between atoms: C_2  and  C_3
REMARK    3  A    between atoms: C_2  and  O_19
REMARK    4  A    between atoms: C_3  and  O_4
REMARK    5  A    between atoms: O_4  and  C_5
REMARK    6  A    between atoms: N_8  and  C_9
REMARK    7  A    between atoms: O_19  and  C_20
REMARK                            x       y       z     vdW  Elec       q    Type
REMARK                         _______ _______ _______ _____ _____    ______ ____
ROOT
ATOM      1  C   UNL     1       2.854   7.088  19.079  0.00  0.00    +0.000 A 
ATOM      2  C   UNL     1       2.683   8.016  17.989  0.00  0.00    +0.000 A 
ATOM      3  C   UNL     1       1.859   9.068  18.118  0.00  0.00    +0.000 A 
ATOM      4  N   UNL     1       1.126   9.307  19.285  0.00  0.00    +0.000 N 
ATOM      5  C   UNL     1       1.172   8.369  20.332  0.00  0.00    +0.000 A 
ATOM      6  O   UNL     1       0.491   8.359  21.360  0.00  0.00    +0.000 OA
ATOM      7  C   UNL     1       2.130   7.258  20.191  0.00  0.00    +0.000 A 
ENDROOT
BRANCH   4   8
ATOM      8  C   UNL     1       0.281  10.473  19.449  0.00  0.00    +0.000 A 
ATOM      9  C   UNL     1       0.764  11.632  20.090  0.00  0.00    +0.000 A 
ATOM     10  C   UNL     1      -0.047  12.748  20.302  0.00  0.00    +0.000 A 
ATOM     11  C   UNL     1      -1.355  12.726  19.852  0.00  0.00    +0.000 A 
ATOM     12  F   UNL     1      -2.142  13.790  20.060  0.00  0.00    +0.000 F 
ATOM     13  C   UNL     1      -1.858  11.617  19.186  0.00  0.00    +0.000 A 
ATOM     14  C   UNL     1      -1.043  10.495  18.981  0.00  0.00    +0.000 A 
ENDBRANCH   4   8
BRANCH   1  15
ATOM     15  O   UNL     1       3.793   6.086  18.868  0.00  0.00    +0.000 OA
BRANCH  15  16
ATOM     16  C   UNL     1       3.678   5.472  17.574  0.00  0.00    +0.000 C 
BRANCH  16  18
ATOM     17  C   UNL     1       5.057   3.993  16.073  0.00  0.00    +0.000 C 
ATOM     18  C   UNL     1       4.409   4.135  17.446  0.00  0.00    +0.000 C 
BRANCH  18  19
ATOM     19  O   UNL     1       3.437   3.080  17.571  0.00  0.00    +0.000 OA
BRANCH  19  20
ATOM     20  C   UNL     1       2.688   3.002  18.715  0.00  0.00    +0.000 A 
ATOM     21  C   UNL     1       1.309   3.199  18.805  0.00  0.00    +0.000 A 
ATOM     22  C   UNL     1       0.671   3.178  20.048  0.00  0.00    +0.000 A 
ATOM     23  C   UNL     1       1.402   2.939  21.208  0.00  0.00    +0.000 A 
ATOM     24  C   UNL     1       2.771   2.697  21.125  0.00  0.00    +0.000 A 
ATOM     25  C   UNL     1       3.409   2.728  19.881  0.00  0.00    +0.000 A 
ENDBRANCH  19  20
ENDBRANCH  18  19
ENDBRANCH  16  18
ENDBRANCH  15  16
ENDBRANCH   1  15
TORSDOF 6
ENDMDL
MODEL 6
REMARK VINA RESULT:      -7.8      2.455      4.898
REMARK  Name = 
REMARK  7 active torsions:
REMARK  status: ('A' for Active; 'I' for Inactive)
REMARK    1  A    between atoms: C_1  and  C_2
REMARK    2  A    between atoms: C_2  and  C_3
REMARK    3  A    between atoms: C_2  and  O_19
REMARK    4  A    between atoms: C_3  and  O_4
REMARK    5  A    between atoms: O_4  and  C_5
REMARK    6  A    between atoms: N_8  and  C_9
REMARK    7  A    between atoms: O_19  and  C_20
REMARK                            x       y       z     vdW  Elec       q    Type
REMARK                         _______ _______ _______ _____ _____    ______ ____
ROOT
ATOM      1  C   UNL     1       3.447   6.244  17.885  0.00  0.00    +0.000 A 
ATOM      2  C   UNL     1       3.136   7.606  17.528  0.00  0.00    +0.000 A 
ATOM      3  C   UNL     1       2.413   8.375  18.357  0.00  0.00    +0.000 A 
ATOM      4  N   UNL     1       1.920   7.903  19.578  0.00  0.00    +0.000 N 
ATOM      5  C   UNL     1       2.100   6.550  19.917  0.00  0.00    +0.000 A 
ATOM      6  O   UNL     1       1.618   5.948  20.879  0.00  0.00    +0.000 OA
ATOM      7  C   UNL     1       2.950   5.744  19.021  0.00  0.00    +0.000 A 
ENDROOT
BRANCH   4   8
ATOM      8  C   UNL     1       1.189   8.747  20.501  0.00  0.00    +0.000 A 
ATOM      9  C   UNL     1       1.414   8.664  21.890  0.00  0.00    +0.000 A 
ATOM     10  C   UNL     1       0.687   9.433  22.801  0.00  0.00    +0.000 A 
ATOM     11  C   UNL     1      -0.265  10.317  22.328  0.00  0.00    +0.000 A 
ATOM     12  F   UNL     1      -0.973  11.051  23.196  0.00  0.00    +0.000 F 
ATOM     13  C   UNL     1      -0.492  10.453  20.965  0.00  0.00    +0.000 A 
ATOM     14  C   UNL     1       0.234   9.674  20.054  0.00  0.00    +0.000 A 
ENDBRANCH   4   8
BRANCH   1  15
ATOM     15  O   UNL     1       4.272   5.568  16.994  0.00  0.00    +0.000 OA
BRANCH  15  16
ATOM     16  C   UNL     1       5.393   6.354  16.560  0.00  0.00    +0.000 C 
BRANCH  16  18
ATOM     17  C   UNL     1       7.574   6.361  17.820  0.00  0.00    +0.000 C 
ATOM     18  C   UNL     1       6.748   5.668  16.741  0.00  0.00    +0.000 C 
BRANCH  18  19
ATOM     19  O   UNL     1       7.478   5.786  15.504  0.00  0.00    +0.000 OA
BRANCH  19  20
ATOM     20  C   UNL     1       7.063   5.059  14.421  0.00  0.00    +0.000 A 
ATOM     21  C   UNL     1       6.072   4.075  14.425  0.00  0.00    +0.000 A 
ATOM     22  C   UNL     1       5.798   3.340  13.268  0.00  0.00    +0.000 A 
ATOM     23  C   UNL     1       6.497   3.597  12.092  0.00  0.00    +0.000 A 
ATOM     24  C   UNL     1       7.456   4.607  12.064  0.00  0.00    +0.000 A 
ATOM     25  C   UNL     1       7.736   5.334  13.226  0.00  0.00    +0.000 A 
ENDBRANCH  19  20
ENDBRANCH  18  19
ENDBRANCH  16  18
ENDBRANCH  15  16
ENDBRANCH   1  15
TORSDOF 6
ENDMDL
MODEL 7
REMARK VINA RESULT:      -7.8      2.300      3.852
REMARK  Name = 
REMARK  7 active torsions:
REMARK  status: ('A' for Active; 'I' for Inactive)
REMARK    1  A    between atoms: C_1  and  C_2
REMARK    2  A    between atoms: C_2  and  C_3
REMARK    3  A    between atoms: C_2  and  O_19
REMARK    4  A    between atoms: C_3  and  O_4
REMARK    5  A    between atoms: O_4  and  C_5
REMARK    6  A    between atoms: N_8  and  C_9
REMARK    7  A    between atoms: O_19  and  C_20
REMARK                            x       y       z     vdW  Elec       q    Type
REMARK                         _______ _______ _______ _____ _____    ______ ____
ROOT
ATOM      1  C   UNL     1       2.353   6.554  19.667  0.00  0.00    +0.000 A 
ATOM      2  C   UNL     1       1.726   7.288  20.738  0.00  0.00    +0.000 A 
ATOM      3  C   UNL     1       1.264   8.531  20.528  0.00  0.00    +0.000 A 
ATOM      4  N   UNL     1       1.379   9.174  19.291  0.00  0.00    +0.000 N 
ATOM      5  C   UNL     1       2.083   8.543  18.250  0.00  0.00    +0.000 A 
ATOM      6  O   UNL     1       2.389   9.022  17.155  0.00  0.00    +0.000 OA
ATOM      7  C   UNL     1       2.524   7.157  18.485  0.00  0.00    +0.000 A 
ENDROOT
BRANCH   4   8
ATOM      8  C   UNL     1       0.830  10.492  19.045  0.00  0.00    +0.000 A 
ATOM      9  C   UNL     1      -0.497  10.651  18.598  0.00  0.00    +0.000 A 
ATOM     10  C   UNL     1      -1.031  11.908  18.309  0.00  0.00    +0.000 A 
ATOM     11  C   UNL     1      -0.244  13.031  18.485  0.00  0.00    +0.000 A 
ATOM     12  F   UNL     1      -0.745  14.240  18.200  0.00  0.00    +0.000 F 
ATOM     13  C   UNL     1       1.057  12.919  18.956  0.00  0.00    +0.000 A 
ATOM     14  C   UNL     1       1.593  11.655  19.238  0.00  0.00    +0.000 A 
ENDBRANCH   4   8
BRANCH   1  15
ATOM     15  O   UNL     1       2.716   5.248  19.971  0.00  0.00    +0.000 OA
BRANCH  15  16
ATOM     16  C   UNL     1       2.173   4.286  19.053  0.00  0.00    +0.000 C 
BRANCH  16  18
ATOM     17  C   UNL     1       2.890   2.186  17.862  0.00  0.00    +0.000 C 
ATOM     18  C   UNL     1       3.207   3.655  18.120  0.00  0.00    +0.000 C 
BRANCH  18  19
ATOM     19  O   UNL     1       4.490   3.707  18.773  0.00  0.00    +0.000 OA
BRANCH  19  20
ATOM     20  C   UNL     1       5.449   4.550  18.280  0.00  0.00    +0.000 A 
ATOM     21  C   UNL     1       6.384   5.258  19.037  0.00  0.00    +0.000 A 
ATOM     22  C   UNL     1       7.260   6.157  18.422  0.00  0.00    +0.000 A 
ATOM     23  C   UNL     1       7.222   6.339  17.043  0.00  0.00    +0.000 A 
ATOM     24  C   UNL     1       6.325   5.604  16.272  0.00  0.00    +0.000 A 
ATOM     25  C   UNL     1       5.443   4.713  16.891  0.00  0.00    +0.000 A 
ENDBRANCH  19  20
ENDBRANCH  18  19
ENDBRANCH  16  18
ENDBRANCH  15  16
ENDBRANCH   1  15
TORSDOF 6
ENDMDL
MODEL 8
REMARK VINA RESULT:      -7.8      1.383      1.882
REMARK  Name = 
REMARK  7 active torsions:
REMARK  status: ('A' for Active; 'I' for Inactive)
REMARK    1  A    between atoms: C_1  and  C_2
REMARK    2  A    between atoms: C_2  and  C_3
REMARK    3  A    between atoms: C_2  and  O_19
REMARK    4  A    between atoms: C_3  and  O_4
REMARK    5  A    between atoms: O_4  and  C_5
REMARK    6  A    between atoms: N_8  and  C_9
REMARK    7  A    between atoms: O_19  and  C_20
REMARK                            x       y       z     vdW  Elec       q    Type
REMARK                         _______ _______ _______ _____ _____    ______ ____
ROOT
ATOM      1  C   UNL     1       3.000   7.034  18.960  0.00  0.00    +0.000 A 
ATOM      2  C   UNL     1       2.223   7.103  20.172  0.00  0.00    +0.000 A 
ATOM      3  C   UNL     1       1.323   8.084  20.344  0.00  0.00    +0.000 A 
ATOM      4  N   UNL     1       1.107   9.080  19.386  0.00  0.00    +0.000 N 
ATOM      5  C   UNL     1       1.919   9.120  18.239  0.00  0.00    +0.000 A 
ATOM      6  O   UNL     1       1.951   9.998  17.373  0.00  0.00    +0.000 OA
ATOM      7  C   UNL     1       2.855   7.998  18.043  0.00  0.00    +0.000 A 
ENDROOT
BRANCH   4   8
ATOM      8  C   UNL     1       0.096  10.106  19.543  0.00  0.00    +0.000 A 
ATOM      9  C   UNL     1      -0.999  10.184  18.659  0.00  0.00    +0.000 A 
ATOM     10  C   UNL     1      -1.958  11.193  18.763  0.00  0.00    +0.000 A 
ATOM     11  C   UNL     1      -1.845  12.130  19.774  0.00  0.00    +0.000 A 
ATOM     12  F   UNL     1      -2.756  13.107  19.874  0.00  0.00    +0.000 F 
ATOM     13  C   UNL     1      -0.800  12.067  20.685  0.00  0.00    +0.000 A 
ATOM     14  C   UNL     1       0.166  11.057  20.574  0.00  0.00    +0.000 A 
ENDBRANCH   4   8
BRANCH   1  15
ATOM     15  O   UNL     1       3.838   5.931  18.850  0.00  0.00    +0.000 OA
BRANCH  15  16
ATOM     16  C   UNL     1       3.861   5.373  17.527  0.00  0.00    +0.000 C 
BRANCH  16  18
ATOM     17  C   UNL     1       5.165   3.771  16.086  0.00  0.00    +0.000 C 
ATOM     18  C   UNL     1       4.501   3.986  17.441  0.00  0.00    +0.000 C 
BRANCH  18  19
ATOM     19  O   UNL     1       3.455   3.003  17.565  0.00  0.00    +0.000 OA
BRANCH  19  20
ATOM     20  C   UNL     1       2.713   2.968  18.714  0.00  0.00    +0.000 A 
ATOM     21  C   UNL     1       1.349   3.250  18.817  0.00  0.00    +0.000 A 
ATOM     22  C   UNL     1       0.721   3.264  20.065  0.00  0.00    +0.000 A 
ATOM     23  C   UNL     1       1.446   2.976  21.219  0.00  0.00    +0.000 A 
ATOM     24  C   UNL     1       2.796   2.649  21.123  0.00  0.00    +0.000 A 
ATOM     25  C   UNL     1       3.425   2.646  19.874  0.00  0.00    +0.000 A 
ENDBRANCH  19  20
ENDBRANCH  18  19
ENDBRANCH  16  18
ENDBRANCH  15  16
ENDBRANCH   1  15
TORSDOF 6
ENDMDL
MODEL 9
REMARK VINA RESULT:      -7.8      1.131      1.754
REMARK  Name = 
REMARK  7 active torsions:
REMARK  status: ('A' for Active; 'I' for Inactive)
REMARK    1  A    between atoms: C_1  and  C_2
REMARK    2  A    between atoms: C_2  and  C_3
REMARK    3  A    between atoms: C_2  and  O_19
REMARK    4  A    between atoms: C_3  and  O_4
REMARK    5  A    between atoms: O_4  and  C_5
REMARK    6  A    between atoms: N_8  and  C_9
REMARK    7  A    between atoms: O_19  and  C_20
REMARK                            x       y       z     vdW  Elec       q    Type
REMARK                         _______ _______ _______ _____ _____    ______ ____
ROOT
ATOM      1  C   UNL     1       3.018   7.172  18.281  0.00  0.00    +0.000 A 
ATOM      2  C   UNL     1       2.545   8.303  17.522  0.00  0.00    +0.000 A 
ATOM      3  C   UNL     1       1.704   9.189  18.080  0.00  0.00    +0.000 A 
ATOM      4  N   UNL     1       1.239   9.056  19.393  0.00  0.00    +0.000 N 
ATOM      5  C   UNL     1       1.583   7.911  20.133  0.00  0.00    +0.000 A 
ATOM      6  O   UNL     1       1.154   7.577  21.240  0.00  0.00    +0.000 OA
ATOM      7  C   UNL     1       2.556   6.987  19.522  0.00  0.00    +0.000 A 
ENDROOT
BRANCH   4   8
ATOM      8  C   UNL     1       0.379  10.040  20.017  0.00  0.00    +0.000 A 
ATOM      9  C   UNL     1       0.573  10.423  21.360  0.00  0.00    +0.000 A 
ATOM     10  C   UNL     1      -0.274  11.333  21.995  0.00  0.00    +0.000 A 
ATOM     11  C   UNL     1      -1.320  11.892  21.283  0.00  0.00    +0.000 A 
ATOM     12  F   UNL     1      -2.142  12.759  21.889  0.00  0.00    +0.000 F 
ATOM     13  C   UNL     1      -1.523  11.567  19.949  0.00  0.00    +0.000 A 
ATOM     14  C   UNL     1      -0.676  10.647  19.316  0.00  0.00    +0.000 A 
ENDBRANCH   4   8
BRANCH   1  15
ATOM     15  O   UNL     1       3.950   6.369  17.634  0.00  0.00    +0.000 OA
BRANCH  15  16
ATOM     16  C   UNL     1       4.532   5.378  18.497  0.00  0.00    +0.000 C 
BRANCH  16  18
ATOM     17  C   UNL     1       5.152   4.257  16.330  0.00  0.00    +0.000 C 
ATOM     18  C   UNL     1       4.841   4.049  17.808  0.00  0.00    +0.000 C 
BRANCH  18  19
ATOM     19  O   UNL     1       3.664   3.221  17.884  0.00  0.00    +0.000 OA
BRANCH  19  20
ATOM     20  C   UNL     1       2.984   3.146  19.070  0.00  0.00    +0.000 A 
ATOM     21  C   UNL     1       3.502   2.691  20.283  0.00  0.00    +0.000 A 
ATOM     22  C   UNL     1       2.679   2.581  21.408  0.00  0.00    +0.000 A 
ATOM     23  C   UNL     1       1.338   2.946  21.334  0.00  0.00    +0.000 A 
ATOM     24  C   UNL     1       0.822   3.444  20.141  0.00  0.00    +0.000 A 
ATOM     25  C   UNL     1       1.644   3.544  19.014  0.00  0.00    +0.000 A 
ENDBRANCH  19  20
ENDBRANCH  18  19
ENDBRANCH  16  18
ENDBRANCH  15  16
ENDBRANCH   1  15
TORSDOF 6
ENDMDL
