MODEL 1
REMARK VINA RESULT:      -7.4      0.000      0.000
REMARK  Name = 
REMARK  3 active torsions:
REMARK  status: ('A' for Active; 'I' for Inactive)
REMARK    1  A    between atoms: C_2  and  C_4
REMARK    2  A    between atoms: N_7  and  C_8
REMARK    3  A    between atoms: C_8  and  C_9
REMARK                            x       y       z     vdW  Elec       q    Type
REMARK                         _______ _______ _______ _____ _____    ______ ____
ROOT
ATOM      1  C   UNL     1       2.091   2.349  19.086  0.00  0.00    +0.000 C 
ATOM      2  C   UNL     1       1.963   3.282  17.881  0.00  0.00    +0.000 C 
ATOM      3  C   UNL     1       2.693   4.606  18.113  0.00  0.00    +0.000 C 
ATOM      4  N   UNL     1       2.202   5.294  19.317  0.00  0.00    +0.000 NA
ATOM      5  C   UNL     1       2.325   4.434  20.510  0.00  0.00    +0.000 C 
ATOM      6  C   UNL     1       1.619   3.087  20.339  0.00  0.00    +0.000 C 
ENDROOT
BRANCH   1   8
ATOM      7  N   UNL     1       3.893   0.868  18.343  0.00  0.00    +0.000 N 
ATOM      8  C   UNL     1       3.512   1.811  19.249  0.00  0.00    +0.000 C 
ATOM      9  O   UNL     1       4.287   2.154  20.135  0.00  0.00    +0.000 OA
ATOM     10  H   UNL     1       4.803   0.447  18.484  0.00  0.00    +0.000 HD
ATOM     11  H   UNL     1       3.229   0.377  17.759  0.00  0.00    +0.000 HD
ENDBRANCH   1   8
BRANCH   4  12
ATOM     12  C   UNL     1       2.948   6.543  19.565  0.00  0.00    +0.000 C 
BRANCH  12  13
ATOM     13  C   UNL     1       2.305   7.750  18.981  0.00  0.00    +0.000 A 
ATOM     14  C   UNL     1       2.365   8.243  17.692  0.00  0.00    +0.000 A 
ATOM     15  N   UNL     1       1.663   9.410  17.563  0.00  0.00    +0.000 NA
ATOM     16  C   UNL     1       1.157   9.639  18.755  0.00  0.00    +0.000 A 
ATOM     17  C   UNL     1       0.335  10.701  19.226  0.00  0.00    +0.000 A 
ATOM     18  C   UNL     1      -0.105  10.693  20.499  0.00  0.00    +0.000 A 
ATOM     19  C   UNL     1       0.245   9.616  21.417  0.00  0.00    +0.000 A 
ATOM     20 BR   UNL     1      -0.452   9.661  23.141  0.00  0.00    +0.000 Br
ATOM     21  C   UNL     1       1.049   8.629  20.985  0.00  0.00    +0.000 A 
ATOM     22  N   UNL     1       1.502   8.641  19.666  0.00  0.00    +0.000 N 
ENDBRANCH  12  13
ENDBRANCH   4  12
TORSDOF 3
ENDMDL
MODEL 2
REMARK VINA RESULT:      -7.2      5.253      6.961
REMARK  Name = 
REMARK  3 active torsions:
REMARK  status: ('A' for Active; 'I' for Inactive)
REMARK    1  A    between atoms: C_2  and  C_4
REMARK    2  A    between atoms: N_7  and  C_8
REMARK    3  A    between atoms: C_8  and  C_9
REMARK                            x       y       z     vdW  Elec       q    Type
REMARK                         _______ _______ _______ _____ _____    ______ ____
ROOT
ATOM      1  C   UNL     1       2.559   2.028  19.716  0.00  0.00    +0.000 C 
ATOM      2  C   UNL     1       4.062   2.305  19.674  0.00  0.00    +0.000 C 
ATOM      3  C   UNL     1       4.366   3.673  19.061  0.00  0.00    +0.000 C 
ATOM      4  N   UNL     1       3.810   3.798  17.705  0.00  0.00    +0.000 NA
ATOM      5  C   UNL     1       2.354   3.555  17.701  0.00  0.00    +0.000 C 
ATOM      6  C   UNL     1       1.982   2.201  18.309  0.00  0.00    +0.000 C 
ENDROOT
BRANCH   1   8
ATOM      7  N   UNL     1       0.615   3.375  20.349  0.00  0.00    +0.000 N 
ATOM      8  C   UNL     1       1.837   2.910  20.734  0.00  0.00    +0.000 C 
ATOM      9  O   UNL     1       2.294   3.227  21.826  0.00  0.00    +0.000 OA
ATOM     10  H   UNL     1       0.159   4.022  20.980  0.00  0.00    +0.000 HD
ATOM     11  H   UNL     1       0.305   3.353  19.387  0.00  0.00    +0.000 HD
ENDBRANCH   1   8
BRANCH   4  12
ATOM     12  C   UNL     1       4.061   5.138  17.142  0.00  0.00    +0.000 C 
BRANCH  12  13
ATOM     13  C   UNL     1       5.401   5.283  16.514  0.00  0.00    +0.000 A 
ATOM     14  C   UNL     1       6.562   5.824  17.032  0.00  0.00    +0.000 A 
ATOM     15  N   UNL     1       7.579   5.810  16.117  0.00  0.00    +0.000 NA
ATOM     16  C   UNL     1       7.065   5.254  15.042  0.00  0.00    +0.000 A 
ATOM     17  C   UNL     1       7.647   4.970  13.775  0.00  0.00    +0.000 A 
ATOM     18  C   UNL     1       6.923   4.341  12.830  0.00  0.00    +0.000 A 
ATOM     19  C   UNL     1       5.541   3.943  13.073  0.00  0.00    +0.000 A 
ATOM     20 BR   UNL     1       4.634   3.032  11.728  0.00  0.00    +0.000 Br
ATOM     21  C   UNL     1       4.976   4.240  14.256  0.00  0.00    +0.000 A 
ATOM     22  N   UNL     1       5.732   4.891  15.231  0.00  0.00    +0.000 N 
ENDBRANCH  12  13
ENDBRANCH   4  12
TORSDOF 3
ENDMDL
MODEL 3
REMARK VINA RESULT:      -7.1      1.061      1.304
REMARK  Name = 
REMARK  3 active torsions:
REMARK  status: ('A' for Active; 'I' for Inactive)
REMARK    1  A    between atoms: C_2  and  C_4
REMARK    2  A    between atoms: N_7  and  C_8
REMARK    3  A    between atoms: C_8  and  C_9
REMARK                            x       y       z     vdW  Elec       q    Type
REMARK                         _______ _______ _______ _____ _____    ______ ____
ROOT
ATOM      1  C   UNL     1       3.071   2.805  17.449  0.00  0.00    +0.000 C 
ATOM      2  C   UNL     1       4.231   3.794  17.339  0.00  0.00    +0.000 C 
ATOM      3  C   UNL     1       4.135   4.895  18.397  0.00  0.00    +0.000 C 
ATOM      4  N   UNL     1       2.862   5.626  18.309  0.00  0.00    +0.000 NA
ATOM      5  C   UNL     1       1.711   4.709  18.428  0.00  0.00    +0.000 C 
ATOM      6  C   UNL     1       1.751   3.578  17.399  0.00  0.00    +0.000 C 
ENDROOT
BRANCH   1   8
ATOM      7  N   UNL     1       4.382   1.359  18.926  0.00  0.00    +0.000 N 
ATOM      8  C   UNL     1       3.169   1.938  18.703  0.00  0.00    +0.000 C 
ATOM      9  O   UNL     1       2.242   1.726  19.476  0.00  0.00    +0.000 OA
ATOM     10  H   UNL     1       4.442   0.721  19.710  0.00  0.00    +0.000 HD
ATOM     11  H   UNL     1       5.093   1.297  18.210  0.00  0.00    +0.000 HD
ENDBRANCH   1   8
BRANCH   4  12
ATOM     12  C   UNL     1       2.754   6.649  19.366  0.00  0.00    +0.000 C 
BRANCH  12  13
ATOM     13  C   UNL     1       2.243   7.959  18.881  0.00  0.00    +0.000 A 
ATOM     14  C   UNL     1       2.395   8.561  17.647  0.00  0.00    +0.000 A 
ATOM     15  N   UNL     1       1.805   9.795  17.609  0.00  0.00    +0.000 NA
ATOM     16  C   UNL     1       1.277   9.959  18.803  0.00  0.00    +0.000 A 
ATOM     17  C   UNL     1       0.537  11.044  19.349  0.00  0.00    +0.000 A 
ATOM     18  C   UNL     1       0.051  10.960  20.602  0.00  0.00    +0.000 A 
ATOM     19  C   UNL     1       0.269   9.776  21.423  0.00  0.00    +0.000 A 
ATOM     20 BR   UNL     1      -0.485   9.726  23.123  0.00  0.00    +0.000 Br
ATOM     21  C   UNL     1       0.997   8.762  20.923  0.00  0.00    +0.000 A 
ATOM     22  N   UNL     1       1.498   8.854  19.624  0.00  0.00    +0.000 N 
ENDBRANCH  12  13
ENDBRANCH   4  12
TORSDOF 3
ENDMDL
MODEL 4
REMARK VINA RESULT:      -7.0      4.219      6.015
REMARK  Name = 
REMARK  3 active torsions:
REMARK  status: ('A' for Active; 'I' for Inactive)
REMARK    1  A    between atoms: C_2  and  C_4
REMARK    2  A    between atoms: N_7  and  C_8
REMARK    3  A    between atoms: C_8  and  C_9
REMARK                            x       y       z     vdW  Elec       q    Type
REMARK                         _______ _______ _______ _____ _____    ______ ____
ROOT
ATOM      1  C   UNL     1       1.113   2.921  20.062  0.00  0.00    +0.000 C 
ATOM      2  C   UNL     1       1.322   2.805  18.551  0.00  0.00    +0.000 C 
ATOM      3  C   UNL     1       2.351   3.819  18.046  0.00  0.00    +0.000 C 
ATOM      4  N   UNL     1       1.965   5.198  18.380  0.00  0.00    +0.000 NA
ATOM      5  C   UNL     1       1.769   5.360  19.834  0.00  0.00    +0.000 C 
ATOM      6  C   UNL     1       0.754   4.368  20.404  0.00  0.00    +0.000 C 
ENDROOT
BRANCH   1   8
ATOM      7  N   UNL     1       2.215   2.504  22.207  0.00  0.00    +0.000 N 
ATOM      8  C   UNL     1       2.330   2.439  20.851  0.00  0.00    +0.000 C 
ATOM      9  O   UNL     1       3.371   2.035  20.346  0.00  0.00    +0.000 OA
ATOM     10  H   UNL     1       3.039   2.262  22.742  0.00  0.00    +0.000 HD
ATOM     11  H   UNL     1       1.496   3.047  22.665  0.00  0.00    +0.000 HD
ENDBRANCH   1   8
BRANCH   4  12
ATOM     12  C   UNL     1       2.987   6.165  17.937  0.00  0.00    +0.000 C 
BRANCH  12  13
ATOM     13  C   UNL     1       4.382   5.736  18.225  0.00  0.00    +0.000 A 
ATOM     14  C   UNL     1       5.078   5.748  19.418  0.00  0.00    +0.000 A 
ATOM     15  N   UNL     1       6.363   5.307  19.258  0.00  0.00    +0.000 NA
ATOM     16  C   UNL     1       6.467   5.009  17.981  0.00  0.00    +0.000 A 
ATOM     17  C   UNL     1       7.566   4.502  17.233  0.00  0.00    +0.000 A 
ATOM     18  C   UNL     1       7.415   4.225  15.924  0.00  0.00    +0.000 A 
ATOM     19  C   UNL     1       6.142   4.439  15.245  0.00  0.00    +0.000 A 
ATOM     20 BR   UNL     1       6.011   3.979  13.447  0.00  0.00    +0.000 Br
ATOM     21  C   UNL     1       5.112   4.951  15.940  0.00  0.00    +0.000 A 
ATOM     22  N   UNL     1       5.274   5.235  17.296  0.00  0.00    +0.000 N 
ENDBRANCH  12  13
ENDBRANCH   4  12
TORSDOF 3
ENDMDL
MODEL 5
REMARK VINA RESULT:      -7.0      5.422      7.444
REMARK  Name = 
REMARK  3 active torsions:
REMARK  status: ('A' for Active; 'I' for Inactive)
REMARK    1  A    between atoms: C_2  and  C_4
REMARK    2  A    between atoms: N_7  and  C_8
REMARK    3  A    between atoms: C_8  and  C_9
REMARK                            x       y       z     vdW  Elec       q    Type
REMARK                         _______ _______ _______ _____ _____    ______ ____
ROOT
ATOM      1  C   UNL     1       1.434   4.888  18.944  0.00  0.00    +0.000 C 
ATOM      2  C   UNL     1       1.324   4.047  17.672  0.00  0.00    +0.000 C 
ATOM      3  C   UNL     1       2.634   3.321  17.360  0.00  0.00    +0.000 C 
ATOM      4  N   UNL     1       3.758   4.260  17.226  0.00  0.00    +0.000 NA
ATOM      5  C   UNL     1       3.913   5.083  18.442  0.00  0.00    +0.000 C 
ATOM      6  C   UNL     1       2.631   5.832  18.813  0.00  0.00    +0.000 C 
ENDROOT
BRANCH   1   8
ATOM      7  N   UNL     1       0.683   2.958  20.250  0.00  0.00    +0.000 N 
ATOM      8  C   UNL     1       1.532   4.023  20.200  0.00  0.00    +0.000 C 
ATOM      9  O   UNL     1       2.288   4.244  21.139  0.00  0.00    +0.000 OA
ATOM     10  H   UNL     1       0.681   2.421  21.107  0.00  0.00    +0.000 HD
ATOM     11  H   UNL     1      -0.115   2.872  19.635  0.00  0.00    +0.000 HD
ENDBRANCH   1   8
BRANCH   4  12
ATOM     12  C   UNL     1       5.027   3.550  16.980  0.00  0.00    +0.000 C 
BRANCH  12  13
ATOM     13  C   UNL     1       6.010   4.337  16.189  0.00  0.00    +0.000 A 
ATOM     14  C   UNL     1       6.871   5.337  16.600  0.00  0.00    +0.000 A 
ATOM     15  N   UNL     1       7.591   5.846  15.554  0.00  0.00    +0.000 NA
ATOM     16  C   UNL     1       7.195   5.164  14.501  0.00  0.00    +0.000 A 
ATOM     17  C   UNL     1       7.594   5.246  13.138  0.00  0.00    +0.000 A 
ATOM     18  C   UNL     1       7.073   4.394  12.235  0.00  0.00    +0.000 A 
ATOM     19  C   UNL     1       6.097   3.382  12.620  0.00  0.00    +0.000 A 
ATOM     20 BR   UNL     1       5.472   2.213  11.315  0.00  0.00    +0.000 Br
ATOM     21  C   UNL     1       5.693   3.323  13.901  0.00  0.00    +0.000 A 
ATOM     22  N   UNL     1       6.236   4.207  14.833  0.00  0.00    +0.000 N 
ENDBRANCH  12  13
ENDBRANCH   4  12
TORSDOF 3
ENDMDL
MODEL 6
REMARK VINA RESULT:      -7.0      1.336      1.589
REMARK  Name = 
REMARK  3 active torsions:
REMARK  status: ('A' for Active; 'I' for Inactive)
REMARK    1  A    between atoms: C_2  and  C_4
REMARK    2  A    between atoms: N_7  and  C_8
REMARK    3  A    between atoms: C_8  and  C_9
REMARK                            x       y       z     vdW  Elec       q    Type
REMARK                         _______ _______ _______ _____ _____    ______ ____
ROOT
ATOM      1  C   UNL     1       1.551   2.562  20.139  0.00  0.00    +0.000 C 
ATOM      2  C   UNL     1       2.733   2.754  19.187  0.00  0.00    +0.000 C 
ATOM      3  C   UNL     1       3.423   4.101  19.411  0.00  0.00    +0.000 C 
ATOM      4  N   UNL     1       2.487   5.225  19.257  0.00  0.00    +0.000 NA
ATOM      5  C   UNL     1       1.337   5.090  20.172  0.00  0.00    +0.000 C 
ATOM      6  C   UNL     1       0.605   3.757  20.003  0.00  0.00    +0.000 C 
ENDROOT
BRANCH   1   8
ATOM      7  N   UNL     1       1.006   2.348  22.516  0.00  0.00    +0.000 N 
ATOM      8  C   UNL     1       2.002   2.361  21.585  0.00  0.00    +0.000 C 
ATOM      9  O   UNL     1       3.169   2.240  21.939  0.00  0.00    +0.000 OA
ATOM     10  H   UNL     1       1.294   2.292  23.484  0.00  0.00    +0.000 HD
ATOM     11  H   UNL     1       0.074   2.684  22.317  0.00  0.00    +0.000 HD
ENDBRANCH   1   8
BRANCH   4  12
ATOM     12  C   UNL     1       3.148   6.516  19.527  0.00  0.00    +0.000 C 
BRANCH  12  13
ATOM     13  C   UNL     1       2.448   7.683  18.926  0.00  0.00    +0.000 A 
ATOM     14  C   UNL     1       2.454   8.136  17.621  0.00  0.00    +0.000 A 
ATOM     15  N   UNL     1       1.711   9.276  17.478  0.00  0.00    +0.000 NA
ATOM     16  C   UNL     1       1.234   9.527  18.678  0.00  0.00    +0.000 A 
ATOM     17  C   UNL     1       0.394  10.577  19.141  0.00  0.00    +0.000 A 
ATOM     18  C   UNL     1      -0.008  10.597  20.426  0.00  0.00    +0.000 A 
ATOM     19  C   UNL     1       0.405   9.562  21.367  0.00  0.00    +0.000 A 
ATOM     20 BR   UNL     1      -0.241   9.641  23.109  0.00  0.00    +0.000 Br
ATOM     21  C   UNL     1       1.227   8.587  20.941  0.00  0.00    +0.000 A 
ATOM     22  N   UNL     1       1.638   8.571  19.608  0.00  0.00    +0.000 N 
ENDBRANCH  12  13
ENDBRANCH   4  12
TORSDOF 3
ENDMDL
MODEL 7
REMARK VINA RESULT:      -6.8      5.235      7.204
REMARK  Name = 
REMARK  3 active torsions:
REMARK  status: ('A' for Active; 'I' for Inactive)
REMARK    1  A    between atoms: C_2  and  C_4
REMARK    2  A    between atoms: N_7  and  C_8
REMARK    3  A    between atoms: C_8  and  C_9
REMARK                            x       y       z     vdW  Elec       q    Type
REMARK                         _______ _______ _______ _____ _____    ______ ____
ROOT
ATOM      1  C   UNL     1       2.974   3.327  20.515  0.00  0.00    +0.000 C 
ATOM      2  C   UNL     1       2.925   4.841  20.308  0.00  0.00    +0.000 C 
ATOM      3  C   UNL     1       2.930   5.208  18.823  0.00  0.00    +0.000 C 
ATOM      4  N   UNL     1       4.107   4.659  18.131  0.00  0.00    +0.000 NA
ATOM      5  C   UNL     1       4.184   3.194  18.290  0.00  0.00    +0.000 C 
ATOM      6  C   UNL     1       4.176   2.760  19.757  0.00  0.00    +0.000 C 
ENDROOT
BRANCH   1   8
ATOM      7  N   UNL     1       0.528   3.221  20.568  0.00  0.00    +0.000 N 
ATOM      8  C   UNL     1       1.671   2.646  20.098  0.00  0.00    +0.000 C 
ATOM      9  O   UNL     1       1.605   1.635  19.409  0.00  0.00    +0.000 OA
ATOM     10  H   UNL     1      -0.337   2.739  20.364  0.00  0.00    +0.000 HD
ATOM     11  H   UNL     1       0.531   3.891  21.324  0.00  0.00    +0.000 HD
ENDBRANCH   1   8
BRANCH   4  12
ATOM     12  C   UNL     1       4.077   4.970  16.689  0.00  0.00    +0.000 C 
BRANCH  12  13
ATOM     13  C   UNL     1       5.424   5.177  16.094  0.00  0.00    +0.000 A 
ATOM     14  C   UNL     1       6.533   5.808  16.623  0.00  0.00    +0.000 A 
ATOM     15  N   UNL     1       7.576   5.826  15.738  0.00  0.00    +0.000 NA
ATOM     16  C   UNL     1       7.130   5.201  14.670  0.00  0.00    +0.000 A 
ATOM     17  C   UNL     1       7.766   4.910  13.431  0.00  0.00    +0.000 A 
ATOM     18  C   UNL     1       7.111   4.204  12.491  0.00  0.00    +0.000 A 
ATOM     19  C   UNL     1       5.749   3.729  12.709  0.00  0.00    +0.000 A 
ATOM     20 BR   UNL     1       4.941   2.715  11.375  0.00  0.00    +0.000 Br
ATOM     21  C   UNL     1       5.133   4.031  13.865  0.00  0.00    +0.000 A 
ATOM     22  N   UNL     1       5.817   4.762  14.836  0.00  0.00    +0.000 N 
ENDBRANCH  12  13
ENDBRANCH   4  12
TORSDOF 3
ENDMDL
MODEL 8
REMARK VINA RESULT:      -6.8      5.377      7.388
REMARK  Name = 
REMARK  3 active torsions:
REMARK  status: ('A' for Active; 'I' for Inactive)
REMARK    1  A    between atoms: C_2  and  C_4
REMARK    2  A    between atoms: N_7  and  C_8
REMARK    3  A    between atoms: C_8  and  C_9
REMARK                            x       y       z     vdW  Elec       q    Type
REMARK                         _______ _______ _______ _____ _____    ______ ____
ROOT
ATOM      1  C   UNL     1       1.986   4.691  20.144  0.00  0.00    +0.000 C 
ATOM      2  C   UNL     1       1.826   5.385  18.791  0.00  0.00    +0.000 C 
ATOM      3  C   UNL     1       2.530   4.611  17.674  0.00  0.00    +0.000 C 
ATOM      4  N   UNL     1       3.960   4.424  17.960  0.00  0.00    +0.000 NA
ATOM      5  C   UNL     1       4.161   3.739  19.252  0.00  0.00    +0.000 C 
ATOM      6  C   UNL     1       3.474   4.462  20.413  0.00  0.00    +0.000 C 
ENDROOT
BRANCH   1   8
ATOM      7  N   UNL     1       1.231   2.743  21.421  0.00  0.00    +0.000 N 
ATOM      8  C   UNL     1       1.191   3.388  20.221  0.00  0.00    +0.000 C 
ATOM      9  O   UNL     1       0.563   2.901  19.288  0.00  0.00    +0.000 OA
ATOM     10  H   UNL     1       0.774   1.842  21.464  0.00  0.00    +0.000 HD
ATOM     11  H   UNL     1       1.917   2.962  22.131  0.00  0.00    +0.000 HD
ENDBRANCH   1   8
BRANCH   4  12
ATOM     12  C   UNL     1       4.620   3.631  16.905  0.00  0.00    +0.000 C 
BRANCH  12  13
ATOM     13  C   UNL     1       5.744   4.340  16.237  0.00  0.00    +0.000 A 
ATOM     14  C   UNL     1       6.644   5.250  16.758  0.00  0.00    +0.000 A 
ATOM     15  N   UNL     1       7.507   5.710  15.802  0.00  0.00    +0.000 NA
ATOM     16  C   UNL     1       7.160   5.087  14.697  0.00  0.00    +0.000 A 
ATOM     17  C   UNL     1       7.699   5.159  13.382  0.00  0.00    +0.000 A 
ATOM     18  C   UNL     1       7.198   4.376  12.409  0.00  0.00    +0.000 A 
ATOM     19  C   UNL     1       6.102   3.449  12.668  0.00  0.00    +0.000 A 
ATOM     20 BR   UNL     1       5.509   2.368  11.276  0.00  0.00    +0.000 Br
ATOM     21  C   UNL     1       5.568   3.403  13.901  0.00  0.00    +0.000 A 
ATOM     22  N   UNL     1       6.092   4.216  14.906  0.00  0.00    +0.000 N 
ENDBRANCH  12  13
ENDBRANCH   4  12
TORSDOF 3
ENDMDL
MODEL 9
REMARK VINA RESULT:      -6.7      3.337      5.607
REMARK  Name = 
REMARK  3 active torsions:
REMARK  status: ('A' for Active; 'I' for Inactive)
REMARK    1  A    between atoms: C_2  and  C_4
REMARK    2  A    between atoms: N_7  and  C_8
REMARK    3  A    between atoms: C_8  and  C_9
REMARK                            x       y       z     vdW  Elec       q    Type
REMARK                         _______ _______ _______ _____ _____    ______ ____
ROOT
ATOM      1  C   UNL     1       7.515   5.866  17.847  0.00  0.00    +0.000 C 
ATOM      2  C   UNL     1       6.446   6.821  17.316  0.00  0.00    +0.000 C 
ATOM      3  C   UNL     1       5.080   6.140  17.218  0.00  0.00    +0.000 C 
ATOM      4  N   UNL     1       5.129   4.942  16.366  0.00  0.00    +0.000 NA
ATOM      5  C   UNL     1       6.137   3.981  16.854  0.00  0.00    +0.000 C 
ATOM      6  C   UNL     1       7.529   4.605  16.981  0.00  0.00    +0.000 C 
ENDROOT
BRANCH   1   8
ATOM      7  N   UNL     1       8.441   5.493  20.082  0.00  0.00    +0.000 N 
ATOM      8  C   UNL     1       7.309   5.533  19.324  0.00  0.00    +0.000 C 
ATOM      9  O   UNL     1       6.223   5.288  19.836  0.00  0.00    +0.000 OA
ATOM     10  H   UNL     1       8.329   5.199  21.044  0.00  0.00    +0.000 HD
ATOM     11  H   UNL     1       9.364   5.442  19.675  0.00  0.00    +0.000 HD
ENDBRANCH   1   8
BRANCH   4  12
ATOM     12  C   UNL     1       3.821   4.261  16.320  0.00  0.00    +0.000 C 
BRANCH  12  13
ATOM     13  C   UNL     1       3.489   3.519  17.565  0.00  0.00    +0.000 A 
ATOM     14  C   UNL     1       3.647   2.178  17.860  0.00  0.00    +0.000 A 
ATOM     15  N   UNL     1       3.177   1.876  19.108  0.00  0.00    +0.000 NA
ATOM     16  C   UNL     1       2.741   3.017  19.597  0.00  0.00    +0.000 A 
ATOM     17  C   UNL     1       2.149   3.323  20.853  0.00  0.00    +0.000 A 
ATOM     18  C   UNL     1       1.823   4.595  21.149  0.00  0.00    +0.000 A 
ATOM     19  C   UNL     1       2.059   5.679  20.201  0.00  0.00    +0.000 A 
ATOM     20 BR   UNL     1       1.626   7.413  20.715  0.00  0.00    +0.000 Br
ATOM     21  C   UNL     1       2.586   5.388  18.999  0.00  0.00    +0.000 A 
ATOM     22  N   UNL     1       2.923   4.068  18.699  0.00  0.00    +0.000 N 
ENDBRANCH  12  13
ENDBRANCH   4  12
TORSDOF 3
ENDMDL
