MODEL 1
REMARK VINA RESULT:      -8.2      0.000      0.000
REMARK  Name = 
REMARK  10 active torsions:
REMARK  status: ('A' for Active; 'I' for Inactive)
REMARK    1  A    between atoms: C_1  and  C_2
REMARK    2  A    between atoms: C_2  and  C_3
REMARK    3  A    between atoms: C_3  and  C_4
REMARK    4  A    between atoms: C_4  and  C_5
REMARK    5  A    between atoms: C_5  and  C_6
REMARK    6  A    between atoms: N_8  and  C_9
REMARK    7  A    between atoms: N_8  and  C_10
REMARK    8  A    between atoms: C_13  and  C_14
REMARK    9  A    between atoms: C_20  and  C_21
REMARK   10  A    between atoms: C_24  and  C_25
REMARK                            x       y       z     vdW  Elec       q    Type
REMARK                         _______ _______ _______ _____ _____    ______ ____
ROOT
ATOM      1  C   UNL     1       0.839  10.091  19.308  0.00  0.00    +0.000 C 
ATOM      2  C   UNL     1      -0.273  10.287  18.241  0.00  0.00    +0.000 C 
ATOM      3  C   UNL     1      -1.025  11.599  18.469  0.00  0.00    +0.000 C 
ATOM      4  C   UNL     1      -1.678  11.581  19.854  0.00  0.00    +0.000 C 
ATOM      5  C   UNL     1      -0.600  11.423  20.932  0.00  0.00    +0.000 C 
ATOM      6  C   UNL     1       0.392  12.587  20.845  0.00  0.00    +0.000 C 
ATOM      7  C   UNL     1       1.079  12.648  19.446  0.00  0.00    +0.000 C 
ATOM      8  C   UNL     1      -0.034  12.768  18.376  0.00  0.00    +0.000 C 
ATOM      9  C   UNL     1       1.815  11.293  19.228  0.00  0.00    +0.000 C 
ATOM     10  C   UNL     1       0.161  10.114  20.707  0.00  0.00    +0.000 C 
ENDROOT
BRANCH   1  14
ATOM     11  C   UNL     1       3.160   6.458  18.753  0.00  0.00    +0.000 A 
ATOM     12  C   UNL     1       2.432   6.646  19.924  0.00  0.00    +0.000 A 
ATOM     13  C   UNL     1       1.636   7.776  20.070  0.00  0.00    +0.000 A 
ATOM     14  C   UNL     1       1.597   8.781  19.088  0.00  0.00    +0.000 A 
ATOM     15  C   UNL     1       2.319   8.558  17.905  0.00  0.00    +0.000 A 
ATOM     16  C   UNL     1       3.086   7.405  17.737  0.00  0.00    +0.000 A 
BRANCH  11  19
ATOM     17  C   UNL     1       3.298   4.099  18.099  0.00  0.00    +0.000 C 
ATOM     18  O   UNL     1       3.879   3.014  17.997  0.00  0.00    +0.000 OA
ATOM     19  N   UNL     1       3.910   5.266  18.567  0.00  0.00    +0.000 N 
ATOM     20  C   UNL     1       5.290   5.310  19.051  0.00  0.00    +0.000 C 
BRANCH  17  21
ATOM     21  C   UNL     1       1.834   4.226  17.695  0.00  0.00    +0.000 C 
BRANCH  21  22
ATOM     22  C   UNL     1       0.994   3.174  18.400  0.00  0.00    +0.000 C 
BRANCH  22  23
ATOM     23  C   UNL     1       0.791   3.513  19.870  0.00  0.00    +0.000 C 
BRANCH  23  25
ATOM     24  C   UNL     1       2.287   3.246  21.860  0.00  0.00    +0.000 C 
ATOM     25  C   UNL     1       1.540   2.523  20.755  0.00  0.00    +0.000 C 
ENDBRANCH  23  25
ENDBRANCH  22  23
ENDBRANCH  21  22
ENDBRANCH  17  21
ENDBRANCH  11  19
ENDBRANCH   1  14
BRANCH   7  26
ATOM     26  C   UNL     1       2.024  13.858  19.354  0.00  0.00    +0.000 A 
ATOM     27  C   UNL     1       2.987  13.968  18.337  0.00  0.00    +0.000 A 
ATOM     28  C   UNL     1       3.964  14.966  18.367  0.00  0.00    +0.000 A 
ATOM     29  C   UNL     1       3.941  15.937  19.364  0.00  0.00    +0.000 A 
ATOM     30  C   UNL     1       2.942  15.897  20.340  0.00  0.00    +0.000 A 
ATOM     31  C   UNL     1       1.994  14.868  20.333  0.00  0.00    +0.000 A 
BRANCH  29  32
ATOM     32  C   UNL     1       4.918  16.970  19.368  0.00  0.00    +0.000 C 
ATOM     33  N   UNL     1       5.725  17.823  19.394  0.00  0.00    +0.000 NA
ENDBRANCH  29  32
ENDBRANCH   7  26
TORSDOF 8
ENDMDL
MODEL 2
REMARK VINA RESULT:      -7.9      2.875      4.905
REMARK  Name = 
REMARK  10 active torsions:
REMARK  status: ('A' for Active; 'I' for Inactive)
REMARK    1  A    between atoms: C_1  and  C_2
REMARK    2  A    between atoms: C_2  and  C_3
REMARK    3  A    between atoms: C_3  and  C_4
REMARK    4  A    between atoms: C_4  and  C_5
REMARK    5  A    between atoms: C_5  and  C_6
REMARK    6  A    between atoms: N_8  and  C_9
REMARK    7  A    between atoms: N_8  and  C_10
REMARK    8  A    between atoms: C_13  and  C_14
REMARK    9  A    between atoms: C_20  and  C_21
REMARK   10  A    between atoms: C_24  and  C_25
REMARK                            x       y       z     vdW  Elec       q    Type
REMARK                         _______ _______ _______ _____ _____    ______ ____
ROOT
ATOM      1  C   UNL     1       1.070  10.204  19.522  0.00  0.00    +0.000 C 
ATOM      2  C   UNL     1       1.061  10.362  21.067  0.00  0.00    +0.000 C 
ATOM      3  C   UNL     1       0.425  11.691  21.479  0.00  0.00    +0.000 C 
ATOM      4  C   UNL     1       1.226  12.849  20.876  0.00  0.00    +0.000 C 
ATOM      5  C   UNL     1       1.224  12.740  19.348  0.00  0.00    +0.000 C 
ATOM      6  C   UNL     1      -0.217  12.785  18.829  0.00  0.00    +0.000 C 
ATOM      7  C   UNL     1      -1.073  11.624  19.422  0.00  0.00    +0.000 C 
ATOM      8  C   UNL     1      -1.021  11.736  20.965  0.00  0.00    +0.000 C 
ATOM      9  C   UNL     1      -0.392  10.284  19.011  0.00  0.00    +0.000 C 
ATOM     10  C   UNL     1       1.854  11.410  18.929  0.00  0.00    +0.000 C 
ENDROOT
BRANCH   1  14
ATOM     11  C   UNL     1       3.053   6.510  18.377  0.00  0.00    +0.000 A 
ATOM     12  C   UNL     1       2.512   6.643  19.651  0.00  0.00    +0.000 A 
ATOM     13  C   UNL     1       1.819   7.798  19.993  0.00  0.00    +0.000 A 
ATOM     14  C   UNL     1       1.704   8.878  19.101  0.00  0.00    +0.000 A 
ATOM     15  C   UNL     1       2.236   8.712  17.812  0.00  0.00    +0.000 A 
ATOM     16  C   UNL     1       2.896   7.539  17.452  0.00  0.00    +0.000 A 
BRANCH  11  19
ATOM     17  C   UNL     1       2.946   4.147  17.734  0.00  0.00    +0.000 C 
ATOM     18  O   UNL     1       3.449   3.047  17.482  0.00  0.00    +0.000 OA
ATOM     19  N   UNL     1       3.693   5.299  17.998  0.00  0.00    +0.000 N 
ATOM     20  C   UNL     1       5.154   5.310  18.073  0.00  0.00    +0.000 C 
BRANCH  17  21
ATOM     21  C   UNL     1       1.431   4.310  17.757  0.00  0.00    +0.000 C 
BRANCH  21  22
ATOM     22  C   UNL     1       0.783   3.154  18.503  0.00  0.00    +0.000 C 
BRANCH  22  23
ATOM     23  C   UNL     1       0.597   3.477  19.979  0.00  0.00    +0.000 C 
BRANCH  23  25
ATOM     24  C   UNL     1       2.357   3.577  21.757  0.00  0.00    +0.000 C 
ATOM     25  C   UNL     1       1.571   2.669  20.829  0.00  0.00    +0.000 C 
ENDBRANCH  23  25
ENDBRANCH  22  23
ENDBRANCH  21  22
ENDBRANCH  17  21
ENDBRANCH  11  19
ENDBRANCH   1  14
BRANCH   7  26
ATOM     26  C   UNL     1      -2.531  11.719  18.941  0.00  0.00    +0.000 A 
ATOM     27  C   UNL     1      -2.911  11.321  17.649  0.00  0.00    +0.000 A 
ATOM     28  C   UNL     1      -4.190  11.586  17.153  0.00  0.00    +0.000 A 
ATOM     29  C   UNL     1      -5.150  12.171  17.974  0.00  0.00    +0.000 A 
ATOM     30  C   UNL     1      -4.820  12.500  19.291  0.00  0.00    +0.000 A 
ATOM     31  C   UNL     1      -3.523  12.277  19.768  0.00  0.00    +0.000 A 
BRANCH  29  32
ATOM     32  C   UNL     1      -6.460  12.405  17.475  0.00  0.00    +0.000 C 
ATOM     33  N   UNL     1      -7.534  12.606  17.042  0.00  0.00    +0.000 NA
ENDBRANCH  29  32
ENDBRANCH   7  26
TORSDOF 8
ENDMDL
MODEL 3
REMARK VINA RESULT:      -7.9      0.684      1.369
REMARK  Name = 
REMARK  10 active torsions:
REMARK  status: ('A' for Active; 'I' for Inactive)
REMARK    1  A    between atoms: C_1  and  C_2
REMARK    2  A    between atoms: C_2  and  C_3
REMARK    3  A    between atoms: C_3  and  C_4
REMARK    4  A    between atoms: C_4  and  C_5
REMARK    5  A    between atoms: C_5  and  C_6
REMARK    6  A    between atoms: N_8  and  C_9
REMARK    7  A    between atoms: N_8  and  C_10
REMARK    8  A    between atoms: C_13  and  C_14
REMARK    9  A    between atoms: C_20  and  C_21
REMARK   10  A    between atoms: C_24  and  C_25
REMARK                            x       y       z     vdW  Elec       q    Type
REMARK                         _______ _______ _______ _____ _____    ______ ____
ROOT
ATOM      1  C   UNL     1       0.780  10.049  19.331  0.00  0.00    +0.000 C 
ATOM      2  C   UNL     1      -0.180  10.309  18.137  0.00  0.00    +0.000 C 
ATOM      3  C   UNL     1      -1.058  11.534  18.397  0.00  0.00    +0.000 C 
ATOM      4  C   UNL     1      -1.899  11.302  19.655  0.00  0.00    +0.000 C 
ATOM      5  C   UNL     1      -0.978  11.076  20.859  0.00  0.00    +0.000 C 
ATOM      6  C   UNL     1      -0.080  12.301  21.059  0.00  0.00    +0.000 C 
ATOM      7  C   UNL     1       0.794  12.579  19.797  0.00  0.00    +0.000 C 
ATOM      8  C   UNL     1      -0.159  12.763  18.591  0.00  0.00    +0.000 C 
ATOM      9  C   UNL     1       1.659  11.309  19.539  0.00  0.00    +0.000 C 
ATOM     10  C   UNL     1      -0.092   9.855  20.604  0.00  0.00    +0.000 C 
ENDROOT
BRANCH   1  14
ATOM     11  C   UNL     1       3.124   6.473  18.551  0.00  0.00    +0.000 A 
ATOM     12  C   UNL     1       3.051   7.479  17.593  0.00  0.00    +0.000 A 
ATOM     13  C   UNL     1       2.358   8.651  17.872  0.00  0.00    +0.000 A 
ATOM     14  C   UNL     1       1.662   8.825  19.080  0.00  0.00    +0.000 A 
ATOM     15  C   UNL     1       1.770   7.808  20.041  0.00  0.00    +0.000 A 
ATOM     16  C   UNL     1       2.499   6.648  19.782  0.00  0.00    +0.000 A 
BRANCH  11  19
ATOM     17  C   UNL     1       3.284   4.095  17.976  0.00  0.00    +0.000 C 
ATOM     18  O   UNL     1       3.898   3.033  17.830  0.00  0.00    +0.000 OA
ATOM     19  N   UNL     1       3.899   5.308  18.301  0.00  0.00    +0.000 N 
ATOM     20  C   UNL     1       5.331   5.435  18.571  0.00  0.00    +0.000 C 
BRANCH  17  21
ATOM     21  C   UNL     1       1.772   4.139  17.790  0.00  0.00    +0.000 C 
BRANCH  21  22
ATOM     22  C   UNL     1       1.109   3.000  18.548  0.00  0.00    +0.000 C 
BRANCH  22  23
ATOM     23  C   UNL     1       0.580   3.461  19.899  0.00  0.00    +0.000 C 
BRANCH  23  25
ATOM     24  C   UNL     1       2.383   3.593  21.632  0.00  0.00    +0.000 C 
ATOM     25  C   UNL     1       1.292   2.727  21.030  0.00  0.00    +0.000 C 
ENDBRANCH  23  25
ENDBRANCH  22  23
ENDBRANCH  21  22
ENDBRANCH  17  21
ENDBRANCH  11  19
ENDBRANCH   1  14
BRANCH   7  26
ATOM     26  C   UNL     1       1.644  13.846  19.989  0.00  0.00    +0.000 A 
ATOM     27  C   UNL     1       1.709  14.513  21.223  0.00  0.00    +0.000 A 
ATOM     28  C   UNL     1       2.323  15.761  21.343  0.00  0.00    +0.000 A 
ATOM     29  C   UNL     1       2.972  16.329  20.250  0.00  0.00    +0.000 A 
ATOM     30  C   UNL     1       2.992  15.645  19.032  0.00  0.00    +0.000 A 
ATOM     31  C   UNL     1       2.335  14.417  18.904  0.00  0.00    +0.000 A 
BRANCH  29  32
ATOM     32  C   UNL     1       3.626  17.584  20.389  0.00  0.00    +0.000 C 
ATOM     33  N   UNL     1       4.148  18.631  20.495  0.00  0.00    +0.000 NA
ENDBRANCH  29  32
ENDBRANCH   7  26
TORSDOF 8
ENDMDL
MODEL 4
REMARK VINA RESULT:      -7.7      3.145      5.683
REMARK  Name = 
REMARK  10 active torsions:
REMARK  status: ('A' for Active; 'I' for Inactive)
REMARK    1  A    between atoms: C_1  and  C_2
REMARK    2  A    between atoms: C_2  and  C_3
REMARK    3  A    between atoms: C_3  and  C_4
REMARK    4  A    between atoms: C_4  and  C_5
REMARK    5  A    between atoms: C_5  and  C_6
REMARK    6  A    between atoms: N_8  and  C_9
REMARK    7  A    between atoms: N_8  and  C_10
REMARK    8  A    between atoms: C_13  and  C_14
REMARK    9  A    between atoms: C_20  and  C_21
REMARK   10  A    between atoms: C_24  and  C_25
REMARK                            x       y       z     vdW  Elec       q    Type
REMARK                         _______ _______ _______ _____ _____    ______ ____
ROOT
ATOM      1  C   UNL     1       0.937  10.272  19.579  0.00  0.00    +0.000 C 
ATOM      2  C   UNL     1       1.224  10.816  21.005  0.00  0.00    +0.000 C 
ATOM      3  C   UNL     1       0.750  12.263  21.147  0.00  0.00    +0.000 C 
ATOM      4  C   UNL     1       1.485  13.144  20.133  0.00  0.00    +0.000 C 
ATOM      5  C   UNL     1       1.193  12.653  18.711  0.00  0.00    +0.000 C 
ATOM      6  C   UNL     1      -0.315  12.711  18.445  0.00  0.00    +0.000 C 
ATOM      7  C   UNL     1      -1.108  11.830  19.460  0.00  0.00    +0.000 C 
ATOM      8  C   UNL     1      -0.762  12.322  20.886  0.00  0.00    +0.000 C 
ATOM      9  C   UNL     1      -0.588  10.368  19.314  0.00  0.00    +0.000 C 
ATOM     10  C   UNL     1       1.660  11.203  18.564  0.00  0.00    +0.000 C 
ENDROOT
BRANCH   1  14
ATOM     11  C   UNL     1       2.467   6.223  19.188  0.00  0.00    +0.000 A 
ATOM     12  C   UNL     1       1.958   6.660  20.407  0.00  0.00    +0.000 A 
ATOM     13  C   UNL     1       1.407   7.931  20.511  0.00  0.00    +0.000 A 
ATOM     14  C   UNL     1       1.409   8.826  19.428  0.00  0.00    +0.000 A 
ATOM     15  C   UNL     1       1.904   8.355  18.201  0.00  0.00    +0.000 A 
ATOM     16  C   UNL     1       2.420   7.066  18.081  0.00  0.00    +0.000 A 
BRANCH  11  19
ATOM     17  C   UNL     1       4.323   4.652  18.875  0.00  0.00    +0.000 C 
ATOM     18  O   UNL     1       4.797   3.530  18.671  0.00  0.00    +0.000 OA
ATOM     19  N   UNL     1       2.958   4.897  19.056  0.00  0.00    +0.000 N 
ATOM     20  C   UNL     1       1.936   3.854  18.956  0.00  0.00    +0.000 C 
BRANCH  17  21
ATOM     21  C   UNL     1       5.237   5.869  18.951  0.00  0.00    +0.000 C 
BRANCH  21  22
ATOM     22  C   UNL     1       6.648   5.451  19.334  0.00  0.00    +0.000 C 
BRANCH  22  23
ATOM     23  C   UNL     1       7.655   5.840  18.260  0.00  0.00    +0.000 C 
BRANCH  23  25
ATOM     24  C   UNL     1       7.954   8.272  17.742  0.00  0.00    +0.000 C 
ATOM     25  C   UNL     1       7.140   7.025  17.450  0.00  0.00    +0.000 C 
ENDBRANCH  23  25
ENDBRANCH  22  23
ENDBRANCH  21  22
ENDBRANCH  17  21
ENDBRANCH  11  19
ENDBRANCH   1  14
BRANCH   7  26
ATOM     26  C   UNL     1      -2.622  11.948  19.219  0.00  0.00    +0.000 A 
ATOM     27  C   UNL     1      -3.223  11.473  18.041  0.00  0.00    +0.000 A 
ATOM     28  C   UNL     1      -4.558  11.751  17.744  0.00  0.00    +0.000 A 
ATOM     29  C   UNL     1      -5.352  12.431  18.664  0.00  0.00    +0.000 A 
ATOM     30  C   UNL     1      -4.798  12.840  19.879  0.00  0.00    +0.000 A 
ATOM     31  C   UNL     1      -3.447  12.601  20.152  0.00  0.00    +0.000 A 
BRANCH  29  32
ATOM     32  C   UNL     1      -6.721  12.680  18.370  0.00  0.00    +0.000 C 
ATOM     33  N   UNL     1      -7.857  12.870  18.142  0.00  0.00    +0.000 NA
ENDBRANCH  29  32
ENDBRANCH   7  26
TORSDOF 8
ENDMDL
MODEL 5
REMARK VINA RESULT:      -7.6      4.034      8.937
REMARK  Name = 
REMARK  10 active torsions:
REMARK  status: ('A' for Active; 'I' for Inactive)
REMARK    1  A    between atoms: C_1  and  C_2
REMARK    2  A    between atoms: C_2  and  C_3
REMARK    3  A    between atoms: C_3  and  C_4
REMARK    4  A    between atoms: C_4  and  C_5
REMARK    5  A    between atoms: C_5  and  C_6
REMARK    6  A    between atoms: N_8  and  C_9
REMARK    7  A    between atoms: N_8  and  C_10
REMARK    8  A    between atoms: C_13  and  C_14
REMARK    9  A    between atoms: C_20  and  C_21
REMARK   10  A    between atoms: C_24  and  C_25
REMARK                            x       y       z     vdW  Elec       q    Type
REMARK                         _______ _______ _______ _____ _____    ______ ____
ROOT
ATOM      1  C   UNL     1       2.405   5.416  19.347  0.00  0.00    +0.000 C 
ATOM      2  C   UNL     1       3.102   4.698  20.536  0.00  0.00    +0.000 C 
ATOM      3  C   UNL     1       3.684   3.353  20.099  0.00  0.00    +0.000 C 
ATOM      4  C   UNL     1       2.559   2.453  19.579  0.00  0.00    +0.000 C 
ATOM      5  C   UNL     1       1.874   3.121  18.381  0.00  0.00    +0.000 C 
ATOM      6  C   UNL     1       2.899   3.360  17.267  0.00  0.00    +0.000 C 
ATOM      7  C   UNL     1       4.069   4.269  17.754  0.00  0.00    +0.000 C 
ATOM      8  C   UNL     1       4.716   3.591  18.987  0.00  0.00    +0.000 C 
ATOM      9  C   UNL     1       3.448   5.621  18.217  0.00  0.00    +0.000 C 
ATOM     10  C   UNL     1       1.294   4.470  18.811  0.00  0.00    +0.000 C 
ENDROOT
BRANCH   1  14
ATOM     11  C   UNL     1       0.579   9.203  20.448  0.00  0.00    +0.000 A 
ATOM     12  C   UNL     1       0.403   8.085  21.257  0.00  0.00    +0.000 A 
ATOM     13  C   UNL     1       1.044   6.893  20.940  0.00  0.00    +0.000 A 
ATOM     14  C   UNL     1       1.820   6.762  19.775  0.00  0.00    +0.000 A 
ATOM     15  C   UNL     1       2.004   7.909  18.988  0.00  0.00    +0.000 A 
ATOM     16  C   UNL     1       1.397   9.118  19.325  0.00  0.00    +0.000 A 
BRANCH  11  19
ATOM     17  C   UNL     1      -0.635  11.248  19.855  0.00  0.00    +0.000 C 
ATOM     18  O   UNL     1      -1.089  12.372  20.095  0.00  0.00    +0.000 OA
ATOM     19  N   UNL     1      -0.009  10.444  20.812  0.00  0.00    +0.000 N 
ATOM     20  C   UNL     1       0.237  10.877  22.188  0.00  0.00    +0.000 C 
BRANCH  17  21
ATOM     21  C   UNL     1      -0.750  10.658  18.455  0.00  0.00    +0.000 C 
BRANCH  21  22
ATOM     22  C   UNL     1      -2.197  10.318  18.137  0.00  0.00    +0.000 C 
BRANCH  22  23
ATOM     23  C   UNL     1      -2.339   9.731  16.740  0.00  0.00    +0.000 C 
BRANCH  23  25
ATOM     24  C   UNL     1      -3.124  10.176  14.404  0.00  0.00    +0.000 C 
ATOM     25  C   UNL     1      -2.862  10.784  15.769  0.00  0.00    +0.000 C 
ENDBRANCH  23  25
ENDBRANCH  22  23
ENDBRANCH  21  22
ENDBRANCH  17  21
ENDBRANCH  11  19
ENDBRANCH   1  14
BRANCH   7  26
ATOM     26  C   UNL     1       5.119   4.449  16.645  0.00  0.00    +0.000 A 
ATOM     27  C   UNL     1       6.377   5.019  16.903  0.00  0.00    +0.000 A 
ATOM     28  C   UNL     1       7.249   5.354  15.866  0.00  0.00    +0.000 A 
ATOM     29  C   UNL     1       6.924   5.037  14.549  0.00  0.00    +0.000 A 
ATOM     30  C   UNL     1       5.714   4.393  14.276  0.00  0.00    +0.000 A 
ATOM     31  C   UNL     1       4.822   4.103  15.314  0.00  0.00    +0.000 A 
BRANCH  29  32
ATOM     32  C   UNL     1       7.833   5.349  13.501  0.00  0.00    +0.000 C 
ATOM     33  N   UNL     1       8.581   5.585  12.628  0.00  0.00    +0.000 NA
ENDBRANCH  29  32
ENDBRANCH   7  26
TORSDOF 8
ENDMDL
MODEL 6
REMARK VINA RESULT:      -7.6      1.219      3.026
REMARK  Name = 
REMARK  10 active torsions:
REMARK  status: ('A' for Active; 'I' for Inactive)
REMARK    1  A    between atoms: C_1  and  C_2
REMARK    2  A    between atoms: C_2  and  C_3
REMARK    3  A    between atoms: C_3  and  C_4
REMARK    4  A    between atoms: C_4  and  C_5
REMARK    5  A    between atoms: C_5  and  C_6
REMARK    6  A    between atoms: N_8  and  C_9
REMARK    7  A    between atoms: N_8  and  C_10
REMARK    8  A    between atoms: C_13  and  C_14
REMARK    9  A    between atoms: C_20  and  C_21
REMARK   10  A    between atoms: C_24  and  C_25
REMARK                            x       y       z     vdW  Elec       q    Type
REMARK                         _______ _______ _______ _____ _____    ______ ____
ROOT
ATOM      1  C   UNL     1       0.871  10.099  19.440  0.00  0.00    +0.000 C 
ATOM      2  C   UNL     1      -0.351  10.346  18.513  0.00  0.00    +0.000 C 
ATOM      3  C   UNL     1      -1.002  11.696  18.811  0.00  0.00    +0.000 C 
ATOM      4  C   UNL     1      -1.483  11.722  20.265  0.00  0.00    +0.000 C 
ATOM      5  C   UNL     1      -0.292  11.516  21.208  0.00  0.00    +0.000 C 
ATOM      6  C   UNL     1       0.740  12.628  20.986  0.00  0.00    +0.000 C 
ATOM      7  C   UNL     1       1.255  12.642  19.514  0.00  0.00    +0.000 C 
ATOM      8  C   UNL     1       0.028  12.811  18.584  0.00  0.00    +0.000 C 
ATOM      9  C   UNL     1       1.890  11.249  19.227  0.00  0.00    +0.000 C 
ATOM     10  C   UNL     1       0.369  10.169  20.911  0.00  0.00    +0.000 C 
ENDROOT
BRANCH   1  14
ATOM     11  C   UNL     1       2.557   6.185  18.588  0.00  0.00    +0.000 A 
ATOM     12  C   UNL     1       2.414   7.118  17.566  0.00  0.00    +0.000 A 
ATOM     13  C   UNL     1       1.939   8.393  17.854  0.00  0.00    +0.000 A 
ATOM     14  C   UNL     1       1.529   8.750  19.149  0.00  0.00    +0.000 A 
ATOM     15  C   UNL     1       1.705   7.801  20.169  0.00  0.00    +0.000 A 
ATOM     16  C   UNL     1       2.220   6.536  19.892  0.00  0.00    +0.000 A 
BRANCH  11  19
ATOM     17  C   UNL     1       4.502   4.738  18.225  0.00  0.00    +0.000 C 
ATOM     18  O   UNL     1       5.043   3.674  17.907  0.00  0.00    +0.000 OA
ATOM     19  N   UNL     1       3.117   4.909  18.312  0.00  0.00    +0.000 N 
ATOM     20  C   UNL     1       2.156   3.861  17.967  0.00  0.00    +0.000 C 
BRANCH  17  21
ATOM     21  C   UNL     1       5.350   5.959  18.562  0.00  0.00    +0.000 C 
BRANCH  21  22
ATOM     22  C   UNL     1       6.623   5.541  19.281  0.00  0.00    +0.000 C 
BRANCH  22  23
ATOM     23  C   UNL     1       7.841   6.262  18.723  0.00  0.00    +0.000 C 
BRANCH  23  25
ATOM     24  C   UNL     1       8.104   8.577  17.805  0.00  0.00    +0.000 C 
ATOM     25  C   UNL     1       7.429   7.231  17.620  0.00  0.00    +0.000 C 
ENDBRANCH  23  25
ENDBRANCH  22  23
ENDBRANCH  21  22
ENDBRANCH  17  21
ENDBRANCH  11  19
ENDBRANCH   1  14
BRANCH   7  26
ATOM     26  C   UNL     1       2.242  13.801  19.292  0.00  0.00    +0.000 A 
ATOM     27  C   UNL     1       3.126  13.820  18.200  0.00  0.00    +0.000 A 
ATOM     28  C   UNL     1       4.145  14.770  18.108  0.00  0.00    +0.000 A 
ATOM     29  C   UNL     1       4.243  15.784  19.057  0.00  0.00    +0.000 A 
ATOM     30  C   UNL     1       3.323  15.835  20.107  0.00  0.00    +0.000 A 
ATOM     31  C   UNL     1       2.333  14.852  20.222  0.00  0.00    +0.000 A 
BRANCH  29  32
ATOM     32  C   UNL     1       5.261  16.769  18.936  0.00  0.00    +0.000 C 
ATOM     33  N   UNL     1       6.116  17.568  18.827  0.00  0.00    +0.000 NA
ENDBRANCH  29  32
ENDBRANCH   7  26
TORSDOF 8
ENDMDL
MODEL 7
REMARK VINA RESULT:      -7.6      3.646      8.945
REMARK  Name = 
REMARK  10 active torsions:
REMARK  status: ('A' for Active; 'I' for Inactive)
REMARK    1  A    between atoms: C_1  and  C_2
REMARK    2  A    between atoms: C_2  and  C_3
REMARK    3  A    between atoms: C_3  and  C_4
REMARK    4  A    between atoms: C_4  and  C_5
REMARK    5  A    between atoms: C_5  and  C_6
REMARK    6  A    between atoms: N_8  and  C_9
REMARK    7  A    between atoms: N_8  and  C_10
REMARK    8  A    between atoms: C_13  and  C_14
REMARK    9  A    between atoms: C_20  and  C_21
REMARK   10  A    between atoms: C_24  and  C_25
REMARK                            x       y       z     vdW  Elec       q    Type
REMARK                         _______ _______ _______ _____ _____    ______ ____
ROOT
ATOM      1  C   UNL     1       2.477   5.946  19.039  0.00  0.00    +0.000 C 
ATOM      2  C   UNL     1       3.179   5.373  20.301  0.00  0.00    +0.000 C 
ATOM      3  C   UNL     1       3.763   3.987  20.022  0.00  0.00    +0.000 C 
ATOM      4  C   UNL     1       2.639   3.031  19.613  0.00  0.00    +0.000 C 
ATOM      5  C   UNL     1       1.949   3.553  18.348  0.00  0.00    +0.000 C 
ATOM      6  C   UNL     1       2.971   3.663  17.211  0.00  0.00    +0.000 C 
ATOM      7  C   UNL     1       4.140   4.625  17.586  0.00  0.00    +0.000 C 
ATOM      8  C   UNL     1       4.791   4.096  18.888  0.00  0.00    +0.000 C 
ATOM      9  C   UNL     1       3.517   6.020  17.890  0.00  0.00    +0.000 C 
ATOM     10  C   UNL     1       1.367   4.942  18.619  0.00  0.00    +0.000 C 
ENDROOT
BRANCH   1  14
ATOM     11  C   UNL     1       0.989   9.944  19.870  0.00  0.00    +0.000 A 
ATOM     12  C   UNL     1       1.426   9.617  18.591  0.00  0.00    +0.000 A 
ATOM     13  C   UNL     1       1.836   8.319  18.310  0.00  0.00    +0.000 A 
ATOM     14  C   UNL     1       1.890   7.332  19.309  0.00  0.00    +0.000 A 
ATOM     15  C   UNL     1       1.421   7.678  20.586  0.00  0.00    +0.000 A 
ATOM     16  C   UNL     1       0.969   8.968  20.861  0.00  0.00    +0.000 A 
BRANCH  11  19
ATOM     17  C   UNL     1      -0.777  11.636  19.704  0.00  0.00    +0.000 C 
ATOM     18  O   UNL     1      -1.227  12.779  19.835  0.00  0.00    +0.000 OA
ATOM     19  N   UNL     1       0.493  11.248  20.141  0.00  0.00    +0.000 N 
ATOM     20  C   UNL     1       1.453  12.174  20.741  0.00  0.00    +0.000 C 
BRANCH  17  21
ATOM     21  C   UNL     1      -1.619  10.551  19.044  0.00  0.00    +0.000 C 
BRANCH  21  22
ATOM     22  C   UNL     1      -1.893  10.900  17.590  0.00  0.00    +0.000 C 
BRANCH  22  23
ATOM     23  C   UNL     1      -2.760   9.845  16.917  0.00  0.00    +0.000 C 
BRANCH  23  25
ATOM     24  C   UNL     1      -2.987  10.070  14.434  0.00  0.00    +0.000 C 
ATOM     25  C   UNL     1      -3.567  10.463  15.780  0.00  0.00    +0.000 C 
ENDBRANCH  23  25
ENDBRANCH  22  23
ENDBRANCH  21  22
ENDBRANCH  17  21
ENDBRANCH  11  19
ENDBRANCH   1  14
BRANCH   7  26
ATOM     26  C   UNL     1       5.187   4.676  16.461  0.00  0.00    +0.000 A 
ATOM     27  C   UNL     1       6.404   5.363  16.614  0.00  0.00    +0.000 A 
ATOM     28  C   UNL     1       7.263   5.568  15.533  0.00  0.00    +0.000 A 
ATOM     29  C   UNL     1       6.971   5.007  14.292  0.00  0.00    +0.000 A 
ATOM     30  C   UNL     1       5.808   4.249  14.137  0.00  0.00    +0.000 A 
ATOM     31  C   UNL     1       4.926   4.086  15.211  0.00  0.00    +0.000 A 
BRANCH  29  32
ATOM     32  C   UNL     1       7.869   5.189  13.205  0.00  0.00    +0.000 C 
ATOM     33  N   UNL     1       8.602   5.361  12.303  0.00  0.00    +0.000 NA
ENDBRANCH  29  32
ENDBRANCH   7  26
TORSDOF 8
ENDMDL
MODEL 8
REMARK VINA RESULT:      -7.5      3.214      5.602
REMARK  Name = 
REMARK  10 active torsions:
REMARK  status: ('A' for Active; 'I' for Inactive)
REMARK    1  A    between atoms: C_1  and  C_2
REMARK    2  A    between atoms: C_2  and  C_3
REMARK    3  A    between atoms: C_3  and  C_4
REMARK    4  A    between atoms: C_4  and  C_5
REMARK    5  A    between atoms: C_5  and  C_6
REMARK    6  A    between atoms: N_8  and  C_9
REMARK    7  A    between atoms: N_8  and  C_10
REMARK    8  A    between atoms: C_13  and  C_14
REMARK    9  A    between atoms: C_20  and  C_21
REMARK   10  A    between atoms: C_24  and  C_25
REMARK                            x       y       z     vdW  Elec       q    Type
REMARK                         _______ _______ _______ _____ _____    ______ ____
ROOT
ATOM      1  C   UNL     1       0.933  10.373  19.561  0.00  0.00    +0.000 C 
ATOM      2  C   UNL     1       1.230  10.905  20.991  0.00  0.00    +0.000 C 
ATOM      3  C   UNL     1       0.741  12.344  21.153  0.00  0.00    +0.000 C 
ATOM      4  C   UNL     1       1.455  13.245  20.141  0.00  0.00    +0.000 C 
ATOM      5  C   UNL     1       1.151  12.765  18.717  0.00  0.00    +0.000 C 
ATOM      6  C   UNL     1      -0.360  12.809  18.469  0.00  0.00    +0.000 C 
ATOM      7  C   UNL     1      -1.130  11.907  19.482  0.00  0.00    +0.000 C 
ATOM      8  C   UNL     1      -0.774  12.389  20.910  0.00  0.00    +0.000 C 
ATOM      9  C   UNL     1      -0.596  10.454  19.315  0.00  0.00    +0.000 C 
ATOM     10  C   UNL     1       1.634  11.323  18.549  0.00  0.00    +0.000 C 
ENDROOT
BRANCH   1  14
ATOM     11  C   UNL     1       2.507   6.348  19.098  0.00  0.00    +0.000 A 
ATOM     12  C   UNL     1       2.073   6.786  20.345  0.00  0.00    +0.000 A 
ATOM     13  C   UNL     1       1.507   8.049  20.478  0.00  0.00    +0.000 A 
ATOM     14  C   UNL     1       1.420   8.934  19.390  0.00  0.00    +0.000 A 
ATOM     15  C   UNL     1       1.840   8.462  18.136  0.00  0.00    +0.000 A 
ATOM     16  C   UNL     1       2.370   7.181  17.991  0.00  0.00    +0.000 A 
BRANCH  11  19
ATOM     17  C   UNL     1       4.345   4.810  18.586  0.00  0.00    +0.000 C 
ATOM     18  O   UNL     1       4.818   3.693  18.356  0.00  0.00    +0.000 OA
ATOM     19  N   UNL     1       3.012   5.029  18.943  0.00  0.00    +0.000 N 
ATOM     20  C   UNL     1       2.014   3.961  19.017  0.00  0.00    +0.000 C 
BRANCH  17  21
ATOM     21  C   UNL     1       5.228   6.049  18.498  0.00  0.00    +0.000 C 
BRANCH  21  22
ATOM     22  C   UNL     1       6.117   5.984  17.267  0.00  0.00    +0.000 C 
BRANCH  22  23
ATOM     23  C   UNL     1       5.344   6.325  16.001  0.00  0.00    +0.000 C 
BRANCH  23  25
ATOM     24  C   UNL     1       6.687   4.327  15.313  0.00  0.00    +0.000 C 
ATOM     25  C   UNL     1       5.521   5.230  14.956  0.00  0.00    +0.000 C 
ENDBRANCH  23  25
ENDBRANCH  22  23
ENDBRANCH  21  22
ENDBRANCH  17  21
ENDBRANCH  11  19
ENDBRANCH   1  14
BRANCH   7  26
ATOM     26  C   UNL     1      -2.649  12.010  19.260  0.00  0.00    +0.000 A 
ATOM     27  C   UNL     1      -3.262  11.507  18.101  0.00  0.00    +0.000 A 
ATOM     28  C   UNL     1      -4.604  11.770  17.816  0.00  0.00    +0.000 A 
ATOM     29  C   UNL     1      -5.390  12.463  18.733  0.00  0.00    +0.000 A 
ATOM     30  C   UNL     1      -4.822  12.902  19.932  0.00  0.00    +0.000 A 
ATOM     31  C   UNL     1      -3.466  12.678  20.191  0.00  0.00    +0.000 A 
BRANCH  29  32
ATOM     32  C   UNL     1      -6.764  12.697  18.453  0.00  0.00    +0.000 C 
ATOM     33  N   UNL     1      -7.899  12.908  18.234  0.00  0.00    +0.000 NA
ENDBRANCH  29  32
ENDBRANCH   7  26
TORSDOF 8
ENDMDL
MODEL 9
REMARK VINA RESULT:      -7.5      3.010      5.580
REMARK  Name = 
REMARK  10 active torsions:
REMARK  status: ('A' for Active; 'I' for Inactive)
REMARK    1  A    between atoms: C_1  and  C_2
REMARK    2  A    between atoms: C_2  and  C_3
REMARK    3  A    between atoms: C_3  and  C_4
REMARK    4  A    between atoms: C_4  and  C_5
REMARK    5  A    between atoms: C_5  and  C_6
REMARK    6  A    between atoms: N_8  and  C_9
REMARK    7  A    between atoms: N_8  and  C_10
REMARK    8  A    between atoms: C_13  and  C_14
REMARK    9  A    between atoms: C_20  and  C_21
REMARK   10  A    between atoms: C_24  and  C_25
REMARK                            x       y       z     vdW  Elec       q    Type
REMARK                         _______ _______ _______ _____ _____    ______ ____
ROOT
ATOM      1  C   UNL     1       1.111  10.178  19.549  0.00  0.00    +0.000 C 
ATOM      2  C   UNL     1       1.429  10.722  20.969  0.00  0.00    +0.000 C 
ATOM      3  C   UNL     1       1.038  12.195  21.091  0.00  0.00    +0.000 C 
ATOM      4  C   UNL     1       1.824  13.020  20.068  0.00  0.00    +0.000 C 
ATOM      5  C   UNL     1       1.504  12.529  18.652  0.00  0.00    +0.000 C 
ATOM      6  C   UNL     1       0.001  12.670  18.384  0.00  0.00    +0.000 C 
ATOM      7  C   UNL     1      -0.840  11.849  19.408  0.00  0.00    +0.000 C 
ATOM      8  C   UNL     1      -0.468  12.338  20.829  0.00  0.00    +0.000 C 
ATOM      9  C   UNL     1      -0.406  10.358  19.281  0.00  0.00    +0.000 C 
ATOM     10  C   UNL     1       1.887  11.053  18.524  0.00  0.00    +0.000 C 
ENDROOT
BRANCH   1  14
ATOM     11  C   UNL     1       2.407   6.044  19.204  0.00  0.00    +0.000 A 
ATOM     12  C   UNL     1       1.958   6.532  20.427  0.00  0.00    +0.000 A 
ATOM     13  C   UNL     1       1.480   7.834  20.519  0.00  0.00    +0.000 A 
ATOM     14  C   UNL     1       1.499   8.705  19.416  0.00  0.00    +0.000 A 
ATOM     15  C   UNL     1       1.933   8.183  18.187  0.00  0.00    +0.000 A 
ATOM     16  C   UNL     1       2.374   6.865  18.081  0.00  0.00    +0.000 A 
BRANCH  11  19
ATOM     17  C   UNL     1       4.178   4.358  19.025  0.00  0.00    +0.000 C 
ATOM     18  O   UNL     1       4.595   3.210  18.841  0.00  0.00    +0.000 OA
ATOM     19  N   UNL     1       2.821   4.690  19.088  0.00  0.00    +0.000 N 
ATOM     20  C   UNL     1       1.747   3.719  18.873  0.00  0.00    +0.000 C 
BRANCH  17  21
ATOM     21  C   UNL     1       5.158   5.510  19.211  0.00  0.00    +0.000 C 
BRANCH  21  22
ATOM     22  C   UNL     1       6.165   5.542  18.072  0.00  0.00    +0.000 C 
BRANCH  22  23
ATOM     23  C   UNL     1       5.940   6.742  17.163  0.00  0.00    +0.000 C 
BRANCH  23  25
ATOM     24  C   UNL     1       5.536   4.874  15.546  0.00  0.00    +0.000 C 
ATOM     25  C   UNL     1       5.221   6.318  15.887  0.00  0.00    +0.000 C 
ENDBRANCH  23  25
ENDBRANCH  22  23
ENDBRANCH  21  22
ENDBRANCH  17  21
ENDBRANCH  11  19
ENDBRANCH   1  14
BRANCH   7  26
ATOM     26  C   UNL     1      -2.345  12.050  19.164  0.00  0.00    +0.000 A 
ATOM     27  C   UNL     1      -3.168  12.691  20.106  0.00  0.00    +0.000 A 
ATOM     28  C   UNL     1      -4.557  12.701  19.969  0.00  0.00    +0.000 A 
ATOM     29  C   UNL     1      -5.152  12.155  18.835  0.00  0.00    +0.000 A 
ATOM     30  C   UNL     1      -4.348  11.586  17.844  0.00  0.00    +0.000 A 
ATOM     31  C   UNL     1      -2.960  11.534  18.009  0.00  0.00    +0.000 A 
BRANCH  29  32
ATOM     32  C   UNL     1      -6.565  12.201  18.686  0.00  0.00    +0.000 C 
ATOM     33  N   UNL     1      -7.731  12.259  18.551  0.00  0.00    +0.000 NA
ENDBRANCH  29  32
ENDBRANCH   7  26
TORSDOF 8
ENDMDL
