MODEL 1
REMARK VINA RESULT:      -8.5      0.000      0.000
REMARK  Name = 
REMARK  7 active torsions:
REMARK  status: ('A' for Active; 'I' for Inactive)
REMARK    1  A    between atoms: C_1  and  C_2
REMARK    2  A    between atoms: C_2  and  C_3
REMARK    3  A    between atoms: N_5  and  C_6
REMARK    4  A    between atoms: C_9  and  N_10
REMARK    5  A    between atoms: C_13  and  N_14
REMARK    6  A    between atoms: N_14  and  C_15
REMARK    7  A    between atoms: C_21  and  C_22
REMARK                            x       y       z     vdW  Elec       q    Type
REMARK                         _______ _______ _______ _____ _____    ______ ____
ROOT
ATOM      1  N   UNL     1      -1.160  12.422  22.662  0.00  0.00    +0.000 N 
ATOM      2  C   UNL     1      -2.408  12.966  22.868  0.00  0.00    +0.000 A 
ATOM      3  C   UNL     1      -2.527  14.093  23.852  0.00  0.00    +0.000 A 
ATOM      4  C   UNL     1      -3.751  14.575  24.135  0.00  0.00    +0.000 A 
ATOM      5  N   UNL     1      -4.849  14.040  23.420  0.00  0.00    +0.000 N 
ATOM      6  N   UNL     1      -6.167  14.386  23.540  0.00  0.00    +0.000 NA
ATOM      7  C   UNL     1      -6.789  13.640  22.621  0.00  0.00    +0.000 A 
ATOM      8  C   UNL     1      -5.910  12.801  21.910  0.00  0.00    +0.000 A 
ATOM      9  C   UNL     1      -4.668  13.037  22.466  0.00  0.00    +0.000 A 
ATOM     10  N   UNL     1      -3.438  12.485  22.222  0.00  0.00    +0.000 NA
ATOM     11  H   UNL     1      -0.354  13.019  22.805  0.00  0.00    +0.000 HD
ENDROOT
BRANCH   8  12
ATOM     12  C   UNL     1      -6.242  11.889  20.858  0.00  0.00    +0.000 C 
ATOM     13  C   UNL     1      -6.453  12.196  19.571  0.00  0.00    +0.000 C 
ATOM     14  N   UNL     1      -6.409  13.429  18.987  0.00  0.00    +0.000 N 
ATOM     15  C   UNL     1      -6.637  13.326  17.632  0.00  0.00    +0.000 C 
ATOM     16  O   UNL     1      -6.586  14.235  16.821  0.00  0.00    +0.000 OA
ATOM     17  N   UNL     1      -6.893  12.008  17.357  0.00  0.00    +0.000 N 
ATOM     18  C   UNL     1      -6.773  11.231  18.476  0.00  0.00    +0.000 C 
ATOM     19  O   UNL     1      -6.868  10.022  18.563  0.00  0.00    +0.000 OA
ATOM     20  H   UNL     1      -6.098  14.272  19.457  0.00  0.00    +0.000 HD
ATOM     21  H   UNL     1      -7.059  11.656  16.430  0.00  0.00    +0.000 HD
ENDBRANCH   8  12
BRANCH   1  25
ATOM     22  C   UNL     1       1.001   8.830  21.636  0.00  0.00    +0.000 C 
ATOM     23  C   UNL     1       0.548   9.774  20.514  0.00  0.00    +0.000 C 
ATOM     24  C   UNL     1       0.190  11.162  21.057  0.00  0.00    +0.000 C 
ATOM     25  C   UNL     1      -0.905  11.087  22.134  0.00  0.00    +0.000 C 
ATOM     26  C   UNL     1      -0.436  10.153  23.262  0.00  0.00    +0.000 C 
ATOM     27  C   UNL     1      -0.058   8.765  22.742  0.00  0.00    +0.000 C 
BRANCH  22  30
ATOM     28  C   UNL     1       1.965   7.287  19.944  0.00  0.00    +0.000 C 
ATOM     29  O   UNL     1       2.353   8.182  19.203  0.00  0.00    +0.000 OA
ATOM     30  N   UNL     1       1.297   7.494  21.130  0.00  0.00    +0.000 N 
ATOM     31  H   UNL     1       0.941   6.685  21.623  0.00  0.00    +0.000 HD
BRANCH  28  33
ATOM     32  C   UNL     1       1.491   4.816  20.417  0.00  0.00    +0.000 C 
ATOM     33  C   UNL     1       2.256   5.847  19.617  0.00  0.00    +0.000 C 
ATOM     34  C   UNL     1       3.697   5.494  19.269  0.00  0.00    +0.000 C 
ATOM     35  C   UNL     1       2.651   5.469  18.197  0.00  0.00    +0.000 C 
ENDBRANCH  28  33
ENDBRANCH  22  30
ENDBRANCH   1  25
BRANCH   4  36
ATOM     36  N   UNL     1      -4.027  15.575  25.073  0.00  0.00    +0.000 N 
ATOM     37  H   UNL     1      -3.470  15.421  25.921  0.00  0.00    +0.000 HD
BRANCH  36  38
ATOM     38  C   UNL     1      -4.160  16.964  24.622  0.00  0.00    +0.000 C 
ATOM     39  C   UNL     1      -5.029  17.950  25.350  0.00  0.00    +0.000 C 
ATOM     40  C   UNL     1      -3.535  18.061  25.437  0.00  0.00    +0.000 C 
ENDBRANCH  36  38
ENDBRANCH   4  36
TORSDOF 6
ENDMDL
MODEL 2
REMARK VINA RESULT:      -8.1      4.142      5.609
REMARK  Name = 
REMARK  7 active torsions:
REMARK  status: ('A' for Active; 'I' for Inactive)
REMARK    1  A    between atoms: C_1  and  C_2
REMARK    2  A    between atoms: C_2  and  C_3
REMARK    3  A    between atoms: N_5  and  C_6
REMARK    4  A    between atoms: C_9  and  N_10
REMARK    5  A    between atoms: C_13  and  N_14
REMARK    6  A    between atoms: N_14  and  C_15
REMARK    7  A    between atoms: C_21  and  C_22
REMARK                            x       y       z     vdW  Elec       q    Type
REMARK                         _______ _______ _______ _____ _____    ______ ____
ROOT
ATOM      1  N   UNL     1       0.328  10.076  19.431  0.00  0.00    +0.000 N 
ATOM      2  C   UNL     1      -0.866  10.609  19.002  0.00  0.00    +0.000 A 
ATOM      3  C   UNL     1      -1.661  11.423  19.982  0.00  0.00    +0.000 A 
ATOM      4  C   UNL     1      -2.873  11.874  19.610  0.00  0.00    +0.000 A 
ATOM      5  N   UNL     1      -3.291  11.620  18.282  0.00  0.00    +0.000 N 
ATOM      6  N   UNL     1      -4.469  11.991  17.695  0.00  0.00    +0.000 NA
ATOM      7  C   UNL     1      -4.358  11.565  16.433  0.00  0.00    +0.000 A 
ATOM      8  C   UNL     1      -3.138  10.909  16.181  0.00  0.00    +0.000 A 
ATOM      9  C   UNL     1      -2.477  10.913  17.394  0.00  0.00    +0.000 A 
ATOM     10  N   UNL     1      -1.275  10.384  17.781  0.00  0.00    +0.000 NA
ATOM     11  H   UNL     1       0.829  10.564  20.164  0.00  0.00    +0.000 HD
ENDROOT
BRANCH   8  12
ATOM     12  C   UNL     1      -2.695  10.345  14.942  0.00  0.00    +0.000 C 
ATOM     13  C   UNL     1      -3.457  10.041  13.884  0.00  0.00    +0.000 C 
ATOM     14  N   UNL     1      -4.809  10.189  13.756  0.00  0.00    +0.000 N 
ATOM     15  C   UNL     1      -5.217   9.805  12.497  0.00  0.00    +0.000 C 
ATOM     16  O   UNL     1      -6.346   9.891  12.048  0.00  0.00    +0.000 OA
ATOM     17  N   UNL     1      -4.112   9.343  11.830  0.00  0.00    +0.000 N 
ATOM     18  C   UNL     1      -2.979   9.476  12.586  0.00  0.00    +0.000 C 
ATOM     19  O   UNL     1      -1.832   9.228  12.268  0.00  0.00    +0.000 OA
ATOM     20  H   UNL     1      -5.398  10.660  14.435  0.00  0.00    +0.000 HD
ATOM     21  H   UNL     1      -4.129   9.033  10.874  0.00  0.00    +0.000 HD
ENDBRANCH   8  12
BRANCH   1  25
ATOM     22  C   UNL     1       3.510   7.373  18.336  0.00  0.00    +0.000 C 
ATOM     23  C   UNL     1       2.871   8.251  17.251  0.00  0.00    +0.000 C 
ATOM     24  C   UNL     1       2.087   9.418  17.862  0.00  0.00    +0.000 C 
ATOM     25  C   UNL     1       0.998   8.928  18.830  0.00  0.00    +0.000 C 
ATOM     26  C   UNL     1       1.648   8.064  19.923  0.00  0.00    +0.000 C 
ATOM     27  C   UNL     1       2.449   6.900  19.337  0.00  0.00    +0.000 C 
BRANCH  22  30
ATOM     28  C   UNL     1       5.453   6.356  17.169  0.00  0.00    +0.000 C 
ATOM     29  O   UNL     1       6.062   7.413  17.052  0.00  0.00    +0.000 OA
ATOM     30  N   UNL     1       4.216   6.233  17.761  0.00  0.00    +0.000 N 
ATOM     31  H   UNL     1       3.760   5.331  17.726  0.00  0.00    +0.000 HD
BRANCH  28  33
ATOM     32  C   UNL     1       7.356   4.658  17.385  0.00  0.00    +0.000 C 
ATOM     33  C   UNL     1       6.070   5.065  16.702  0.00  0.00    +0.000 C 
ATOM     34  C   UNL     1       5.968   4.748  15.215  0.00  0.00    +0.000 C 
ATOM     35  C   UNL     1       5.169   3.947  16.198  0.00  0.00    +0.000 C 
ENDBRANCH  28  33
ENDBRANCH  22  30
ENDBRANCH   1  25
BRANCH   4  36
ATOM     36  N   UNL     1      -3.754  12.588  20.429  0.00  0.00    +0.000 N 
ATOM     37  H   UNL     1      -4.724  12.361  20.179  0.00  0.00    +0.000 HD
BRANCH  36  38
ATOM     38  C   UNL     1      -3.461  12.713  21.860  0.00  0.00    +0.000 C 
ATOM     39  C   UNL     1      -3.328  14.054  22.524  0.00  0.00    +0.000 C 
ATOM     40  C   UNL     1      -4.537  13.206  22.787  0.00  0.00    +0.000 C 
ENDBRANCH  36  38
ENDBRANCH   4  36
TORSDOF 6
ENDMDL
MODEL 3
REMARK VINA RESULT:      -7.9      1.829      2.185
REMARK  Name = 
REMARK  7 active torsions:
REMARK  status: ('A' for Active; 'I' for Inactive)
REMARK    1  A    between atoms: C_1  and  C_2
REMARK    2  A    between atoms: C_2  and  C_3
REMARK    3  A    between atoms: N_5  and  C_6
REMARK    4  A    between atoms: C_9  and  N_10
REMARK    5  A    between atoms: C_13  and  N_14
REMARK    6  A    between atoms: N_14  and  C_15
REMARK    7  A    between atoms: C_21  and  C_22
REMARK                            x       y       z     vdW  Elec       q    Type
REMARK                         _______ _______ _______ _____ _____    ______ ____
ROOT
ATOM      1  N   UNL     1      -0.951  11.827  22.846  0.00  0.00    +0.000 N 
ATOM      2  C   UNL     1      -2.160  12.478  22.759  0.00  0.00    +0.000 A 
ATOM      3  C   UNL     1      -2.546  13.392  23.885  0.00  0.00    +0.000 A 
ATOM      4  C   UNL     1      -3.764  13.965  23.861  0.00  0.00    +0.000 A 
ATOM      5  N   UNL     1      -4.578  13.732  22.727  0.00  0.00    +0.000 N 
ATOM      6  N   UNL     1      -5.835  14.218  22.491  0.00  0.00    +0.000 NA
ATOM      7  C   UNL     1      -6.143  13.759  21.275  0.00  0.00    +0.000 A 
ATOM      8  C   UNL     1      -5.122  12.969  20.711  0.00  0.00    +0.000 A 
ATOM      9  C   UNL     1      -4.136  12.924  21.677  0.00  0.00    +0.000 A 
ATOM     10  N   UNL     1      -2.931  12.276  21.722  0.00  0.00    +0.000 NA
ATOM     11  H   UNL     1      -0.210  12.271  23.376  0.00  0.00    +0.000 HD
ENDROOT
BRANCH   8  12
ATOM     12  C   UNL     1      -5.123  12.338  19.427  0.00  0.00    +0.000 C 
ATOM     13  C   UNL     1      -4.060  12.120  18.642  0.00  0.00    +0.000 C 
ATOM     14  N   UNL     1      -2.758  12.457  18.883  0.00  0.00    +0.000 N 
ATOM     15  C   UNL     1      -1.951  12.022  17.855  0.00  0.00    +0.000 C 
ATOM     16  O   UNL     1      -0.736  12.099  17.810  0.00  0.00    +0.000 OA
ATOM     17  N   UNL     1      -2.762  11.452  16.909  0.00  0.00    +0.000 N 
ATOM     18  C   UNL     1      -4.069  11.436  17.314  0.00  0.00    +0.000 C 
ATOM     19  O   UNL     1      -5.024  10.946  16.744  0.00  0.00    +0.000 OA
ATOM     20  H   UNL     1      -2.420  12.831  19.764  0.00  0.00    +0.000 HD
ATOM     21  H   UNL     1      -2.418  11.021  16.068  0.00  0.00    +0.000 HD
ENDBRANCH   8  12
BRANCH   1  25
ATOM     22  C   UNL     1       1.482   8.698  21.139  0.00  0.00    +0.000 C 
ATOM     23  C   UNL     1       0.764   9.678  20.202  0.00  0.00    +0.000 C 
ATOM     24  C   UNL     1       0.313  10.939  20.948  0.00  0.00    +0.000 C 
ATOM     25  C   UNL     1      -0.605  10.602  22.135  0.00  0.00    +0.000 C 
ATOM     26  C   UNL     1       0.129   9.632  23.077  0.00  0.00    +0.000 C 
ATOM     27  C   UNL     1       0.602   8.372  22.351  0.00  0.00    +0.000 C 
BRANCH  22  30
ATOM     28  C   UNL     1       2.333   7.480  19.147  0.00  0.00    +0.000 C 
ATOM     29  O   UNL     1       2.444   8.486  18.456  0.00  0.00    +0.000 OA
ATOM     30  N   UNL     1       1.871   7.475  20.444  0.00  0.00    +0.000 N 
ATOM     31  H   UNL     1       1.732   6.580  20.896  0.00  0.00    +0.000 HD
BRANCH  28  33
ATOM     32  C   UNL     1       4.156   6.074  18.028  0.00  0.00    +0.000 C 
ATOM     33  C   UNL     1       2.764   6.139  18.616  0.00  0.00    +0.000 C 
ATOM     34  C   UNL     1       1.701   5.295  17.924  0.00  0.00    +0.000 C 
ATOM     35  C   UNL     1       2.225   4.872  19.262  0.00  0.00    +0.000 C 
ENDBRANCH  28  33
ENDBRANCH  22  30
ENDBRANCH   1  25
BRANCH   4  36
ATOM     36  N   UNL     1      -4.289  14.785  24.864  0.00  0.00    +0.000 N 
ATOM     37  H   UNL     1      -4.345  14.264  25.748  0.00  0.00    +0.000 HD
BRANCH  36  38
ATOM     38  C   UNL     1      -3.845  16.180  24.956  0.00  0.00    +0.000 C 
ATOM     39  C   UNL     1      -4.024  17.141  23.815  0.00  0.00    +0.000 C 
ATOM     40  C   UNL     1      -4.875  17.271  25.043  0.00  0.00    +0.000 C 
ENDBRANCH  36  38
ENDBRANCH   4  36
TORSDOF 6
ENDMDL
MODEL 4
REMARK VINA RESULT:      -7.9      1.367      1.623
REMARK  Name = 
REMARK  7 active torsions:
REMARK  status: ('A' for Active; 'I' for Inactive)
REMARK    1  A    between atoms: C_1  and  C_2
REMARK    2  A    between atoms: C_2  and  C_3
REMARK    3  A    between atoms: N_5  and  C_6
REMARK    4  A    between atoms: C_9  and  N_10
REMARK    5  A    between atoms: C_13  and  N_14
REMARK    6  A    between atoms: N_14  and  C_15
REMARK    7  A    between atoms: C_21  and  C_22
REMARK                            x       y       z     vdW  Elec       q    Type
REMARK                         _______ _______ _______ _____ _____    ______ ____
ROOT
ATOM      1  N   UNL     1      -0.199  12.147  21.690  0.00  0.00    +0.000 N 
ATOM      2  C   UNL     1      -1.352  12.827  22.010  0.00  0.00    +0.000 A 
ATOM      3  C   UNL     1      -1.234  14.017  22.917  0.00  0.00    +0.000 A 
ATOM      4  C   UNL     1      -2.359  14.638  23.315  0.00  0.00    +0.000 A 
ATOM      5  N   UNL     1      -3.587  14.176  22.784  0.00  0.00    +0.000 N 
ATOM      6  N   UNL     1      -4.840  14.662  23.042  0.00  0.00    +0.000 NA
ATOM      7  C   UNL     1      -5.644  13.930  22.265  0.00  0.00    +0.000 A 
ATOM      8  C   UNL     1      -4.949  12.964  21.513  0.00  0.00    +0.000 A 
ATOM      9  C   UNL     1      -3.628  13.105  21.890  0.00  0.00    +0.000 A 
ATOM     10  N   UNL     1      -2.499  12.417  21.535  0.00  0.00    +0.000 NA
ATOM     11  H   UNL     1       0.672  12.665  21.687  0.00  0.00    +0.000 HD
ENDROOT
BRANCH   8  12
ATOM     12  C   UNL     1      -5.501  12.030  20.579  0.00  0.00    +0.000 C 
ATOM     13  C   UNL     1      -5.955  12.302  19.349  0.00  0.00    +0.000 C 
ATOM     14  N   UNL     1      -6.002  13.515  18.723  0.00  0.00    +0.000 N 
ATOM     15  C   UNL     1      -6.495  13.378  17.444  0.00  0.00    +0.000 C 
ATOM     16  O   UNL     1      -6.587  14.259  16.608  0.00  0.00    +0.000 OA
ATOM     17  N   UNL     1      -6.827  12.059  17.272  0.00  0.00    +0.000 N 
ATOM     18  C   UNL     1      -6.505  11.314  18.373  0.00  0.00    +0.000 C 
ATOM     19  O   UNL     1      -6.605  10.111  18.519  0.00  0.00    +0.000 OA
ATOM     20  H   UNL     1      -5.587  14.364  19.094  0.00  0.00    +0.000 HD
ATOM     21  H   UNL     1      -7.180  11.683  16.409  0.00  0.00    +0.000 HD
ENDBRANCH   8  12
BRANCH   1  25
ATOM     22  C   UNL     1       1.446   8.270  20.748  0.00  0.00    +0.000 C 
ATOM     23  C   UNL     1       1.021   9.197  19.602  0.00  0.00    +0.000 C 
ATOM     24  C   UNL     1       0.869  10.646  20.079  0.00  0.00    +0.000 C 
ATOM     25  C   UNL     1      -0.141  10.764  21.232  0.00  0.00    +0.000 C 
ATOM     26  C   UNL     1       0.301   9.844  22.383  0.00  0.00    +0.000 C 
ATOM     27  C   UNL     1       0.475   8.394  21.927  0.00  0.00    +0.000 C 
BRANCH  22  30
ATOM     28  C   UNL     1       2.468   6.468  19.376  0.00  0.00    +0.000 C 
ATOM     29  O   UNL     1       3.269   7.210  18.819  0.00  0.00    +0.000 OA
ATOM     30  N   UNL     1       1.545   6.881  20.309  0.00  0.00    +0.000 N 
ATOM     31  H   UNL     1       0.870   6.205  20.642  0.00  0.00    +0.000 HD
BRANCH  28  33
ATOM     32  C   UNL     1       3.824   4.301  19.238  0.00  0.00    +0.000 C 
ATOM     33  C   UNL     1       2.483   4.988  19.103  0.00  0.00    +0.000 C 
ATOM     34  C   UNL     1       1.578   4.482  17.986  0.00  0.00    +0.000 C 
ATOM     35  C   UNL     1       1.245   4.160  19.411  0.00  0.00    +0.000 C 
ENDBRANCH  28  33
ENDBRANCH  22  30
ENDBRANCH   1  25
BRANCH   4  36
ATOM     36  N   UNL     1      -2.415  15.715  24.205  0.00  0.00    +0.000 N 
ATOM     37  H   UNL     1      -3.248  15.633  24.801  0.00  0.00    +0.000 HD
BRANCH  36  38
ATOM     38  C   UNL     1      -1.184  16.167  24.863  0.00  0.00    +0.000 C 
ATOM     39  C   UNL     1      -1.142  17.428  25.679  0.00  0.00    +0.000 C 
ATOM     40  C   UNL     1      -1.085  16.092  26.360  0.00  0.00    +0.000 C 
ENDBRANCH  36  38
ENDBRANCH   4  36
TORSDOF 6
ENDMDL
MODEL 5
REMARK VINA RESULT:      -7.9      3.014      3.764
REMARK  Name = 
REMARK  7 active torsions:
REMARK  status: ('A' for Active; 'I' for Inactive)
REMARK    1  A    between atoms: C_1  and  C_2
REMARK    2  A    between atoms: C_2  and  C_3
REMARK    3  A    between atoms: N_5  and  C_6
REMARK    4  A    between atoms: C_9  and  N_10
REMARK    5  A    between atoms: C_13  and  N_14
REMARK    6  A    between atoms: N_14  and  C_15
REMARK    7  A    between atoms: C_21  and  C_22
REMARK                            x       y       z     vdW  Elec       q    Type
REMARK                         _______ _______ _______ _____ _____    ______ ____
ROOT
ATOM      1  N   UNL     1       1.131  11.684  19.754  0.00  0.00    +0.000 N 
ATOM      2  C   UNL     1       0.214  12.658  20.077  0.00  0.00    +0.000 A 
ATOM      3  C   UNL     1       0.738  13.994  20.516  0.00  0.00    +0.000 A 
ATOM      4  C   UNL     1      -0.141  14.928  20.923  0.00  0.00    +0.000 A 
ATOM      5  N   UNL     1      -1.519  14.617  20.836  0.00  0.00    +0.000 N 
ATOM      6  N   UNL     1      -2.576  15.414  21.183  0.00  0.00    +0.000 NA
ATOM      7  C   UNL     1      -3.653  14.691  20.864  0.00  0.00    +0.000 A 
ATOM      8  C   UNL     1      -3.329  13.430  20.328  0.00  0.00    +0.000 A 
ATOM      9  C   UNL     1      -1.948  13.379  20.356  0.00  0.00    +0.000 A 
ATOM     10  N   UNL     1      -1.065  12.392  20.008  0.00  0.00    +0.000 NA
ATOM     11  H   UNL     1       2.035  11.980  19.405  0.00  0.00    +0.000 HD
ENDROOT
BRANCH   8  12
ATOM     12  C   UNL     1      -4.236  12.420  19.875  0.00  0.00    +0.000 C 
ATOM     13  C   UNL     1      -4.253  11.844  18.666  0.00  0.00    +0.000 C 
ATOM     14  N   UNL     1      -3.427  12.095  17.608  0.00  0.00    +0.000 N 
ATOM     15  C   UNL     1      -3.733  11.264  16.552  0.00  0.00    +0.000 C 
ATOM     16  O   UNL     1      -3.130  11.188  15.496  0.00  0.00    +0.000 OA
ATOM     17  N   UNL     1      -4.817  10.511  16.924  0.00  0.00    +0.000 N 
ATOM     18  C   UNL     1      -5.190  10.772  18.214  0.00  0.00    +0.000 C 
ATOM     19  O   UNL     1      -6.062  10.232  18.865  0.00  0.00    +0.000 OA
ATOM     20  H   UNL     1      -2.610  12.695  17.652  0.00  0.00    +0.000 HD
ATOM     21  H   UNL     1      -5.221   9.796  16.344  0.00  0.00    +0.000 HD
ENDBRANCH   8  12
BRANCH   1  25
ATOM     22  C   UNL     1       1.816   7.451  20.243  0.00  0.00    +0.000 C 
ATOM     23  C   UNL     1       1.665   8.023  18.827  0.00  0.00    +0.000 C 
ATOM     24  C   UNL     1       1.854   9.544  18.813  0.00  0.00    +0.000 C 
ATOM     25  C   UNL     1       0.866  10.250  19.756  0.00  0.00    +0.000 C 
ATOM     26  C   UNL     1       1.035   9.682  21.176  0.00  0.00    +0.000 C 
ATOM     27  C   UNL     1       0.866   8.163  21.213  0.00  0.00    +0.000 C 
BRANCH  22  30
ATOM     28  C   UNL     1       2.606   5.101  20.080  0.00  0.00    +0.000 C 
ATOM     29  O   UNL     1       3.772   5.403  19.858  0.00  0.00    +0.000 OA
ATOM     30  N   UNL     1       1.589   6.009  20.269  0.00  0.00    +0.000 N 
ATOM     31  H   UNL     1       0.646   5.655  20.357  0.00  0.00    +0.000 HD
BRANCH  28  33
ATOM     32  C   UNL     1       1.016   3.213  19.402  0.00  0.00    +0.000 C 
ATOM     33  C   UNL     1       2.207   3.656  20.221  0.00  0.00    +0.000 C 
ATOM     34  C   UNL     1       2.341   3.034  21.605  0.00  0.00    +0.000 C 
ATOM     35  C   UNL     1       3.275   2.612  20.512  0.00  0.00    +0.000 C 
ENDBRANCH  28  33
ENDBRANCH  22  30
ENDBRANCH   1  25
BRANCH   4  36
ATOM     36  N   UNL     1       0.197  16.192  21.418  0.00  0.00    +0.000 N 
ATOM     37  H   UNL     1       0.792  16.094  22.249  0.00  0.00    +0.000 HD
BRANCH  36  38
ATOM     38  C   UNL     1       0.559  17.257  20.477  0.00  0.00    +0.000 C 
ATOM     39  C   UNL     1      -0.130  17.406  19.150  0.00  0.00    +0.000 C 
ATOM     40  C   UNL     1      -0.401  18.390  20.249  0.00  0.00    +0.000 C 
ENDBRANCH  36  38
ENDBRANCH   4  36
TORSDOF 6
ENDMDL
MODEL 6
REMARK VINA RESULT:      -7.9      4.150      5.723
REMARK  Name = 
REMARK  7 active torsions:
REMARK  status: ('A' for Active; 'I' for Inactive)
REMARK    1  A    between atoms: C_1  and  C_2
REMARK    2  A    between atoms: C_2  and  C_3
REMARK    3  A    between atoms: N_5  and  C_6
REMARK    4  A    between atoms: C_9  and  N_10
REMARK    5  A    between atoms: C_13  and  N_14
REMARK    6  A    between atoms: N_14  and  C_15
REMARK    7  A    between atoms: C_21  and  C_22
REMARK                            x       y       z     vdW  Elec       q    Type
REMARK                         _______ _______ _______ _____ _____    ______ ____
ROOT
ATOM      1  N   UNL     1       2.434  10.802  18.118  0.00  0.00    +0.000 N 
ATOM      2  C   UNL     1       1.805  11.953  18.535  0.00  0.00    +0.000 A 
ATOM      3  C   UNL     1       2.647  13.180  18.729  0.00  0.00    +0.000 A 
ATOM      4  C   UNL     1       2.066  14.288  19.224  0.00  0.00    +0.000 A 
ATOM      5  N   UNL     1       0.670  14.251  19.457  0.00  0.00    +0.000 N 
ATOM      6  N   UNL     1      -0.119  15.257  19.943  0.00  0.00    +0.000 NA
ATOM      7  C   UNL     1      -1.354  14.745  19.926  0.00  0.00    +0.000 A 
ATOM      8  C   UNL     1      -1.392  13.420  19.452  0.00  0.00    +0.000 A 
ATOM      9  C   UNL     1      -0.073  13.099  19.194  0.00  0.00    +0.000 A 
ATOM     10  N   UNL     1       0.517  11.942  18.761  0.00  0.00    +0.000 NA
ATOM     11  H   UNL     1       3.275  10.897  17.561  0.00  0.00    +0.000 HD
ENDROOT
BRANCH   8  12
ATOM     12  C   UNL     1      -2.545  12.587  19.294  0.00  0.00    +0.000 C 
ATOM     13  C   UNL     1      -2.892  11.900  18.198  0.00  0.00    +0.000 C 
ATOM     14  N   UNL     1      -2.238  11.849  17.001  0.00  0.00    +0.000 N 
ATOM     15  C   UNL     1      -2.885  10.994  16.136  0.00  0.00    +0.000 C 
ATOM     16  O   UNL     1      -2.510  10.675  15.022  0.00  0.00    +0.000 OA
ATOM     17  N   UNL     1      -4.010  10.539  16.774  0.00  0.00    +0.000 N 
ATOM     18  C   UNL     1      -4.085  11.013  18.055  0.00  0.00    +0.000 C 
ATOM     19  O   UNL     1      -4.914  10.749  18.904  0.00  0.00    +0.000 OA
ATOM     20  H   UNL     1      -1.325  12.259  16.831  0.00  0.00    +0.000 HD
ATOM     21  H   UNL     1      -4.644   9.869  16.373  0.00  0.00    +0.000 HD
ENDBRANCH   8  12
BRANCH   1  25
ATOM     22  C   UNL     1       2.277   6.685  19.403  0.00  0.00    +0.000 C 
ATOM     23  C   UNL     1       2.438   6.994  17.909  0.00  0.00    +0.000 C 
ATOM     24  C   UNL     1       2.894   8.439  17.680  0.00  0.00    +0.000 C 
ATOM     25  C   UNL     1       1.921   9.450  18.308  0.00  0.00    +0.000 C 
ATOM     26  C   UNL     1       1.778   9.145  19.808  0.00  0.00    +0.000 C 
ATOM     27  C   UNL     1       1.338   7.702  20.063  0.00  0.00    +0.000 C 
BRANCH  22  30
ATOM     28  C   UNL     1       2.651   4.262  19.803  0.00  0.00    +0.000 C 
ATOM     29  O   UNL     1       3.873   4.345  19.778  0.00  0.00    +0.000 OA
ATOM     30  N   UNL     1       1.796   5.325  19.624  0.00  0.00    +0.000 N 
ATOM     31  H   UNL     1       0.803   5.134  19.574  0.00  0.00    +0.000 HD
BRANCH  28  33
ATOM     32  C   UNL     1       1.921   2.546  21.557  0.00  0.00    +0.000 C 
ATOM     33  C   UNL     1       1.983   2.946  20.100  0.00  0.00    +0.000 C 
ATOM     34  C   UNL     1       2.206   1.818  19.101  0.00  0.00    +0.000 C 
ATOM     35  C   UNL     1       0.857   2.461  19.199  0.00  0.00    +0.000 C 
ENDBRANCH  28  33
ENDBRANCH  22  30
ENDBRANCH   1  25
BRANCH   4  36
ATOM     36  N   UNL     1       2.729  15.484  19.518  0.00  0.00    +0.000 N 
ATOM     37  H   UNL     1       3.195  15.410  20.430  0.00  0.00    +0.000 HD
BRANCH  36  38
ATOM     38  C   UNL     1       3.474  16.171  18.458  0.00  0.00    +0.000 C 
ATOM     39  C   UNL     1       3.314  15.796  17.012  0.00  0.00    +0.000 C 
ATOM     40  C   UNL     1       2.737  17.084  17.520  0.00  0.00    +0.000 C 
ENDBRANCH  36  38
ENDBRANCH   4  36
TORSDOF 6
ENDMDL
MODEL 7
REMARK VINA RESULT:      -7.8      4.328      7.290
REMARK  Name = 
REMARK  7 active torsions:
REMARK  status: ('A' for Active; 'I' for Inactive)
REMARK    1  A    between atoms: C_1  and  C_2
REMARK    2  A    between atoms: C_2  and  C_3
REMARK    3  A    between atoms: N_5  and  C_6
REMARK    4  A    between atoms: C_9  and  N_10
REMARK    5  A    between atoms: C_13  and  N_14
REMARK    6  A    between atoms: N_14  and  C_15
REMARK    7  A    between atoms: C_21  and  C_22
REMARK                            x       y       z     vdW  Elec       q    Type
REMARK                         _______ _______ _______ _____ _____    ______ ____
ROOT
ATOM      1  N   UNL     1       0.156  10.060  20.369  0.00  0.00    +0.000 N 
ATOM      2  C   UNL     1      -0.176  11.387  20.218  0.00  0.00    +0.000 A 
ATOM      3  C   UNL     1      -1.622  11.766  20.356  0.00  0.00    +0.000 A 
ATOM      4  C   UNL     1      -1.979  13.042  20.120  0.00  0.00    +0.000 A 
ATOM      5  N   UNL     1      -0.949  13.970  19.834  0.00  0.00    +0.000 N 
ATOM      6  N   UNL     1      -1.083  15.307  19.575  0.00  0.00    +0.000 NA
ATOM      7  C   UNL     1       0.172  15.740  19.423  0.00  0.00    +0.000 A 
ATOM      8  C   UNL     1       1.127  14.715  19.563  0.00  0.00    +0.000 A 
ATOM      9  C   UNL     1       0.387  13.570  19.785  0.00  0.00    +0.000 A 
ATOM     10  N   UNL     1       0.757  12.262  19.949  0.00  0.00    +0.000 NA
ATOM     11  H   UNL     1      -0.433   9.488  20.963  0.00  0.00    +0.000 HD
ENDROOT
BRANCH   8  12
ATOM     12  C   UNL     1       2.550  14.837  19.473  0.00  0.00    +0.000 C 
ATOM     13  C   UNL     1       3.418  14.853  20.493  0.00  0.00    +0.000 C 
ATOM     14  N   UNL     1       3.142  14.766  21.828  0.00  0.00    +0.000 N 
ATOM     15  C   UNL     1       4.309  14.771  22.561  0.00  0.00    +0.000 C 
ATOM     16  O   UNL     1       4.403  14.629  23.768  0.00  0.00    +0.000 OA
ATOM     17  N   UNL     1       5.347  14.926  21.680  0.00  0.00    +0.000 N 
ATOM     18  C   UNL     1       4.905  14.954  20.385  0.00  0.00    +0.000 C 
ATOM     19  O   UNL     1       5.568  15.012  19.368  0.00  0.00    +0.000 OA
ATOM     20  H   UNL     1       2.223  14.569  22.209  0.00  0.00    +0.000 HD
ATOM     21  H   UNL     1       6.314  14.927  21.955  0.00  0.00    +0.000 HD
ENDBRANCH   8  12
BRANCH   1  25
ATOM     22  C   UNL     1       2.647   7.265  18.222  0.00  0.00    +0.000 C 
ATOM     23  C   UNL     1       2.661   7.249  19.757  0.00  0.00    +0.000 C 
ATOM     24  C   UNL     1       1.444   7.979  20.336  0.00  0.00    +0.000 C 
ATOM     25  C   UNL     1       1.363   9.433  19.842  0.00  0.00    +0.000 C 
ATOM     26  C   UNL     1       1.333   9.439  18.304  0.00  0.00    +0.000 C 
ATOM     27  C   UNL     1       2.530   8.702  17.702  0.00  0.00    +0.000 C 
BRANCH  22  30
ATOM     28  C   UNL     1       3.858   5.268  17.376  0.00  0.00    +0.000 C 
ATOM     29  O   UNL     1       2.926   4.497  17.568  0.00  0.00    +0.000 OA
ATOM     30  N   UNL     1       3.829   6.613  17.666  0.00  0.00    +0.000 N 
ATOM     31  H   UNL     1       4.683   7.143  17.552  0.00  0.00    +0.000 HD
BRANCH  28  33
ATOM     32  C   UNL     1       6.294   4.534  17.665  0.00  0.00    +0.000 C 
ATOM     33  C   UNL     1       5.129   4.780  16.733  0.00  0.00    +0.000 C 
ATOM     34  C   UNL     1       5.473   5.351  15.363  0.00  0.00    +0.000 C 
ATOM     35  C   UNL     1       5.049   3.920  15.480  0.00  0.00    +0.000 C 
ENDBRANCH  28  33
ENDBRANCH  22  30
ENDBRANCH   1  25
BRANCH   4  36
ATOM     36  N   UNL     1      -3.289  13.531  20.147  0.00  0.00    +0.000 N 
ATOM     37  H   UNL     1      -3.369  14.346  19.526  0.00  0.00    +0.000 HD
BRANCH  36  38
ATOM     38  C   UNL     1      -4.409  12.585  20.130  0.00  0.00    +0.000 C 
ATOM     39  C   UNL     1      -5.544  12.689  21.109  0.00  0.00    +0.000 C 
ATOM     40  C   UNL     1      -5.759  13.058  19.671  0.00  0.00    +0.000 C 
ENDBRANCH  36  38
ENDBRANCH   4  36
TORSDOF 6
ENDMDL
MODEL 8
REMARK VINA RESULT:      -7.8      4.152      7.022
REMARK  Name = 
REMARK  7 active torsions:
REMARK  status: ('A' for Active; 'I' for Inactive)
REMARK    1  A    between atoms: C_1  and  C_2
REMARK    2  A    between atoms: C_2  and  C_3
REMARK    3  A    between atoms: N_5  and  C_6
REMARK    4  A    between atoms: C_9  and  N_10
REMARK    5  A    between atoms: C_13  and  N_14
REMARK    6  A    between atoms: N_14  and  C_15
REMARK    7  A    between atoms: C_21  and  C_22
REMARK                            x       y       z     vdW  Elec       q    Type
REMARK                         _______ _______ _______ _____ _____    ______ ____
ROOT
ATOM      1  N   UNL     1      -0.228  10.032  20.160  0.00  0.00    +0.000 N 
ATOM      2  C   UNL     1      -0.468  11.366  20.399  0.00  0.00    +0.000 A 
ATOM      3  C   UNL     1      -1.890  11.843  20.340  0.00  0.00    +0.000 A 
ATOM      4  C   UNL     1      -2.134  13.159  20.480  0.00  0.00    +0.000 A 
ATOM      5  N   UNL     1      -1.034  14.006  20.758  0.00  0.00    +0.000 N 
ATOM      6  N   UNL     1      -1.054  15.361  20.945  0.00  0.00    +0.000 NA
ATOM      7  C   UNL     1       0.214  15.674  21.227  0.00  0.00    +0.000 A 
ATOM      8  C   UNL     1       1.071  14.556  21.214  0.00  0.00    +0.000 A 
ATOM      9  C   UNL     1       0.260  13.493  20.867  0.00  0.00    +0.000 A 
ATOM     10  N   UNL     1       0.533  12.168  20.654  0.00  0.00    +0.000 NA
ATOM     11  H   UNL     1      -0.964   9.371  20.381  0.00  0.00    +0.000 HD
ENDROOT
BRANCH   8  12
ATOM     12  C   UNL     1       2.476  14.537  21.483  0.00  0.00    +0.000 C 
ATOM     13  C   UNL     1       3.464  14.677  20.589  0.00  0.00    +0.000 C 
ATOM     14  N   UNL     1       3.352  14.858  19.241  0.00  0.00    +0.000 N 
ATOM     15  C   UNL     1       4.598  15.007  18.671  0.00  0.00    +0.000 C 
ATOM     16  O   UNL     1       4.831  15.261  17.502  0.00  0.00    +0.000 OA
ATOM     17  N   UNL     1       5.526  14.856  19.668  0.00  0.00    +0.000 N 
ATOM     18  C   UNL     1       4.928  14.681  20.886  0.00  0.00    +0.000 C 
ATOM     19  O   UNL     1       5.460  14.586  21.975  0.00  0.00    +0.000 OA
ATOM     20  H   UNL     1       2.474  15.016  18.757  0.00  0.00    +0.000 HD
ATOM     21  H   UNL     1       6.516  14.954  19.525  0.00  0.00    +0.000 HD
ENDBRANCH   8  12
BRANCH   1  25
ATOM     22  C   UNL     1       2.572   7.349  18.266  0.00  0.00    +0.000 C 
ATOM     23  C   UNL     1       2.495   7.386  19.798  0.00  0.00    +0.000 C 
ATOM     24  C   UNL     1       1.198   8.047  20.279  0.00  0.00    +0.000 C 
ATOM     25  C   UNL     1       1.047   9.474  19.727  0.00  0.00    +0.000 C 
ATOM     26  C   UNL     1       1.109   9.427  18.191  0.00  0.00    +0.000 C 
ATOM     27  C   UNL     1       2.388   8.756  17.686  0.00  0.00    +0.000 C 
BRANCH  22  30
ATOM     28  C   UNL     1       3.933   5.438  17.451  0.00  0.00    +0.000 C 
ATOM     29  O   UNL     1       3.014   4.630  17.506  0.00  0.00    +0.000 OA
ATOM     30  N   UNL     1       3.826   6.764  17.803  0.00  0.00    +0.000 N 
ATOM     31  H   UNL     1       4.668   7.325  17.805  0.00  0.00    +0.000 HD
BRANCH  28  33
ATOM     32  C   UNL     1       6.430   5.091  17.898  0.00  0.00    +0.000 C 
ATOM     33  C   UNL     1       5.279   5.024  16.919  0.00  0.00    +0.000 C 
ATOM     34  C   UNL     1       5.600   5.403  15.478  0.00  0.00    +0.000 C 
ATOM     35  C   UNL     1       5.358   3.966  15.828  0.00  0.00    +0.000 C 
ENDBRANCH  28  33
ENDBRANCH  22  30
ENDBRANCH   1  25
BRANCH   4  36
ATOM     36  N   UNL     1      -3.393  13.761  20.386  0.00  0.00    +0.000 N 
ATOM     37  H   UNL     1      -3.324  14.630  19.844  0.00  0.00    +0.000 HD
BRANCH  36  38
ATOM     38  C   UNL     1      -4.570  12.924  20.133  0.00  0.00    +0.000 C 
ATOM     39  C   UNL     1      -5.637  12.728  21.173  0.00  0.00    +0.000 C 
ATOM     40  C   UNL     1      -5.912  13.580  19.970  0.00  0.00    +0.000 C 
ENDBRANCH  36  38
ENDBRANCH   4  36
TORSDOF 6
ENDMDL
MODEL 9
REMARK VINA RESULT:      -7.8      1.711      1.908
REMARK  Name = 
REMARK  7 active torsions:
REMARK  status: ('A' for Active; 'I' for Inactive)
REMARK    1  A    between atoms: C_1  and  C_2
REMARK    2  A    between atoms: C_2  and  C_3
REMARK    3  A    between atoms: N_5  and  C_6
REMARK    4  A    between atoms: C_9  and  N_10
REMARK    5  A    between atoms: C_13  and  N_14
REMARK    6  A    between atoms: N_14  and  C_15
REMARK    7  A    between atoms: C_21  and  C_22
REMARK                            x       y       z     vdW  Elec       q    Type
REMARK                         _______ _______ _______ _____ _____    ______ ____
ROOT
ATOM      1  N   UNL     1      -1.254  12.210  22.980  0.00  0.00    +0.000 N 
ATOM      2  C   UNL     1      -2.440  12.885  22.800  0.00  0.00    +0.000 A 
ATOM      3  C   UNL     1      -2.837  13.891  23.841  0.00  0.00    +0.000 A 
ATOM      4  C   UNL     1      -4.035  14.493  23.731  0.00  0.00    +0.000 A 
ATOM      5  N   UNL     1      -4.817  14.199  22.588  0.00  0.00    +0.000 N 
ATOM      6  N   UNL     1      -6.050  14.700  22.271  0.00  0.00    +0.000 NA
ATOM      7  C   UNL     1      -6.330  14.158  21.082  0.00  0.00    +0.000 A 
ATOM      8  C   UNL     1      -5.315  13.302  20.616  0.00  0.00    +0.000 A 
ATOM      9  C   UNL     1      -4.364  13.303  21.618  0.00  0.00    +0.000 A 
ATOM     10  N   UNL     1      -3.181  12.627  21.754  0.00  0.00    +0.000 NA
ATOM     11  H   UNL     1      -0.519  12.673  23.502  0.00  0.00    +0.000 HD
ENDROOT
BRANCH   8  12
ATOM     12  C   UNL     1      -5.290  12.576  19.383  0.00  0.00    +0.000 C 
ATOM     13  C   UNL     1      -4.205  12.247  18.670  0.00  0.00    +0.000 C 
ATOM     14  N   UNL     1      -2.900  12.535  18.950  0.00  0.00    +0.000 N 
ATOM     15  C   UNL     1      -2.071  11.983  17.998  0.00  0.00    +0.000 C 
ATOM     16  O   UNL     1      -0.853  11.996  18.008  0.00  0.00    +0.000 OA
ATOM     17  N   UNL     1      -2.868  11.385  17.057  0.00  0.00    +0.000 N 
ATOM     18  C   UNL     1      -4.190  11.465  17.396  0.00  0.00    +0.000 C 
ATOM     19  O   UNL     1      -5.143  10.982  16.817  0.00  0.00    +0.000 OA
ATOM     20  H   UNL     1      -2.583  12.957  19.817  0.00  0.00    +0.000 HD
ATOM     21  H   UNL     1      -2.509  10.876  16.268  0.00  0.00    +0.000 HD
ENDBRANCH   8  12
BRANCH   1  25
ATOM     22  C   UNL     1       1.127   8.851  21.688  0.00  0.00    +0.000 C 
ATOM     23  C   UNL     1       0.559   9.810  20.634  0.00  0.00    +0.000 C 
ATOM     24  C   UNL     1       0.120  11.138  21.262  0.00  0.00    +0.000 C 
ATOM     25  C   UNL     1      -0.921  10.926  22.374  0.00  0.00    +0.000 C 
ATOM     26  C   UNL     1      -0.338   9.977  23.434  0.00  0.00    +0.000 C 
ATOM     27  C   UNL     1       0.122   8.650  22.828  0.00  0.00    +0.000 C 
BRANCH  22  30
ATOM     28  C   UNL     1       2.029   7.462  19.836  0.00  0.00    +0.000 C 
ATOM     29  O   UNL     1       2.216   8.411  19.083  0.00  0.00    +0.000 OA
ATOM     30  N   UNL     1       1.502   7.567  21.103  0.00  0.00    +0.000 N 
ATOM     31  H   UNL     1       1.305   6.713  21.608  0.00  0.00    +0.000 HD
BRANCH  28  33
ATOM     32  C   UNL     1       1.793   4.939  20.194  0.00  0.00    +0.000 C 
ATOM     33  C   UNL     1       2.433   6.072  19.425  0.00  0.00    +0.000 C 
ATOM     34  C   UNL     1       3.886   5.868  19.011  0.00  0.00    +0.000 C 
ATOM     35  C   UNL     1       2.807   5.801  17.975  0.00  0.00    +0.000 C 
ENDBRANCH  28  33
ENDBRANCH  22  30
ENDBRANCH   1  25
BRANCH   4  36
ATOM     36  N   UNL     1      -4.570  15.401  24.651  0.00  0.00    +0.000 N 
ATOM     37  H   UNL     1      -4.392  15.073  25.607  0.00  0.00    +0.000 HD
BRANCH  36  38
ATOM     38  C   UNL     1      -4.413  16.840  24.413  0.00  0.00    +0.000 C 
ATOM     39  C   UNL     1      -4.961  17.862  25.368  0.00  0.00    +0.000 C 
ATOM     40  C   UNL     1      -3.481  17.628  25.290  0.00  0.00    +0.000 C 
ENDBRANCH  36  38
ENDBRANCH   4  36
TORSDOF 6
ENDMDL
