MODEL 1
REMARK VINA RESULT:      -8.8      0.000      0.000
REMARK  Name = 
REMARK  11 active torsions:
REMARK  status: ('A' for Active; 'I' for Inactive)
REMARK    1  A    between atoms: C_1  and  C_2
REMARK    2  A    between atoms: C_2  and  C_3
REMARK    3  A    between atoms: C_3  and  O_4
REMARK    4  A    between atoms: O_4  and  C_5
REMARK    5  A    between atoms: N_7  and  C_8
REMARK    6  A    between atoms: N_11  and  C_12
REMARK    7  A    between atoms: C_16  and  N_17
REMARK    8  A    between atoms: C_23  and  C_24
REMARK    9  A    between atoms: C_25  and  C_26
REMARK   10  A    between atoms: C_30  and  C_31
REMARK   11  A    between atoms: C_33  and  C_34
REMARK                            x       y       z     vdW  Elec       q    Type
REMARK                         _______ _______ _______ _____ _____    ______ ____
ROOT
ATOM      1  N   UNL     1      -0.203  12.411  19.860  0.00  0.00    +0.000 N 
ATOM      2  C   UNL     1       0.417  11.234  19.391  0.00  0.00    +0.000 A 
ATOM      3  N   UNL     1       0.978  11.340  18.173  0.00  0.00    +0.000 NA
ATOM      4  N   UNL     1       1.683  10.304  17.649  0.00  0.00    +0.000 NA
ATOM      5  C   UNL     1       1.863   9.200  18.374  0.00  0.00    +0.000 A 
ATOM      6  C   UNL     1       2.611   8.166  17.809  0.00  0.00    +0.000 A 
ATOM      7  C   UNL     1       2.954   6.984  18.490  0.00  0.00    +0.000 A 
ATOM      8  C   UNL     1       2.457   6.902  19.789  0.00  0.00    +0.000 A 
ATOM      9  C   UNL     1       1.595   7.890  20.344  0.00  0.00    +0.000 A 
ATOM     10  C   UNL     1       0.948   7.572  21.668  0.00  0.00    +0.000 C 
ATOM     11  C   UNL     1       1.305   9.093  19.647  0.00  0.00    +0.000 A 
ATOM     12  N   UNL     1       0.539  10.114  20.143  0.00  0.00    +0.000 NA
ATOM     13  H   UNL     1      -0.136  13.063  19.082  0.00  0.00    +0.000 HD
ENDROOT
BRANCH   7  14
ATOM     14  C   UNL     1       3.709   5.896  17.776  0.00  0.00    +0.000 A 
ATOM     15  C   UNL     1       4.993   6.154  17.193  0.00  0.00    +0.000 A 
ATOM     16  C   UNL     1       5.865   7.334  17.554  0.00  0.00    +0.000 C 
ATOM     17  C   UNL     1       5.529   5.294  16.214  0.00  0.00    +0.000 A 
ATOM     18  C   UNL     1       4.894   4.113  15.876  0.00  0.00    +0.000 A 
ATOM     19  C   UNL     1       3.746   3.748  16.561  0.00  0.00    +0.000 A 
ATOM     20  C   UNL     1       3.149   4.607  17.508  0.00  0.00    +0.000 A 
ATOM     21  C   UNL     1       1.942   4.040  18.214  0.00  0.00    +0.000 C 
ENDBRANCH   7  14
BRANCH   1  26
ATOM     22  C   UNL     1      -3.920  12.716  20.268  0.00  0.00    +0.000 A 
ATOM     23  C   UNL     1      -3.997  12.647  21.666  0.00  0.00    +0.000 A 
ATOM     24  C   UNL     1      -2.857  12.523  22.466  0.00  0.00    +0.000 A 
ATOM     25  C   UNL     1      -1.589  12.472  21.889  0.00  0.00    +0.000 A 
ATOM     26  C   UNL     1      -1.447  12.575  20.509  0.00  0.00    +0.000 A 
ATOM     27  C   UNL     1      -2.619  12.696  19.720  0.00  0.00    +0.000 A 
BRANCH  22  34
ATOM     28  C   UNL     1      -5.401  11.873  18.344  0.00  0.00    +0.000 C 
ATOM     29  C   UNL     1      -5.850  12.789  17.151  0.00  0.00    +0.000 C 
ATOM     30  N   UNL     1      -7.030  13.630  17.504  0.00  0.00    +0.000 NA
ATOM     31  C   UNL     1      -7.411  14.500  16.396  0.00  0.00    +0.000 C 
ATOM     32  C   UNL     1      -6.708  14.426  18.711  0.00  0.00    +0.000 C 
ATOM     33  C   UNL     1      -6.227  13.558  19.902  0.00  0.00    +0.000 C 
ATOM     34  N   UNL     1      -5.064  12.744  19.493  0.00  0.00    +0.000 N 
BRANCH  28  35
ATOM     35  O   UNL     1      -4.392  10.961  17.912  0.00  0.00    +0.000 OA
BRANCH  35  36
ATOM     36  C   UNL     1      -4.120  10.957  16.511  0.00  0.00    +0.000 C 
BRANCH  36  38
ATOM     37  C   UNL     1      -1.983   9.798  17.033  0.00  0.00    +0.000 C 
ATOM     38  C   UNL     1      -2.663  10.793  16.102  0.00  0.00    +0.000 C 
ENDBRANCH  36  38
ENDBRANCH  35  36
ENDBRANCH  28  35
ENDBRANCH  22  34
ENDBRANCH   1  26
TORSDOF 6
ENDMDL
MODEL 2
REMARK VINA RESULT:      -8.6      1.802      3.049
REMARK  Name = 
REMARK  11 active torsions:
REMARK  status: ('A' for Active; 'I' for Inactive)
REMARK    1  A    between atoms: C_1  and  C_2
REMARK    2  A    between atoms: C_2  and  C_3
REMARK    3  A    between atoms: C_3  and  O_4
REMARK    4  A    between atoms: O_4  and  C_5
REMARK    5  A    between atoms: N_7  and  C_8
REMARK    6  A    between atoms: N_11  and  C_12
REMARK    7  A    between atoms: C_16  and  N_17
REMARK    8  A    between atoms: C_23  and  C_24
REMARK    9  A    between atoms: C_25  and  C_26
REMARK   10  A    between atoms: C_30  and  C_31
REMARK   11  A    between atoms: C_33  and  C_34
REMARK                            x       y       z     vdW  Elec       q    Type
REMARK                         _______ _______ _______ _____ _____    ______ ____
ROOT
ATOM      1  N   UNL     1       1.290  12.710  18.815  0.00  0.00    +0.000 N 
ATOM      2  C   UNL     1       1.443  11.310  18.728  0.00  0.00    +0.000 A 
ATOM      3  N   UNL     1       1.978  10.874  17.573  0.00  0.00    +0.000 NA
ATOM      4  N   UNL     1       2.260   9.556  17.403  0.00  0.00    +0.000 NA
ATOM      5  C   UNL     1       2.057   8.706  18.409  0.00  0.00    +0.000 A 
ATOM      6  C   UNL     1       2.379   7.364  18.202  0.00  0.00    +0.000 A 
ATOM      7  C   UNL     1       2.298   6.375  19.200  0.00  0.00    +0.000 A 
ATOM      8  C   UNL     1       1.834   6.835  20.430  0.00  0.00    +0.000 A 
ATOM      9  C   UNL     1       1.389   8.172  20.631  0.00  0.00    +0.000 A 
ATOM     10  C   UNL     1       0.702   8.479  21.938  0.00  0.00    +0.000 C 
ATOM     11  C   UNL     1       1.526   9.157  19.617  0.00  0.00    +0.000 A 
ATOM     12  N   UNL     1       1.180  10.474  19.760  0.00  0.00    +0.000 NA
ATOM     13  H   UNL     1       1.564  13.055  17.897  0.00  0.00    +0.000 HD
ENDROOT
BRANCH   7  14
ATOM     14  C   UNL     1       2.605   4.940  18.865  0.00  0.00    +0.000 A 
ATOM     15  C   UNL     1       3.686   4.608  17.985  0.00  0.00    +0.000 A 
ATOM     16  C   UNL     1       4.821   5.546  17.644  0.00  0.00    +0.000 C 
ATOM     17  C   UNL     1       3.750   3.344  17.364  0.00  0.00    +0.000 A 
ATOM     18  C   UNL     1       2.844   2.347  17.678  0.00  0.00    +0.000 A 
ATOM     19  C   UNL     1       1.902   2.583  18.666  0.00  0.00    +0.000 A 
ATOM     20  C   UNL     1       1.771   3.852  19.271  0.00  0.00    +0.000 A 
ATOM     21  C   UNL     1       0.744   3.932  20.373  0.00  0.00    +0.000 C 
ENDBRANCH   7  14
BRANCH   1  26
ATOM     22  C   UNL     1      -1.936  13.463  20.579  0.00  0.00    +0.000 A 
ATOM     23  C   UNL     1      -1.898  14.863  20.523  0.00  0.00    +0.000 A 
ATOM     24  C   UNL     1      -0.851  15.553  19.905  0.00  0.00    +0.000 A 
ATOM     25  C   UNL     1       0.200  14.858  19.309  0.00  0.00    +0.000 A 
ATOM     26  C   UNL     1       0.198  13.467  19.297  0.00  0.00    +0.000 A 
ATOM     27  C   UNL     1      -0.874  12.791  19.934  0.00  0.00    +0.000 A 
BRANCH  22  34
ATOM     28  C   UNL     1      -4.288  12.450  20.798  0.00  0.00    +0.000 C 
ATOM     29  C   UNL     1      -5.326  12.934  21.871  0.00  0.00    +0.000 C 
ATOM     30  N   UNL     1      -5.086  12.310  23.203  0.00  0.00    +0.000 NA
ATOM     31  C   UNL     1      -6.038  12.798  24.197  0.00  0.00    +0.000 C 
ATOM     32  C   UNL     1      -3.695  12.597  23.624  0.00  0.00    +0.000 C 
ATOM     33  C   UNL     1      -2.640  12.164  22.574  0.00  0.00    +0.000 C 
ATOM     34  N   UNL     1      -2.931  12.805  21.275  0.00  0.00    +0.000 N 
BRANCH  28  35
ATOM     35  O   UNL     1      -4.657  12.926  19.505  0.00  0.00    +0.000 OA
BRANCH  35  36
ATOM     36  C   UNL     1      -4.805  11.927  18.496  0.00  0.00    +0.000 C 
BRANCH  36  38
ATOM     37  C   UNL     1      -3.142  11.125  16.830  0.00  0.00    +0.000 C 
ATOM     38  C   UNL     1      -3.614  11.005  18.273  0.00  0.00    +0.000 C 
ENDBRANCH  36  38
ENDBRANCH  35  36
ENDBRANCH  28  35
ENDBRANCH  22  34
ENDBRANCH   1  26
TORSDOF 6
ENDMDL
MODEL 3
REMARK VINA RESULT:      -8.5      2.956      4.710
REMARK  Name = 
REMARK  11 active torsions:
REMARK  status: ('A' for Active; 'I' for Inactive)
REMARK    1  A    between atoms: C_1  and  C_2
REMARK    2  A    between atoms: C_2  and  C_3
REMARK    3  A    between atoms: C_3  and  O_4
REMARK    4  A    between atoms: O_4  and  C_5
REMARK    5  A    between atoms: N_7  and  C_8
REMARK    6  A    between atoms: N_11  and  C_12
REMARK    7  A    between atoms: C_16  and  N_17
REMARK    8  A    between atoms: C_23  and  C_24
REMARK    9  A    between atoms: C_25  and  C_26
REMARK   10  A    between atoms: C_30  and  C_31
REMARK   11  A    between atoms: C_33  and  C_34
REMARK                            x       y       z     vdW  Elec       q    Type
REMARK                         _______ _______ _______ _____ _____    ______ ____
ROOT
ATOM      1  N   UNL     1      -0.522   9.377  21.852  0.00  0.00    +0.000 N 
ATOM      2  C   UNL     1       0.492   8.715  21.129  0.00  0.00    +0.000 A 
ATOM      3  N   UNL     1       0.840   7.513  21.621  0.00  0.00    +0.000 NA
ATOM      4  N   UNL     1       1.740   6.736  20.964  0.00  0.00    +0.000 NA
ATOM      5  C   UNL     1       2.234   7.149  19.796  0.00  0.00    +0.000 A 
ATOM      6  C   UNL     1       3.140   6.314  19.142  0.00  0.00    +0.000 A 
ATOM      7  C   UNL     1       3.672   6.580  17.867  0.00  0.00    +0.000 A 
ATOM      8  C   UNL     1       3.244   7.780  17.303  0.00  0.00    +0.000 A 
ATOM      9  C   UNL     1       2.414   8.703  18.001  0.00  0.00    +0.000 A 
ATOM     10  C   UNL     1       2.211  10.057  17.372  0.00  0.00    +0.000 C 
ATOM     11  C   UNL     1       1.857   8.384  19.268  0.00  0.00    +0.000 A 
ATOM     12  N   UNL     1       1.001   9.192  19.968  0.00  0.00    +0.000 NA
ATOM     13  H   UNL     1      -0.692   8.781  22.659  0.00  0.00    +0.000 HD
ENDROOT
BRANCH   7  14
ATOM     14  C   UNL     1       4.694   5.652  17.268  0.00  0.00    +0.000 A 
ATOM     15  C   UNL     1       6.019   6.110  16.975  0.00  0.00    +0.000 A 
ATOM     16  C   UNL     1       6.635   7.357  17.567  0.00  0.00    +0.000 C 
ATOM     17  C   UNL     1       6.849   5.402  16.083  0.00  0.00    +0.000 A 
ATOM     18  C   UNL     1       6.459   4.181  15.561  0.00  0.00    +0.000 A 
ATOM     19  C   UNL     1       5.260   3.626  15.977  0.00  0.00    +0.000 A 
ATOM     20  C   UNL     1       4.377   4.329  16.824  0.00  0.00    +0.000 A 
ATOM     21  C   UNL     1       3.143   3.566  17.238  0.00  0.00    +0.000 C 
ENDBRANCH   7  14
BRANCH   1  26
ATOM     22  C   UNL     1       0.077  13.081  21.779  0.00  0.00    +0.000 A 
ATOM     23  C   UNL     1      -0.876  13.480  22.726  0.00  0.00    +0.000 A 
ATOM     24  C   UNL     1      -1.688  12.558  23.394  0.00  0.00    +0.000 A 
ATOM     25  C   UNL     1      -1.567  11.192  23.139  0.00  0.00    +0.000 A 
ATOM     26  C   UNL     1      -0.612  10.734  22.238  0.00  0.00    +0.000 A 
ATOM     27  C   UNL     1       0.197  11.689  21.572  0.00  0.00    +0.000 A 
BRANCH  22  34
ATOM     28  C   UNL     1       0.451  14.635  19.766  0.00  0.00    +0.000 C 
ATOM     29  C   UNL     1       1.691  14.507  18.812  0.00  0.00    +0.000 C 
ATOM     30  N   UNL     1       2.900  15.175  19.373  0.00  0.00    +0.000 NA
ATOM     31  C   UNL     1       4.052  15.016  18.490  0.00  0.00    +0.000 C 
ATOM     32  C   UNL     1       3.184  14.608  20.712  0.00  0.00    +0.000 C 
ATOM     33  C   UNL     1       1.971  14.684  21.674  0.00  0.00    +0.000 C 
ATOM     34  N   UNL     1       0.803  14.015  21.064  0.00  0.00    +0.000 N 
BRANCH  28  35
ATOM     35  O   UNL     1      -0.721  14.145  19.118  0.00  0.00    +0.000 OA
BRANCH  35  36
ATOM     36  C   UNL     1      -0.511  13.108  18.159  0.00  0.00    +0.000 C 
BRANCH  36  38
ATOM     37  C   UNL     1      -2.507  12.160  19.300  0.00  0.00    +0.000 C 
ATOM     38  C   UNL     1      -1.439  11.904  18.245  0.00  0.00    +0.000 C 
ENDBRANCH  36  38
ENDBRANCH  35  36
ENDBRANCH  28  35
ENDBRANCH  22  34
ENDBRANCH   1  26
TORSDOF 6
ENDMDL
MODEL 4
REMARK VINA RESULT:      -8.5      1.552      2.238
REMARK  Name = 
REMARK  11 active torsions:
REMARK  status: ('A' for Active; 'I' for Inactive)
REMARK    1  A    between atoms: C_1  and  C_2
REMARK    2  A    between atoms: C_2  and  C_3
REMARK    3  A    between atoms: C_3  and  O_4
REMARK    4  A    between atoms: O_4  and  C_5
REMARK    5  A    between atoms: N_7  and  C_8
REMARK    6  A    between atoms: N_11  and  C_12
REMARK    7  A    between atoms: C_16  and  N_17
REMARK    8  A    between atoms: C_23  and  C_24
REMARK    9  A    between atoms: C_25  and  C_26
REMARK   10  A    between atoms: C_30  and  C_31
REMARK   11  A    between atoms: C_33  and  C_34
REMARK                            x       y       z     vdW  Elec       q    Type
REMARK                         _______ _______ _______ _____ _____    ______ ____
ROOT
ATOM      1  N   UNL     1       1.390  12.558  18.796  0.00  0.00    +0.000 N 
ATOM      2  C   UNL     1       1.527  11.157  18.710  0.00  0.00    +0.000 A 
ATOM      3  N   UNL     1       2.004  10.710  17.535  0.00  0.00    +0.000 NA
ATOM      4  N   UNL     1       2.267   9.389  17.359  0.00  0.00    +0.000 NA
ATOM      5  C   UNL     1       2.103   8.545  18.378  0.00  0.00    +0.000 A 
ATOM      6  C   UNL     1       2.403   7.199  18.164  0.00  0.00    +0.000 A 
ATOM      7  C   UNL     1       2.361   6.217  19.169  0.00  0.00    +0.000 A 
ATOM      8  C   UNL     1       1.958   6.687  20.418  0.00  0.00    +0.000 A 
ATOM      9  C   UNL     1       1.534   8.029  20.632  0.00  0.00    +0.000 A 
ATOM     10  C   UNL     1       0.911   8.348  21.967  0.00  0.00    +0.000 C 
ATOM     11  C   UNL     1       1.633   9.007  19.607  0.00  0.00    +0.000 A 
ATOM     12  N   UNL     1       1.305  10.328  19.758  0.00  0.00    +0.000 NA
ATOM     13  H   UNL     1       1.624  12.896  17.865  0.00  0.00    +0.000 HD
ENDROOT
BRANCH   7  14
ATOM     14  C   UNL     1       2.640   4.778  18.829  0.00  0.00    +0.000 A 
ATOM     15  C   UNL     1       3.799   4.415  18.068  0.00  0.00    +0.000 A 
ATOM     16  C   UNL     1       5.006   5.306  17.886  0.00  0.00    +0.000 C 
ATOM     17  C   UNL     1       3.876   3.166  17.420  0.00  0.00    +0.000 A 
ATOM     18  C   UNL     1       2.897   2.206  17.599  0.00  0.00    +0.000 A 
ATOM     19  C   UNL     1       1.859   2.462  18.480  0.00  0.00    +0.000 A 
ATOM     20  C   UNL     1       1.717   3.721  19.104  0.00  0.00    +0.000 A 
ATOM     21  C   UNL     1       0.574   3.822  20.084  0.00  0.00    +0.000 C 
ENDBRANCH   7  14
BRANCH   1  26
ATOM     22  C   UNL     1      -2.034  13.357  20.108  0.00  0.00    +0.000 A 
ATOM     23  C   UNL     1      -1.792  14.650  20.591  0.00  0.00    +0.000 A 
ATOM     24  C   UNL     1      -0.539  15.263  20.475  0.00  0.00    +0.000 A 
ATOM     25  C   UNL     1       0.520  14.597  19.859  0.00  0.00    +0.000 A 
ATOM     26  C   UNL     1       0.328  13.327  19.325  0.00  0.00    +0.000 A 
ATOM     27  C   UNL     1      -0.949  12.727  19.459  0.00  0.00    +0.000 A 
BRANCH  22  34
ATOM     28  C   UNL     1      -3.950  11.788  19.418  0.00  0.00    +0.000 C 
ATOM     29  C   UNL     1      -5.431  12.278  19.246  0.00  0.00    +0.000 C 
ATOM     30  N   UNL     1      -6.150  12.355  20.550  0.00  0.00    +0.000 NA
ATOM     31  C   UNL     1      -7.514  12.846  20.376  0.00  0.00    +0.000 C 
ATOM     32  C   UNL     1      -5.389  13.234  21.468  0.00  0.00    +0.000 C 
ATOM     33  C   UNL     1      -3.910  12.802  21.637  0.00  0.00    +0.000 C 
ATOM     34  N   UNL     1      -3.251  12.737  20.316  0.00  0.00    +0.000 N 
BRANCH  28  35
ATOM     35  O   UNL     1      -3.356  11.558  18.142  0.00  0.00    +0.000 OA
BRANCH  35  36
ATOM     36  C   UNL     1      -4.268  11.314  17.070  0.00  0.00    +0.000 C 
BRANCH  36  38
ATOM     37  C   UNL     1      -2.581   9.892  15.922  0.00  0.00    +0.000 C 
ATOM     38  C   UNL     1      -3.653  10.955  15.724  0.00  0.00    +0.000 C 
ENDBRANCH  36  38
ENDBRANCH  35  36
ENDBRANCH  28  35
ENDBRANCH  22  34
ENDBRANCH   1  26
TORSDOF 6
ENDMDL
MODEL 5
REMARK VINA RESULT:      -8.4      1.903      3.392
REMARK  Name = 
REMARK  11 active torsions:
REMARK  status: ('A' for Active; 'I' for Inactive)
REMARK    1  A    between atoms: C_1  and  C_2
REMARK    2  A    between atoms: C_2  and  C_3
REMARK    3  A    between atoms: C_3  and  O_4
REMARK    4  A    between atoms: O_4  and  C_5
REMARK    5  A    between atoms: N_7  and  C_8
REMARK    6  A    between atoms: N_11  and  C_12
REMARK    7  A    between atoms: C_16  and  N_17
REMARK    8  A    between atoms: C_23  and  C_24
REMARK    9  A    between atoms: C_25  and  C_26
REMARK   10  A    between atoms: C_30  and  C_31
REMARK   11  A    between atoms: C_33  and  C_34
REMARK                            x       y       z     vdW  Elec       q    Type
REMARK                         _______ _______ _______ _____ _____    ______ ____
ROOT
ATOM      1  N   UNL     1       1.494  12.461  18.687  0.00  0.00    +0.000 N 
ATOM      2  C   UNL     1       1.614  11.057  18.617  0.00  0.00    +0.000 A 
ATOM      3  N   UNL     1       2.126  10.593  17.464  0.00  0.00    +0.000 NA
ATOM      4  N   UNL     1       2.376   9.267  17.308  0.00  0.00    +0.000 NA
ATOM      5  C   UNL     1       2.164   8.435  18.328  0.00  0.00    +0.000 A 
ATOM      6  C   UNL     1       2.452   7.083  18.135  0.00  0.00    +0.000 A 
ATOM      7  C   UNL     1       2.360   6.110  19.147  0.00  0.00    +0.000 A 
ATOM      8  C   UNL     1       1.920   6.596  20.376  0.00  0.00    +0.000 A 
ATOM      9  C   UNL     1       1.508   7.946  20.564  0.00  0.00    +0.000 A 
ATOM     10  C   UNL     1       0.842   8.286  21.873  0.00  0.00    +0.000 C 
ATOM     11  C   UNL     1       1.657   8.914  19.535  0.00  0.00    +0.000 A 
ATOM     12  N   UNL     1       1.343  10.241  19.664  0.00  0.00    +0.000 NA
ATOM     13  H   UNL     1       1.767  12.787  17.762  0.00  0.00    +0.000 HD
ENDROOT
BRANCH   7  14
ATOM     14  C   UNL     1       2.630   4.664  18.828  0.00  0.00    +0.000 A 
ATOM     15  C   UNL     1       1.910   3.619  19.494  0.00  0.00    +0.000 A 
ATOM     16  C   UNL     1       0.606   3.825  20.230  0.00  0.00    +0.000 C 
ATOM     17  C   UNL     1       2.399   2.298  19.504  0.00  0.00    +0.000 A 
ATOM     18  C   UNL     1       3.517   1.943  18.770  0.00  0.00    +0.000 A 
ATOM     19  C   UNL     1       4.122   2.896  17.967  0.00  0.00    +0.000 A 
ATOM     20  C   UNL     1       3.697   4.243  17.974  0.00  0.00    +0.000 A 
ATOM     21  C   UNL     1       4.413   5.144  16.998  0.00  0.00    +0.000 C 
ENDBRANCH   7  14
BRANCH   1  26
ATOM     22  C   UNL     1      -1.685  13.315  20.489  0.00  0.00    +0.000 A 
ATOM     23  C   UNL     1      -1.622  14.713  20.401  0.00  0.00    +0.000 A 
ATOM     24  C   UNL     1      -0.573  15.368  19.748  0.00  0.00    +0.000 A 
ATOM     25  C   UNL     1       0.454  14.640  19.150  0.00  0.00    +0.000 A 
ATOM     26  C   UNL     1       0.425  13.249  19.171  0.00  0.00    +0.000 A 
ATOM     27  C   UNL     1      -0.647  12.609  19.842  0.00  0.00    +0.000 A 
BRANCH  22  34
ATOM     28  C   UNL     1      -4.028  12.293  20.752  0.00  0.00    +0.000 C 
ATOM     29  C   UNL     1      -5.082  12.833  21.782  0.00  0.00    +0.000 C 
ATOM     30  N   UNL     1      -4.847  12.298  23.155  0.00  0.00    +0.000 NA
ATOM     31  C   UNL     1      -5.814  12.838  24.107  0.00  0.00    +0.000 C 
ATOM     32  C   UNL     1      -3.464  12.627  23.568  0.00  0.00    +0.000 C 
ATOM     33  C   UNL     1      -2.395  12.139  22.557  0.00  0.00    +0.000 C 
ATOM     34  N   UNL     1      -2.680  12.692  21.218  0.00  0.00    +0.000 N 
BRANCH  28  35
ATOM     35  O   UNL     1      -4.391  12.681  19.428  0.00  0.00    +0.000 OA
BRANCH  35  36
ATOM     36  C   UNL     1      -4.558  11.615  18.493  0.00  0.00    +0.000 C 
BRANCH  36  38
ATOM     37  C   UNL     1      -2.895  10.043  17.520  0.00  0.00    +0.000 C 
ATOM     38  C   UNL     1      -3.466  11.453  17.445  0.00  0.00    +0.000 C 
ENDBRANCH  36  38
ENDBRANCH  35  36
ENDBRANCH  28  35
ENDBRANCH  22  34
ENDBRANCH   1  26
TORSDOF 6
ENDMDL
MODEL 6
REMARK VINA RESULT:      -8.3      3.431     11.173
REMARK  Name = 
REMARK  11 active torsions:
REMARK  status: ('A' for Active; 'I' for Inactive)
REMARK    1  A    between atoms: C_1  and  C_2
REMARK    2  A    between atoms: C_2  and  C_3
REMARK    3  A    between atoms: C_3  and  O_4
REMARK    4  A    between atoms: O_4  and  C_5
REMARK    5  A    between atoms: N_7  and  C_8
REMARK    6  A    between atoms: N_11  and  C_12
REMARK    7  A    between atoms: C_16  and  N_17
REMARK    8  A    between atoms: C_23  and  C_24
REMARK    9  A    between atoms: C_25  and  C_26
REMARK   10  A    between atoms: C_30  and  C_31
REMARK   11  A    between atoms: C_33  and  C_34
REMARK                            x       y       z     vdW  Elec       q    Type
REMARK                         _______ _______ _______ _____ _____    ______ ____
ROOT
ATOM      1  N   UNL     1       1.197   9.446  21.657  0.00  0.00    +0.000 N 
ATOM      2  C   UNL     1       0.056  10.243  21.884  0.00  0.00    +0.000 A 
ATOM      3  N   UNL     1      -0.576  10.003  23.047  0.00  0.00    +0.000 NA
ATOM      4  N   UNL     1      -1.635  10.766  23.424  0.00  0.00    +0.000 NA
ATOM      5  C   UNL     1      -2.009  11.792  22.659  0.00  0.00    +0.000 A 
ATOM      6  C   UNL     1      -3.088  12.565  23.091  0.00  0.00    +0.000 A 
ATOM      7  C   UNL     1      -3.534  13.726  22.432  0.00  0.00    +0.000 A 
ATOM      8  C   UNL     1      -2.826  14.040  21.274  0.00  0.00    +0.000 A 
ATOM      9  C   UNL     1      -1.800  13.202  20.752  0.00  0.00    +0.000 A 
ATOM     10  C   UNL     1      -1.272  13.536  19.380  0.00  0.00    +0.000 C 
ATOM     11  C   UNL     1      -1.342  12.062  21.465  0.00  0.00    +0.000 A 
ATOM     12  N   UNL     1      -0.319  11.248  21.057  0.00  0.00    +0.000 NA
ATOM     13  H   UNL     1       1.214   8.795  22.439  0.00  0.00    +0.000 HD
ENDROOT
BRANCH   7  14
ATOM     14  C   UNL     1      -4.748  14.458  22.937  0.00  0.00    +0.000 A 
ATOM     15  C   UNL     1      -6.041  14.212  22.371  0.00  0.00    +0.000 A 
ATOM     16  C   UNL     1      -6.391  12.986  21.559  0.00  0.00    +0.000 C 
ATOM     17  C   UNL     1      -7.093  15.132  22.545  0.00  0.00    +0.000 A 
ATOM     18  C   UNL     1      -6.949  16.237  23.366  0.00  0.00    +0.000 A 
ATOM     19  C   UNL     1      -5.768  16.397  24.073  0.00  0.00    +0.000 A 
ATOM     20  C   UNL     1      -4.672  15.528  23.883  0.00  0.00    +0.000 A 
ATOM     21  C   UNL     1      -3.483  15.796  24.772  0.00  0.00    +0.000 C 
ENDBRANCH   7  14
BRANCH   1  26
ATOM     22  C   UNL     1       2.474   6.680  19.467  0.00  0.00    +0.000 A 
ATOM     23  C   UNL     1       2.233   7.259  18.213  0.00  0.00    +0.000 A 
ATOM     24  C   UNL     1       1.681   8.537  18.080  0.00  0.00    +0.000 A 
ATOM     25  C   UNL     1       1.357   9.289  19.209  0.00  0.00    +0.000 A 
ATOM     26  C   UNL     1       1.611   8.783  20.479  0.00  0.00    +0.000 A 
ATOM     27  C   UNL     1       2.167   7.483  20.587  0.00  0.00    +0.000 A 
BRANCH  22  34
ATOM     28  C   UNL     1       4.325   4.897  19.435  0.00  0.00    +0.000 C 
ATOM     29  C   UNL     1       4.326   3.689  18.433  0.00  0.00    +0.000 C 
ATOM     30  N   UNL     1       3.453   2.573  18.900  0.00  0.00    +0.000 NA
ATOM     31  C   UNL     1       3.438   1.474  17.940  0.00  0.00    +0.000 C 
ATOM     32  C   UNL     1       2.085   3.095  19.123  0.00  0.00    +0.000 C 
ATOM     33  C   UNL     1       2.046   4.312  20.082  0.00  0.00    +0.000 C 
ATOM     34  N   UNL     1       2.932   5.380  19.573  0.00  0.00    +0.000 N 
BRANCH  28  35
ATOM     35  O   UNL     1       5.302   5.860  19.045  0.00  0.00    +0.000 OA
BRANCH  35  36
ATOM     36  C   UNL     1       6.660   5.420  19.095  0.00  0.00    +0.000 C 
BRANCH  36  38
ATOM     37  C   UNL     1       7.510   7.290  17.694  0.00  0.00    +0.000 C 
ATOM     38  C   UNL     1       7.535   5.782  17.903  0.00  0.00    +0.000 C 
ENDBRANCH  36  38
ENDBRANCH  35  36
ENDBRANCH  28  35
ENDBRANCH  22  34
ENDBRANCH   1  26
TORSDOF 6
ENDMDL
MODEL 7
REMARK VINA RESULT:      -8.3      3.659     11.159
REMARK  Name = 
REMARK  11 active torsions:
REMARK  status: ('A' for Active; 'I' for Inactive)
REMARK    1  A    between atoms: C_1  and  C_2
REMARK    2  A    between atoms: C_2  and  C_3
REMARK    3  A    between atoms: C_3  and  O_4
REMARK    4  A    between atoms: O_4  and  C_5
REMARK    5  A    between atoms: N_7  and  C_8
REMARK    6  A    between atoms: N_11  and  C_12
REMARK    7  A    between atoms: C_16  and  N_17
REMARK    8  A    between atoms: C_23  and  C_24
REMARK    9  A    between atoms: C_25  and  C_26
REMARK   10  A    between atoms: C_30  and  C_31
REMARK   11  A    between atoms: C_33  and  C_34
REMARK                            x       y       z     vdW  Elec       q    Type
REMARK                         _______ _______ _______ _____ _____    ______ ____
ROOT
ATOM      1  N   UNL     1       0.786   9.345  21.758  0.00  0.00    +0.000 N 
ATOM      2  C   UNL     1      -0.003  10.486  22.013  0.00  0.00    +0.000 A 
ATOM      3  N   UNL     1      -1.053  10.274  22.827  0.00  0.00    +0.000 NA
ATOM      4  N   UNL     1      -1.836  11.312  23.221  0.00  0.00    +0.000 NA
ATOM      5  C   UNL     1      -1.523  12.551  22.842  0.00  0.00    +0.000 A 
ATOM      6  C   UNL     1      -2.341  13.592  23.285  0.00  0.00    +0.000 A 
ATOM      7  C   UNL     1      -2.081  14.952  23.037  0.00  0.00    +0.000 A 
ATOM      8  C   UNL     1      -0.941  15.191  22.272  0.00  0.00    +0.000 A 
ATOM      9  C   UNL     1      -0.160  14.142  21.711  0.00  0.00    +0.000 A 
ATOM     10  C   UNL     1       0.908  14.533  20.722  0.00  0.00    +0.000 C 
ATOM     11  C   UNL     1      -0.421  12.780  22.019  0.00  0.00    +0.000 A 
ATOM     12  N   UNL     1       0.325  11.724  21.569  0.00  0.00    +0.000 NA
ATOM     13  H   UNL     1       0.289   8.584  22.216  0.00  0.00    +0.000 HD
ENDROOT
BRANCH   7  14
ATOM     14  C   UNL     1      -3.055  16.002  23.500  0.00  0.00    +0.000 A 
ATOM     15  C   UNL     1      -2.988  16.528  24.832  0.00  0.00    +0.000 A 
ATOM     16  C   UNL     1      -1.775  16.415  25.727  0.00  0.00    +0.000 C 
ATOM     17  C   UNL     1      -4.089  17.198  25.400  0.00  0.00    +0.000 A 
ATOM     18  C   UNL     1      -5.219  17.478  24.653  0.00  0.00    +0.000 A 
ATOM     19  C   UNL     1      -5.234  17.146  23.308  0.00  0.00    +0.000 A 
ATOM     20  C   UNL     1      -4.174  16.424  22.716  0.00  0.00    +0.000 A 
ATOM     21  C   UNL     1      -4.308  16.195  21.231  0.00  0.00    +0.000 C 
ENDBRANCH   7  14
BRANCH   1  26
ATOM     22  C   UNL     1       2.526   7.052  19.351  0.00  0.00    +0.000 A 
ATOM     23  C   UNL     1       2.256   7.735  18.157  0.00  0.00    +0.000 A 
ATOM     24  C   UNL     1       1.535   8.933  18.135  0.00  0.00    +0.000 A 
ATOM     25  C   UNL     1       1.064   9.498  19.320  0.00  0.00    +0.000 A 
ATOM     26  C   UNL     1       1.336   8.886  20.539  0.00  0.00    +0.000 A 
ATOM     27  C   UNL     1       2.065   7.670  20.534  0.00  0.00    +0.000 A 
BRANCH  22  34
ATOM     28  C   UNL     1       4.379   5.439  18.594  0.00  0.00    +0.000 C 
ATOM     29  C   UNL     1       4.083   4.104  17.825  0.00  0.00    +0.000 C 
ATOM     30  N   UNL     1       3.694   3.000  18.750  0.00  0.00    +0.000 NA
ATOM     31  C   UNL     1       3.389   1.775  18.015  0.00  0.00    +0.000 C 
ATOM     32  C   UNL     1       2.529   3.435  19.553  0.00  0.00    +0.000 C 
ATOM     33  C   UNL     1       2.770   4.771  20.302  0.00  0.00    +0.000 C 
ATOM     34  N   UNL     1       3.158   5.823  19.340  0.00  0.00    +0.000 N 
BRANCH  28  35
ATOM     35  O   UNL     1       4.918   6.412  17.701  0.00  0.00    +0.000 OA
BRANCH  35  36
ATOM     36  C   UNL     1       6.212   6.120  17.173  0.00  0.00    +0.000 C 
BRANCH  36  38
ATOM     37  C   UNL     1       7.776   8.000  17.622  0.00  0.00    +0.000 C 
ATOM     38  C   UNL     1       7.403   6.574  18.005  0.00  0.00    +0.000 C 
ENDBRANCH  36  38
ENDBRANCH  35  36
ENDBRANCH  28  35
ENDBRANCH  22  34
ENDBRANCH   1  26
TORSDOF 6
ENDMDL
MODEL 8
REMARK VINA RESULT:      -8.3      0.835      1.705
REMARK  Name = 
REMARK  11 active torsions:
REMARK  status: ('A' for Active; 'I' for Inactive)
REMARK    1  A    between atoms: C_1  and  C_2
REMARK    2  A    between atoms: C_2  and  C_3
REMARK    3  A    between atoms: C_3  and  O_4
REMARK    4  A    between atoms: O_4  and  C_5
REMARK    5  A    between atoms: N_7  and  C_8
REMARK    6  A    between atoms: N_11  and  C_12
REMARK    7  A    between atoms: C_16  and  N_17
REMARK    8  A    between atoms: C_23  and  C_24
REMARK    9  A    between atoms: C_25  and  C_26
REMARK   10  A    between atoms: C_30  and  C_31
REMARK   11  A    between atoms: C_33  and  C_34
REMARK                            x       y       z     vdW  Elec       q    Type
REMARK                         _______ _______ _______ _____ _____    ______ ____
ROOT
ATOM      1  N   UNL     1      -0.364  12.490  20.164  0.00  0.00    +0.000 N 
ATOM      2  C   UNL     1       0.217  11.311  19.652  0.00  0.00    +0.000 A 
ATOM      3  N   UNL     1       0.651  11.403  18.383  0.00  0.00    +0.000 NA
ATOM      4  N   UNL     1       1.310  10.365  17.806  0.00  0.00    +0.000 NA
ATOM      5  C   UNL     1       1.575   9.274  18.526  0.00  0.00    +0.000 A 
ATOM      6  C   UNL     1       2.272   8.237  17.904  0.00  0.00    +0.000 A 
ATOM      7  C   UNL     1       2.694   7.070  18.565  0.00  0.00    +0.000 A 
ATOM      8  C   UNL     1       2.332   7.005  19.909  0.00  0.00    +0.000 A 
ATOM      9  C   UNL     1       1.520   7.994  20.533  0.00  0.00    +0.000 A 
ATOM     10  C   UNL     1       1.013   7.692  21.920  0.00  0.00    +0.000 C 
ATOM     11  C   UNL     1       1.149   9.183  19.851  0.00  0.00    +0.000 A 
ATOM     12  N   UNL     1       0.426  10.205  20.406  0.00  0.00    +0.000 NA
ATOM     13  H   UNL     1      -0.383  13.130  19.373  0.00  0.00    +0.000 HD
ENDROOT
BRANCH   7  14
ATOM     14  C   UNL     1       3.385   5.977  17.796  0.00  0.00    +0.000 A 
ATOM     15  C   UNL     1       2.739   4.718  17.569  0.00  0.00    +0.000 A 
ATOM     16  C   UNL     1       1.250   4.495  17.697  0.00  0.00    +0.000 C 
ATOM     17  C   UNL     1       3.484   3.578  17.206  0.00  0.00    +0.000 A 
ATOM     18  C   UNL     1       4.839   3.665  16.938  0.00  0.00    +0.000 A 
ATOM     19  C   UNL     1       5.450   4.908  16.967  0.00  0.00    +0.000 A 
ATOM     20  C   UNL     1       4.751   6.063  17.379  0.00  0.00    +0.000 A 
ATOM     21  C   UNL     1       5.536   7.349  17.296  0.00  0.00    +0.000 C 
ENDBRANCH   7  14
BRANCH   1  26
ATOM     22  C   UNL     1      -3.973  13.175  20.934  0.00  0.00    +0.000 A 
ATOM     23  C   UNL     1      -3.993  12.778  22.278  0.00  0.00    +0.000 A 
ATOM     24  C   UNL     1      -2.847  12.313  22.931  0.00  0.00    +0.000 A 
ATOM     25  C   UNL     1      -1.629  12.237  22.257  0.00  0.00    +0.000 A 
ATOM     26  C   UNL     1      -1.539  12.654  20.933  0.00  0.00    +0.000 A 
ATOM     27  C   UNL     1      -2.716  13.118  20.293  0.00  0.00    +0.000 A 
BRANCH  22  34
ATOM     28  C   UNL     1      -6.040  12.679  19.490  0.00  0.00    +0.000 C 
ATOM     29  C   UNL     1      -6.305  13.384  18.113  0.00  0.00    +0.000 C 
ATOM     30  N   UNL     1      -6.922  14.731  18.284  0.00  0.00    +0.000 NA
ATOM     31  C   UNL     1      -7.129  15.387  16.996  0.00  0.00    +0.000 C 
ATOM     32  C   UNL     1      -6.049  15.551  19.156  0.00  0.00    +0.000 C 
ATOM     33  C   UNL     1      -5.736  14.872  20.514  0.00  0.00    +0.000 C 
ATOM     34  N   UNL     1      -5.135  13.542  20.283  0.00  0.00    +0.000 N 
BRANCH  28  35
ATOM     35  O   UNL     1      -5.620  11.332  19.279  0.00  0.00    +0.000 OA
BRANCH  35  36
ATOM     36  C   UNL     1      -5.172  11.021  17.960  0.00  0.00    +0.000 C 
BRANCH  36  38
ATOM     37  C   UNL     1      -3.010   9.923  17.410  0.00  0.00    +0.000 C 
ATOM     38  C   UNL     1      -3.696  11.257  17.671  0.00  0.00    +0.000 C 
ENDBRANCH  36  38
ENDBRANCH  35  36
ENDBRANCH  28  35
ENDBRANCH  22  34
ENDBRANCH   1  26
TORSDOF 6
ENDMDL
MODEL 9
REMARK VINA RESULT:      -8.3      3.382     11.066
REMARK  Name = 
REMARK  11 active torsions:
REMARK  status: ('A' for Active; 'I' for Inactive)
REMARK    1  A    between atoms: C_1  and  C_2
REMARK    2  A    between atoms: C_2  and  C_3
REMARK    3  A    between atoms: C_3  and  O_4
REMARK    4  A    between atoms: O_4  and  C_5
REMARK    5  A    between atoms: N_7  and  C_8
REMARK    6  A    between atoms: N_11  and  C_12
REMARK    7  A    between atoms: C_16  and  N_17
REMARK    8  A    between atoms: C_23  and  C_24
REMARK    9  A    between atoms: C_25  and  C_26
REMARK   10  A    between atoms: C_30  and  C_31
REMARK   11  A    between atoms: C_33  and  C_34
REMARK                            x       y       z     vdW  Elec       q    Type
REMARK                         _______ _______ _______ _____ _____    ______ ____
ROOT
ATOM      1  N   UNL     1       1.264   9.359  21.564  0.00  0.00    +0.000 N 
ATOM      2  C   UNL     1       0.171  10.234  21.735  0.00  0.00    +0.000 A 
ATOM      3  N   UNL     1      -0.525  10.050  22.871  0.00  0.00    +0.000 NA
ATOM      4  N   UNL     1      -1.545  10.888  23.194  0.00  0.00    +0.000 NA
ATOM      5  C   UNL     1      -1.814  11.928  22.405  0.00  0.00    +0.000 A 
ATOM      6  C   UNL     1      -2.856  12.778  22.782  0.00  0.00    +0.000 A 
ATOM      7  C   UNL     1      -3.192  13.958  22.095  0.00  0.00    +0.000 A 
ATOM      8  C   UNL     1      -2.415  14.210  20.967  0.00  0.00    +0.000 A 
ATOM      9  C   UNL     1      -1.427  13.299  20.498  0.00  0.00    +0.000 A 
ATOM     10  C   UNL     1      -0.818  13.581  19.147  0.00  0.00    +0.000 C 
ATOM     11  C   UNL     1      -1.079  12.139  21.239  0.00  0.00    +0.000 A 
ATOM     12  N   UNL     1      -0.097  11.253  20.883  0.00  0.00    +0.000 NA
ATOM     13  H   UNL     1       1.202   8.716  22.352  0.00  0.00    +0.000 HD
ENDROOT
BRANCH   7  14
ATOM     14  C   UNL     1      -4.374  14.778  22.540  0.00  0.00    +0.000 A 
ATOM     15  C   UNL     1      -4.224  15.804  23.528  0.00  0.00    +0.000 A 
ATOM     16  C   UNL     1      -2.901  16.428  23.909  0.00  0.00    +0.000 C 
ATOM     17  C   UNL     1      -5.342  16.304  24.226  0.00  0.00    +0.000 A 
ATOM     18  C   UNL     1      -6.626  15.911  23.894  0.00  0.00    +0.000 A 
ATOM     19  C   UNL     1      -6.810  15.060  22.816  0.00  0.00    +0.000 A 
ATOM     20  C   UNL     1      -5.714  14.495  22.128  0.00  0.00    +0.000 A 
ATOM     21  C   UNL     1      -6.078  13.641  20.939  0.00  0.00    +0.000 C 
ENDBRANCH   7  14
BRANCH   1  26
ATOM     22  C   UNL     1       2.472   6.496  19.461  0.00  0.00    +0.000 A 
ATOM     23  C   UNL     1       2.301   7.064  18.191  0.00  0.00    +0.000 A 
ATOM     24  C   UNL     1       1.818   8.366  18.021  0.00  0.00    +0.000 A 
ATOM     25  C   UNL     1       1.495   9.152  19.126  0.00  0.00    +0.000 A 
ATOM     26  C   UNL     1       1.682   8.656  20.412  0.00  0.00    +0.000 A 
ATOM     27  C   UNL     1       2.169   7.332  20.558  0.00  0.00    +0.000 A 
BRANCH  22  34
ATOM     28  C   UNL     1       4.237   4.651  19.758  0.00  0.00    +0.000 C 
ATOM     29  C   UNL     1       4.435   3.488  18.723  0.00  0.00    +0.000 C 
ATOM     30  N   UNL     1       3.451   2.385  18.926  0.00  0.00    +0.000 NA
ATOM     31  C   UNL     1       3.627   1.329  17.933  0.00  0.00    +0.000 C 
ATOM     32  C   UNL     1       2.082   2.945  18.860  0.00  0.00    +0.000 C 
ATOM     33  C   UNL     1       1.857   4.121  19.845  0.00  0.00    +0.000 C 
ATOM     34  N   UNL     1       2.861   5.177  19.603  0.00  0.00    +0.000 N 
BRANCH  28  35
ATOM     35  O   UNL     1       5.301   5.594  19.647  0.00  0.00    +0.000 OA
BRANCH  35  36
ATOM     36  C   UNL     1       6.137   5.453  18.499  0.00  0.00    +0.000 C 
BRANCH  36  38
ATOM     37  C   UNL     1       7.532   7.283  17.556  0.00  0.00    +0.000 C 
ATOM     38  C   UNL     1       7.495   6.138  18.559  0.00  0.00    +0.000 C 
ENDBRANCH  36  38
ENDBRANCH  35  36
ENDBRANCH  28  35
ENDBRANCH  22  34
ENDBRANCH   1  26
TORSDOF 6
ENDMDL
