MODEL 1
REMARK VINA RESULT:      -7.9      0.000      0.000
REMARK  Name = 
REMARK  7 active torsions:
REMARK  status: ('A' for Active; 'I' for Inactive)
REMARK    1  A    between atoms: C_1  and  O_2
REMARK    2  A    between atoms: O_2  and  C_3
REMARK    3  A    between atoms: C_5  and  C_6
REMARK    4  A    between atoms: C_6  and  O_7
REMARK    5  A    between atoms: C_6  and  C_8
REMARK    6  A    between atoms: C_10  and  C_11
REMARK    7  A    between atoms: C_15  and  C_16
REMARK                            x       y       z     vdW  Elec       q    Type
REMARK                         _______ _______ _______ _____ _____    ______ ____
ROOT
ATOM      1  C   UNL     1       3.505   4.454  19.106  0.00  0.00    +0.000 A 
ATOM      2  N   UNL     1       3.250   5.678  18.682  0.00  0.00    +0.000 NA
ATOM      3  C   UNL     1       2.381   6.315  19.555  0.00  0.00    +0.000 A 
ATOM      4  C   UNL     1       1.958   5.545  20.619  0.00  0.00    +0.000 A 
ATOM      5  S   UNL     1       2.674   3.988  20.540  0.00  0.00    +0.000 S 
ENDROOT
BRANCH   3   6
ATOM      6  C   UNL     1       1.970   7.692  19.321  0.00  0.00    +0.000 A 
ATOM      7  C   UNL     1       2.163   8.263  18.056  0.00  0.00    +0.000 A 
ATOM      8  C   UNL     1       1.803   9.589  17.808  0.00  0.00    +0.000 A 
ATOM      9  C   UNL     1       1.255  10.364  18.829  0.00  0.00    +0.000 A 
ATOM     10  C   UNL     1       1.064   9.812  20.100  0.00  0.00    +0.000 A 
ATOM     11  C   UNL     1       1.416   8.478  20.344  0.00  0.00    +0.000 A 
BRANCH  10  12
ATOM     12  C   UNL     1       0.520  10.614  21.157  0.00  0.00    +0.000 C 
ATOM     13  N   UNL     1       0.086  11.264  22.014  0.00  0.00    +0.000 NA
ENDBRANCH  10  12
ENDBRANCH   3   6
BRANCH   1  14
ATOM     14  C   UNL     1       4.495   3.512  18.455  0.00  0.00    +0.000 C 
BRANCH  14  17
ATOM     15  C   UNL     1       6.875   5.580  16.251  0.00  0.00    +0.000 A 
ATOM     16  C   UNL     1       6.178   5.071  17.354  0.00  0.00    +0.000 A 
ATOM     17  C   UNL     1       5.200   4.062  17.219  0.00  0.00    +0.000 A 
ATOM     18  C   UNL     1       4.965   3.541  15.938  0.00  0.00    +0.000 A 
ATOM     19  C   UNL     1       5.653   4.042  14.831  0.00  0.00    +0.000 A 
ATOM     20  C   UNL     1       6.595   5.055  14.990  0.00  0.00    +0.000 A 
ATOM     21  F   UNL     1       7.222   5.494  13.889  0.00  0.00    +0.000 F 
BRANCH  15  23
ATOM     22  C   UNL     1       7.425   7.457  17.605  0.00  0.00    +0.000 C 
ATOM     23  O   UNL     1       7.779   6.559  16.560  0.00  0.00    +0.000 OA
ENDBRANCH  15  23
ENDBRANCH  14  17
BRANCH  14  24
ATOM     24  O   UNL     1       5.465   3.218  19.467  0.00  0.00    +0.000 OA
ATOM     25  H   UNL     1       4.946   3.064  20.279  0.00  0.00    +0.000 HD
ENDBRANCH  14  24
ENDBRANCH   1  14
TORSDOF 6
ENDMDL
MODEL 2
REMARK VINA RESULT:      -7.6      1.097      1.868
REMARK  Name = 
REMARK  7 active torsions:
REMARK  status: ('A' for Active; 'I' for Inactive)
REMARK    1  A    between atoms: C_1  and  O_2
REMARK    2  A    between atoms: O_2  and  C_3
REMARK    3  A    between atoms: C_5  and  C_6
REMARK    4  A    between atoms: C_6  and  O_7
REMARK    5  A    between atoms: C_6  and  C_8
REMARK    6  A    between atoms: C_10  and  C_11
REMARK    7  A    between atoms: C_15  and  C_16
REMARK                            x       y       z     vdW  Elec       q    Type
REMARK                         _______ _______ _______ _____ _____    ______ ____
ROOT
ATOM      1  C   UNL     1       3.384   4.313  19.200  0.00  0.00    +0.000 A 
ATOM      2  N   UNL     1       3.146   5.528  18.742  0.00  0.00    +0.000 NA
ATOM      3  C   UNL     1       2.349   6.228  19.634  0.00  0.00    +0.000 A 
ATOM      4  C   UNL     1       1.960   5.516  20.749  0.00  0.00    +0.000 A 
ATOM      5  S   UNL     1       2.618   3.932  20.695  0.00  0.00    +0.000 S 
ENDROOT
BRANCH   3   6
ATOM      6  C   UNL     1       1.972   7.610  19.367  0.00  0.00    +0.000 A 
ATOM      7  C   UNL     1       2.172   8.142  18.086  0.00  0.00    +0.000 A 
ATOM      8  C   UNL     1       1.845   9.470  17.805  0.00  0.00    +0.000 A 
ATOM      9  C   UNL     1       1.323  10.285  18.809  0.00  0.00    +0.000 A 
ATOM     10  C   UNL     1       1.126   9.771  20.095  0.00  0.00    +0.000 A 
ATOM     11  C   UNL     1       1.446   8.435  20.372  0.00  0.00    +0.000 A 
BRANCH  10  12
ATOM     12  C   UNL     1       0.610  10.614  21.135  0.00  0.00    +0.000 C 
ATOM     13  N   UNL     1       0.195  11.301  21.972  0.00  0.00    +0.000 NA
ENDBRANCH  10  12
ENDBRANCH   3   6
BRANCH   1  14
ATOM     14  C   UNL     1       4.303   3.311  18.535  0.00  0.00    +0.000 C 
BRANCH  14  17
ATOM     15  C   UNL     1       5.712   4.372  15.117  0.00  0.00    +0.000 A 
ATOM     16  C   UNL     1       4.898   3.822  16.114  0.00  0.00    +0.000 A 
ATOM     17  C   UNL     1       5.242   3.890  17.482  0.00  0.00    +0.000 A 
ATOM     18  C   UNL     1       6.419   4.569  17.831  0.00  0.00    +0.000 A 
ATOM     19  C   UNL     1       7.239   5.121  16.844  0.00  0.00    +0.000 A 
ATOM     20  C   UNL     1       6.888   5.017  15.500  0.00  0.00    +0.000 A 
ATOM     21  F   UNL     1       7.717   5.566  14.601  0.00  0.00    +0.000 F 
BRANCH  15  23
ATOM     22  C   UNL     1       6.080   3.539  12.919  0.00  0.00    +0.000 C 
ATOM     23  O   UNL     1       5.234   4.208  13.846  0.00  0.00    +0.000 OA
ENDBRANCH  15  23
ENDBRANCH  14  17
BRANCH  14  24
ATOM     24  O   UNL     1       5.074   2.736  19.597  0.00  0.00    +0.000 OA
ATOM     25  H   UNL     1       4.594   1.924  19.847  0.00  0.00    +0.000 HD
ENDBRANCH  14  24
ENDBRANCH   1  14
TORSDOF 6
ENDMDL
MODEL 3
REMARK VINA RESULT:      -7.5      4.917      8.425
REMARK  Name = 
REMARK  7 active torsions:
REMARK  status: ('A' for Active; 'I' for Inactive)
REMARK    1  A    between atoms: C_1  and  O_2
REMARK    2  A    between atoms: O_2  and  C_3
REMARK    3  A    between atoms: C_5  and  C_6
REMARK    4  A    between atoms: C_6  and  O_7
REMARK    5  A    between atoms: C_6  and  C_8
REMARK    6  A    between atoms: C_10  and  C_11
REMARK    7  A    between atoms: C_15  and  C_16
REMARK                            x       y       z     vdW  Elec       q    Type
REMARK                         _______ _______ _______ _____ _____    ______ ____
ROOT
ATOM      1  C   UNL     1       1.394   9.507  19.165  0.00  0.00    +0.000 A 
ATOM      2  N   UNL     1       2.046   8.712  18.336  0.00  0.00    +0.000 NA
ATOM      3  C   UNL     1       2.275   7.482  18.934  0.00  0.00    +0.000 A 
ATOM      4  C   UNL     1       1.821   7.373  20.232  0.00  0.00    +0.000 A 
ATOM      5  S   UNL     1       1.074   8.838  20.719  0.00  0.00    +0.000 S 
ENDROOT
BRANCH   3   6
ATOM      6  C   UNL     1       2.954   6.418  18.207  0.00  0.00    +0.000 A 
ATOM      7  C   UNL     1       2.344   5.161  18.100  0.00  0.00    +0.000 A 
ATOM      8  C   UNL     1       2.980   4.113  17.430  0.00  0.00    +0.000 A 
ATOM      9  C   UNL     1       4.241   4.310  16.870  0.00  0.00    +0.000 A 
ATOM     10  C   UNL     1       4.867   5.556  16.976  0.00  0.00    +0.000 A 
ATOM     11  C   UNL     1       4.223   6.609  17.639  0.00  0.00    +0.000 A 
BRANCH  10  12
ATOM     12  C   UNL     1       6.174   5.754  16.419  0.00  0.00    +0.000 C 
ATOM     13  N   UNL     1       7.228   5.917  15.964  0.00  0.00    +0.000 NA
ENDBRANCH  10  12
ENDBRANCH   3   6
BRANCH   1  14
ATOM     14  C   UNL     1       0.886  10.887  18.806  0.00  0.00    +0.000 C 
BRANCH  14  17
ATOM     15  C   UNL     1      -2.542  10.240  17.186  0.00  0.00    +0.000 A 
ATOM     16  C   UNL     1      -1.170  10.217  17.465  0.00  0.00    +0.000 A 
ATOM     17  C   UNL     1      -0.608  10.975  18.516  0.00  0.00    +0.000 A 
ATOM     18  C   UNL     1      -1.476  11.734  19.316  0.00  0.00    +0.000 A 
ATOM     19  C   UNL     1      -2.845  11.764  19.046  0.00  0.00    +0.000 A 
ATOM     20  C   UNL     1      -3.369  11.027  17.987  0.00  0.00    +0.000 A 
ATOM     21  F   UNL     1      -4.691  11.099  17.778  0.00  0.00    +0.000 F 
BRANCH  15  23
ATOM     22  C   UNL     1      -3.037  10.094  14.864  0.00  0.00    +0.000 C 
ATOM     23  O   UNL     1      -2.914   9.456  16.129  0.00  0.00    +0.000 OA
ENDBRANCH  15  23
ENDBRANCH  14  17
BRANCH  14  24
ATOM     24  O   UNL     1       1.204  11.715  19.932  0.00  0.00    +0.000 OA
ATOM     25  H   UNL     1       2.176  11.799  19.918  0.00  0.00    +0.000 HD
ENDBRANCH  14  24
ENDBRANCH   1  14
TORSDOF 6
ENDMDL
MODEL 4
REMARK VINA RESULT:      -7.4      5.160      8.620
REMARK  Name = 
REMARK  7 active torsions:
REMARK  status: ('A' for Active; 'I' for Inactive)
REMARK    1  A    between atoms: C_1  and  O_2
REMARK    2  A    between atoms: O_2  and  C_3
REMARK    3  A    between atoms: C_5  and  C_6
REMARK    4  A    between atoms: C_6  and  O_7
REMARK    5  A    between atoms: C_6  and  C_8
REMARK    6  A    between atoms: C_10  and  C_11
REMARK    7  A    between atoms: C_15  and  C_16
REMARK                            x       y       z     vdW  Elec       q    Type
REMARK                         _______ _______ _______ _____ _____    ______ ____
ROOT
ATOM      1  C   UNL     1       1.248   9.498  19.004  0.00  0.00    +0.000 A 
ATOM      2  N   UNL     1       1.902   8.691  18.188  0.00  0.00    +0.000 NA
ATOM      3  C   UNL     1       2.265   7.530  18.853  0.00  0.00    +0.000 A 
ATOM      4  C   UNL     1       1.908   7.487  20.185  0.00  0.00    +0.000 A 
ATOM      5  S   UNL     1       1.084   8.927  20.620  0.00  0.00    +0.000 S 
ENDROOT
BRANCH   3   6
ATOM      6  C   UNL     1       2.974   6.466  18.155  0.00  0.00    +0.000 A 
ATOM      7  C   UNL     1       2.385   5.198  18.054  0.00  0.00    +0.000 A 
ATOM      8  C   UNL     1       3.049   4.151  17.413  0.00  0.00    +0.000 A 
ATOM      9  C   UNL     1       4.318   4.358  16.876  0.00  0.00    +0.000 A 
ATOM     10  C   UNL     1       4.924   5.614  16.976  0.00  0.00    +0.000 A 
ATOM     11  C   UNL     1       4.252   6.667  17.610  0.00  0.00    +0.000 A 
BRANCH  10  12
ATOM     12  C   UNL     1       6.239   5.823  16.443  0.00  0.00    +0.000 C 
ATOM     13  N   UNL     1       7.301   5.998  16.010  0.00  0.00    +0.000 NA
ENDBRANCH  10  12
ENDBRANCH   3   6
BRANCH   1  14
ATOM     14  C   UNL     1       0.613  10.807  18.586  0.00  0.00    +0.000 C 
BRANCH  14  17
ATOM     15  C   UNL     1      -3.141  11.627  18.774  0.00  0.00    +0.000 A 
ATOM     16  C   UNL     1      -1.760  11.623  19.009  0.00  0.00    +0.000 A 
ATOM     17  C   UNL     1      -0.889  10.747  18.326  0.00  0.00    +0.000 A 
ATOM     18  C   UNL     1      -1.440   9.892  17.360  0.00  0.00    +0.000 A 
ATOM     19  C   UNL     1      -2.815   9.887  17.119  0.00  0.00    +0.000 A 
ATOM     20  C   UNL     1      -3.655  10.744  17.825  0.00  0.00    +0.000 A 
ATOM     21  F   UNL     1      -4.966  10.691  17.549  0.00  0.00    +0.000 F 
BRANCH  15  23
ATOM     22  C   UNL     1      -3.371  12.761  20.852  0.00  0.00    +0.000 C 
ATOM     23  O   UNL     1      -3.836  12.531  19.528  0.00  0.00    +0.000 OA
ENDBRANCH  15  23
ENDBRANCH  14  17
BRANCH  14  24
ATOM     24  O   UNL     1       0.875  11.718  19.660  0.00  0.00    +0.000 OA
ATOM     25  H   UNL     1       0.337  12.507  19.460  0.00  0.00    +0.000 HD
ENDBRANCH  14  24
ENDBRANCH   1  14
TORSDOF 6
ENDMDL
MODEL 5
REMARK VINA RESULT:      -7.4      1.306      2.067
REMARK  Name = 
REMARK  7 active torsions:
REMARK  status: ('A' for Active; 'I' for Inactive)
REMARK    1  A    between atoms: C_1  and  O_2
REMARK    2  A    between atoms: O_2  and  C_3
REMARK    3  A    between atoms: C_5  and  C_6
REMARK    4  A    between atoms: C_6  and  O_7
REMARK    5  A    between atoms: C_6  and  C_8
REMARK    6  A    between atoms: C_10  and  C_11
REMARK    7  A    between atoms: C_15  and  C_16
REMARK                            x       y       z     vdW  Elec       q    Type
REMARK                         _______ _______ _______ _____ _____    ______ ____
ROOT
ATOM      1  C   UNL     1       3.445   4.310  19.483  0.00  0.00    +0.000 A 
ATOM      2  N   UNL     1       3.159   5.592  19.344  0.00  0.00    +0.000 NA
ATOM      3  C   UNL     1       2.085   5.932  20.154  0.00  0.00    +0.000 A 
ATOM      4  C   UNL     1       1.546   4.886  20.874  0.00  0.00    +0.000 A 
ATOM      5  S   UNL     1       2.408   3.440  20.547  0.00  0.00    +0.000 S 
ENDROOT
BRANCH   3   6
ATOM      6  C   UNL     1       1.597   7.303  20.202  0.00  0.00    +0.000 A 
ATOM      7  C   UNL     1       1.711   8.115  19.065  0.00  0.00    +0.000 A 
ATOM      8  C   UNL     1       1.275   9.441  19.088  0.00  0.00    +0.000 A 
ATOM      9  C   UNL     1       0.730   9.974  20.254  0.00  0.00    +0.000 A 
ATOM     10  C   UNL     1       0.619   9.180  21.401  0.00  0.00    +0.000 A 
ATOM     11  C   UNL     1       1.047   7.846  21.373  0.00  0.00    +0.000 A 
BRANCH  10  12
ATOM     12  C   UNL     1       0.078   9.734  22.609  0.00  0.00    +0.000 C 
ATOM     13  N   UNL     1      -0.360  10.175  23.587  0.00  0.00    +0.000 NA
ENDBRANCH  10  12
ENDBRANCH   3   6
BRANCH   1  14
ATOM     14  C   UNL     1       4.623   3.620  18.829  0.00  0.00    +0.000 C 
BRANCH  14  17
ATOM     15  C   UNL     1       6.571   5.568  16.144  0.00  0.00    +0.000 A 
ATOM     16  C   UNL     1       5.676   4.698  16.778  0.00  0.00    +0.000 A 
ATOM     17  C   UNL     1       5.643   4.551  18.181  0.00  0.00    +0.000 A 
ATOM     18  C   UNL     1       6.516   5.341  18.945  0.00  0.00    +0.000 A 
ATOM     19  C   UNL     1       7.414   6.211  18.323  0.00  0.00    +0.000 A 
ATOM     20  C   UNL     1       7.441   6.317  16.935  0.00  0.00    +0.000 A 
ATOM     21  F   UNL     1       8.326   7.169  16.398  0.00  0.00    +0.000 F 
BRANCH  15  23
ATOM     22  C   UNL     1       6.289   4.324  14.135  0.00  0.00    +0.000 C 
ATOM     23  O   UNL     1       6.473   5.579  14.780  0.00  0.00    +0.000 OA
ENDBRANCH  15  23
ENDBRANCH  14  17
BRANCH  14  24
ATOM     24  O   UNL     1       5.256   2.872  19.874  0.00  0.00    +0.000 OA
ATOM     25  H   UNL     1       5.934   3.471  20.240  0.00  0.00    +0.000 HD
ENDBRANCH  14  24
ENDBRANCH   1  14
TORSDOF 6
ENDMDL
MODEL 6
REMARK VINA RESULT:      -7.3      1.583      2.353
REMARK  Name = 
REMARK  7 active torsions:
REMARK  status: ('A' for Active; 'I' for Inactive)
REMARK    1  A    between atoms: C_1  and  O_2
REMARK    2  A    between atoms: O_2  and  C_3
REMARK    3  A    between atoms: C_5  and  C_6
REMARK    4  A    between atoms: C_6  and  O_7
REMARK    5  A    between atoms: C_6  and  C_8
REMARK    6  A    between atoms: C_10  and  C_11
REMARK    7  A    between atoms: C_15  and  C_16
REMARK                            x       y       z     vdW  Elec       q    Type
REMARK                         _______ _______ _______ _____ _____    ______ ____
ROOT
ATOM      1  C   UNL     1       3.533   4.520  17.971  0.00  0.00    +0.000 A 
ATOM      2  N   UNL     1       2.887   5.662  17.825  0.00  0.00    +0.000 NA
ATOM      3  C   UNL     1       2.773   6.306  19.047  0.00  0.00    +0.000 A 
ATOM      4  C   UNL     1       3.309   5.621  20.118  0.00  0.00    +0.000 A 
ATOM      5  S   UNL     1       3.988   4.137  19.586  0.00  0.00    +0.000 S 
ENDROOT
BRANCH   3   6
ATOM      6  C   UNL     1       2.124   7.607  19.144  0.00  0.00    +0.000 A 
ATOM      7  C   UNL     1       1.994   8.398  17.995  0.00  0.00    +0.000 A 
ATOM      8  C   UNL     1       1.399   9.660  18.060  0.00  0.00    +0.000 A 
ATOM      9  C   UNL     1       0.937  10.149  19.281  0.00  0.00    +0.000 A 
ATOM     10  C   UNL     1       1.068   9.375  20.439  0.00  0.00    +0.000 A 
ATOM     11  C   UNL     1       1.656   8.105  20.370  0.00  0.00    +0.000 A 
BRANCH  10  12
ATOM     12  C   UNL     1       0.613   9.885  21.700  0.00  0.00    +0.000 C 
ATOM     13  N   UNL     1       0.249  10.303  22.718  0.00  0.00    +0.000 NA
ENDBRANCH  10  12
ENDBRANCH   3   6
BRANCH   1  14
ATOM     14  C   UNL     1       3.928   3.608  16.828  0.00  0.00    +0.000 C 
BRANCH  14  17
ATOM     15  C   UNL     1       6.309   4.055  13.840  0.00  0.00    +0.000 A 
ATOM     16  C   UNL     1       5.272   3.606  14.668  0.00  0.00    +0.000 A 
ATOM     17  C   UNL     1       5.095   4.099  15.979  0.00  0.00    +0.000 A 
ATOM     18  C   UNL     1       5.973   5.096  16.430  0.00  0.00    +0.000 A 
ATOM     19  C   UNL     1       7.011   5.550  15.614  0.00  0.00    +0.000 A 
ATOM     20  C   UNL     1       7.177   5.028  14.333  0.00  0.00    +0.000 A 
ATOM     21  F   UNL     1       8.192   5.504  13.599  0.00  0.00    +0.000 F 
BRANCH  15  23
ATOM     22  C   UNL     1       5.085   3.199  11.989  0.00  0.00    +0.000 C 
ATOM     23  O   UNL     1       6.338   3.465  12.606  0.00  0.00    +0.000 OA
ENDBRANCH  15  23
ENDBRANCH  14  17
BRANCH  14  24
ATOM     24  O   UNL     1       4.273   2.359  17.439  0.00  0.00    +0.000 OA
ATOM     25  H   UNL     1       4.028   1.680  16.783  0.00  0.00    +0.000 HD
ENDBRANCH  14  24
ENDBRANCH   1  14
TORSDOF 6
ENDMDL
MODEL 7
REMARK VINA RESULT:      -7.3      1.835      2.748
REMARK  Name = 
REMARK  7 active torsions:
REMARK  status: ('A' for Active; 'I' for Inactive)
REMARK    1  A    between atoms: C_1  and  O_2
REMARK    2  A    between atoms: O_2  and  C_3
REMARK    3  A    between atoms: C_5  and  C_6
REMARK    4  A    between atoms: C_6  and  O_7
REMARK    5  A    between atoms: C_6  and  C_8
REMARK    6  A    between atoms: C_10  and  C_11
REMARK    7  A    between atoms: C_15  and  C_16
REMARK                            x       y       z     vdW  Elec       q    Type
REMARK                         _______ _______ _______ _____ _____    ______ ____
ROOT
ATOM      1  C   UNL     1       2.829   6.890  18.918  0.00  0.00    +0.000 A 
ATOM      2  N   UNL     1       2.229   7.368  19.993  0.00  0.00    +0.000 NA
ATOM      3  C   UNL     1       1.592   8.563  19.693  0.00  0.00    +0.000 A 
ATOM      4  C   UNL     1       1.750   8.996  18.393  0.00  0.00    +0.000 A 
ATOM      5  S   UNL     1       2.706   7.877  17.512  0.00  0.00    +0.000 S 
ENDROOT
BRANCH   3   6
ATOM      6  C   UNL     1       0.829   9.273  20.711  0.00  0.00    +0.000 A 
ATOM      7  C   UNL     1       0.905   8.853  22.046  0.00  0.00    +0.000 A 
ATOM      8  C   UNL     1       0.166   9.497  23.040  0.00  0.00    +0.000 A 
ATOM      9  C   UNL     1      -0.666  10.565  22.707  0.00  0.00    +0.000 A 
ATOM     10  C   UNL     1      -0.760  10.990  21.378  0.00  0.00    +0.000 A 
ATOM     11  C   UNL     1      -0.010  10.349  20.383  0.00  0.00    +0.000 A 
BRANCH  10  12
ATOM     12  C   UNL     1      -1.633  12.074  21.029  0.00  0.00    +0.000 C 
ATOM     13  N   UNL     1      -2.343  12.948  20.752  0.00  0.00    +0.000 NA
ENDBRANCH  10  12
ENDBRANCH   3   6
BRANCH   1  14
ATOM     14  C   UNL     1       3.532   5.551  18.854  0.00  0.00    +0.000 C 
BRANCH  14  17
ATOM     15  C   UNL     1       6.651   6.008  16.648  0.00  0.00    +0.000 A 
ATOM     16  C   UNL     1       5.703   6.152  17.670  0.00  0.00    +0.000 A 
ATOM     17  C   UNL     1       4.516   5.388  17.700  0.00  0.00    +0.000 A 
ATOM     18  C   UNL     1       4.320   4.436  16.688  0.00  0.00    +0.000 A 
ATOM     19  C   UNL     1       5.258   4.285  15.665  0.00  0.00    +0.000 A 
ATOM     20  C   UNL     1       6.409   5.070  15.646  0.00  0.00    +0.000 A 
ATOM     21  F   UNL     1       7.270   4.879  14.636  0.00  0.00    +0.000 F 
BRANCH  15  23
ATOM     22  C   UNL     1       7.585   7.982  17.592  0.00  0.00    +0.000 C 
ATOM     23  O   UNL     1       7.736   6.832  16.769  0.00  0.00    +0.000 OA
ENDBRANCH  15  23
ENDBRANCH  14  17
BRANCH  14  24
ATOM     24  O   UNL     1       4.232   5.428  20.099  0.00  0.00    +0.000 OA
ATOM     25  H   UNL     1       4.501   6.337  20.329  0.00  0.00    +0.000 HD
ENDBRANCH  14  24
ENDBRANCH   1  14
TORSDOF 6
ENDMDL
MODEL 8
REMARK VINA RESULT:      -7.2      5.274      8.703
REMARK  Name = 
REMARK  7 active torsions:
REMARK  status: ('A' for Active; 'I' for Inactive)
REMARK    1  A    between atoms: C_1  and  O_2
REMARK    2  A    between atoms: O_2  and  C_3
REMARK    3  A    between atoms: C_5  and  C_6
REMARK    4  A    between atoms: C_6  and  O_7
REMARK    5  A    between atoms: C_6  and  C_8
REMARK    6  A    between atoms: C_10  and  C_11
REMARK    7  A    between atoms: C_15  and  C_16
REMARK                            x       y       z     vdW  Elec       q    Type
REMARK                         _______ _______ _______ _____ _____    ______ ____
ROOT
ATOM      1  C   UNL     1       1.054   9.726  19.083  0.00  0.00    +0.000 A 
ATOM      2  N   UNL     1       1.762   8.961  18.272  0.00  0.00    +0.000 NA
ATOM      3  C   UNL     1       2.163   7.809  18.930  0.00  0.00    +0.000 A 
ATOM      4  C   UNL     1       1.781   7.732  20.254  0.00  0.00    +0.000 A 
ATOM      5  S   UNL     1       0.883   9.128  20.688  0.00  0.00    +0.000 S 
ENDROOT
BRANCH   3   6
ATOM      6  C   UNL     1       2.934   6.787  18.235  0.00  0.00    +0.000 A 
ATOM      7  C   UNL     1       4.035   7.166  17.457  0.00  0.00    +0.000 A 
ATOM      8  C   UNL     1       4.779   6.213  16.758  0.00  0.00    +0.000 A 
ATOM      9  C   UNL     1       4.420   4.867  16.823  0.00  0.00    +0.000 A 
ATOM     10  C   UNL     1       3.317   4.474  17.588  0.00  0.00    +0.000 A 
ATOM     11  C   UNL     1       2.578   5.431  18.296  0.00  0.00    +0.000 A 
BRANCH  10  12
ATOM     12  C   UNL     1       2.933   3.092  17.637  0.00  0.00    +0.000 C 
ATOM     13  N   UNL     1       2.618   1.977  17.682  0.00  0.00    +0.000 NA
ENDBRANCH  10  12
ENDBRANCH   3   6
BRANCH   1  14
ATOM     14  C   UNL     1       0.369  11.011  18.668  0.00  0.00    +0.000 C 
BRANCH  14  17
ATOM     15  C   UNL     1      -3.421  11.662  18.767  0.00  0.00    +0.000 A 
ATOM     16  C   UNL     1      -2.048  11.719  19.035  0.00  0.00    +0.000 A 
ATOM     17  C   UNL     1      -1.122  10.885  18.371  0.00  0.00    +0.000 A 
ATOM     18  C   UNL     1      -1.611  10.011  17.389  0.00  0.00    +0.000 A 
ATOM     19  C   UNL     1      -2.978   9.946  17.114  0.00  0.00    +0.000 A 
ATOM     20  C   UNL     1      -3.872  10.762  17.802  0.00  0.00    +0.000 A 
ATOM     21  F   UNL     1      -5.172  10.652  17.494  0.00  0.00    +0.000 F 
BRANCH  15  23
ATOM     22  C   UNL     1      -3.575  13.067  20.681  0.00  0.00    +0.000 C 
ATOM     23  O   UNL     1      -4.174  12.532  19.507  0.00  0.00    +0.000 OA
ENDBRANCH  15  23
ENDBRANCH  14  17
BRANCH  14  24
ATOM     24  O   UNL     1       0.564  11.917  19.760  0.00  0.00    +0.000 OA
ATOM     25  H   UNL     1       1.413  12.360  19.574  0.00  0.00    +0.000 HD
ENDBRANCH  14  24
ENDBRANCH   1  14
TORSDOF 6
ENDMDL
MODEL 9
REMARK VINA RESULT:      -7.2      2.185      3.317
REMARK  Name = 
REMARK  7 active torsions:
REMARK  status: ('A' for Active; 'I' for Inactive)
REMARK    1  A    between atoms: C_1  and  O_2
REMARK    2  A    between atoms: O_2  and  C_3
REMARK    3  A    between atoms: C_5  and  C_6
REMARK    4  A    between atoms: C_6  and  O_7
REMARK    5  A    between atoms: C_6  and  C_8
REMARK    6  A    between atoms: C_10  and  C_11
REMARK    7  A    between atoms: C_15  and  C_16
REMARK                            x       y       z     vdW  Elec       q    Type
REMARK                         _______ _______ _______ _____ _____    ______ ____
ROOT
ATOM      1  C   UNL     1       2.145   6.924  19.539  0.00  0.00    +0.000 A 
ATOM      2  N   UNL     1       1.513   7.532  20.526  0.00  0.00    +0.000 NA
ATOM      3  C   UNL     1       1.196   8.832  20.161  0.00  0.00    +0.000 A 
ATOM      4  C   UNL     1       1.628   9.205  18.905  0.00  0.00    +0.000 A 
ATOM      5  S   UNL     1       2.439   7.896  18.149  0.00  0.00    +0.000 S 
ENDROOT
BRANCH   3   6
ATOM      6  C   UNL     1       0.465   9.702  21.073  0.00  0.00    +0.000 A 
ATOM      7  C   UNL     1       0.097   9.221  22.336  0.00  0.00    +0.000 A 
ATOM      8  C   UNL     1      -0.626  10.021  23.222  0.00  0.00    +0.000 A 
ATOM      9  C   UNL     1      -0.998  11.312  22.849  0.00  0.00    +0.000 A 
ATOM     10  C   UNL     1      -0.647  11.804  21.588  0.00  0.00    +0.000 A 
ATOM     11  C   UNL     1       0.088  11.002  20.703  0.00  0.00    +0.000 A 
BRANCH  10  12
ATOM     12  C   UNL     1      -1.048  13.123  21.193  0.00  0.00    +0.000 C 
ATOM     13  N   UNL     1      -1.372  14.191  20.880  0.00  0.00    +0.000 NA
ENDBRANCH  10  12
ENDBRANCH   3   6
BRANCH   1  14
ATOM     14  C   UNL     1       2.547   5.465  19.551  0.00  0.00    +0.000 C 
BRANCH  14  17
ATOM     15  C   UNL     1       6.201   4.961  18.459  0.00  0.00    +0.000 A 
ATOM     16  C   UNL     1       5.062   5.301  19.200  0.00  0.00    +0.000 A 
ATOM     17  C   UNL     1       3.758   5.117  18.691  0.00  0.00    +0.000 A 
ATOM     18  C   UNL     1       3.624   4.539  17.420  0.00  0.00    +0.000 A 
ATOM     19  C   UNL     1       4.752   4.198  16.673  0.00  0.00    +0.000 A 
ATOM     20  C   UNL     1       6.028   4.414  17.189  0.00  0.00    +0.000 A 
ATOM     21  F   UNL     1       7.072   4.067  16.422  0.00  0.00    +0.000 F 
BRANCH  15  23
ATOM     22  C   UNL     1       8.013   6.459  18.825  0.00  0.00    +0.000 C 
ATOM     23  O   UNL     1       7.383   5.214  19.099  0.00  0.00    +0.000 OA
ENDBRANCH  15  23
ENDBRANCH  14  17
BRANCH  14  24
ATOM     24  O   UNL     1       2.830   5.158  20.921  0.00  0.00    +0.000 OA
ATOM     25  H   UNL     1       2.470   5.910  21.429  0.00  0.00    +0.000 HD
ENDBRANCH  14  24
ENDBRANCH   1  14
TORSDOF 6
ENDMDL
