MODEL 1
REMARK VINA RESULT:      -7.0      0.000      0.000
REMARK  Name = 
REMARK  8 active torsions:
REMARK  status: ('A' for Active; 'I' for Inactive)
REMARK    1  A    between atoms: S_2  and  O_4
REMARK    2  A    between atoms: S_2  and  C_21
REMARK    3  A    between atoms: O_4  and  C_5
REMARK    4  A    between atoms: C_5  and  C_6
REMARK    5  A    between atoms: C_5  and  C_15
REMARK    6  A    between atoms: C_6  and  N_7
REMARK    7  A    between atoms: N_7  and  C_8
REMARK    8  A    between atoms: C_8  and  C_9
REMARK                            x       y       z     vdW  Elec       q    Type
REMARK                         _______ _______ _______ _____ _____    ______ ____
ROOT
ATOM      1  C   UNL     1       5.202   5.233  18.179  0.00  0.00    +0.000 C 
ENDROOT
BRANCH   1   2
ATOM      2  C   UNL     1       4.387   3.948  18.306  0.00  0.00    +0.000 A 
ATOM      3  C   UNL     1       3.371   3.674  17.370  0.00  0.00    +0.000 A 
ATOM      4  C   UNL     1       2.737   2.429  17.346  0.00  0.00    +0.000 A 
ATOM      5  C   UNL     1       3.110   1.437  18.251  0.00  0.00    +0.000 A 
ATOM      6  C   UNL     1       4.090   1.703  19.204  0.00  0.00    +0.000 A 
ATOM      7  C   UNL     1       4.706   2.956  19.249  0.00  0.00    +0.000 A 
ENDBRANCH   1   2
BRANCH   1   8
ATOM      8  O   UNL     1       5.527   5.510  16.813  0.00  0.00    +0.000 OA
BRANCH   8  10
ATOM      9  O   UNL     1       7.638   6.776  16.363  0.00  0.00    +0.000 OA
ATOM     10  S   UNL     1       7.095   5.435  16.393  0.00  0.00    +0.000 S 
ATOM     11  O   UNL     1       7.705   4.411  17.219  0.00  0.00    +0.000 OA
BRANCH  10  12
ATOM     12  C   UNL     1       7.244   4.880  14.711  0.00  0.00    +0.000 A 
ATOM     13  C   UNL     1       8.067   5.689  13.900  0.00  0.00    +0.000 A 
ATOM     14  C   UNL     1       8.035   5.567  12.515  0.00  0.00    +0.000 A 
ATOM     15  C   UNL     1       7.197   4.624  11.934  0.00  0.00    +0.000 A 
ATOM     16  C   UNL     1       6.423   3.774  12.738  0.00  0.00    +0.000 A 
ATOM     17 CL   UNL     1       5.422   2.629  11.908  0.00  0.00    +0.000 Cl
ATOM     18  C   UNL     1       6.440   3.888  14.143  0.00  0.00    +0.000 A 
ATOM     19 CL   UNL     1       5.448   2.833  15.088  0.00  0.00    +0.000 Cl
ENDBRANCH  10  12
ENDBRANCH   8  10
ENDBRANCH   1   8
BRANCH   1  20
ATOM     20  C   UNL     1       4.468   6.451  18.842  0.00  0.00    +0.000 C 
BRANCH  20  21
ATOM     21  N   UNL     1       3.012   6.567  18.627  0.00  0.00    +0.000 NA
ATOM     22  H   UNL     1       2.679   5.782  18.067  0.00  0.00    +0.000 HD
BRANCH  21  23
ATOM     23  C   UNL     1       2.274   6.617  19.884  0.00  0.00    +0.000 C 
BRANCH  23  24
ATOM     24  C   UNL     1       1.877   5.259  20.391  0.00  0.00    +0.000 A 
ATOM     25  C   UNL     1       0.882   4.517  19.737  0.00  0.00    +0.000 A 
ATOM     26  C   UNL     1       0.583   3.216  20.147  0.00  0.00    +0.000 A 
ATOM     27  C   UNL     1       1.264   2.655  21.224  0.00  0.00    +0.000 A 
ATOM     28  C   UNL     1       2.234   3.395  21.899  0.00  0.00    +0.000 A 
ATOM     29  C   UNL     1       2.535   4.694  21.491  0.00  0.00    +0.000 A 
ENDBRANCH  23  24
ENDBRANCH  21  23
ENDBRANCH  20  21
ENDBRANCH   1  20
TORSDOF 8
ENDMDL
MODEL 2
REMARK VINA RESULT:      -6.9      4.689      7.668
REMARK  Name = 
REMARK  8 active torsions:
REMARK  status: ('A' for Active; 'I' for Inactive)
REMARK    1  A    between atoms: S_2  and  O_4
REMARK    2  A    between atoms: S_2  and  C_21
REMARK    3  A    between atoms: O_4  and  C_5
REMARK    4  A    between atoms: C_5  and  C_6
REMARK    5  A    between atoms: C_5  and  C_15
REMARK    6  A    between atoms: C_6  and  N_7
REMARK    7  A    between atoms: N_7  and  C_8
REMARK    8  A    between atoms: C_8  and  C_9
REMARK                            x       y       z     vdW  Elec       q    Type
REMARK                         _______ _______ _______ _____ _____    ______ ____
ROOT
ATOM      1  C   UNL     1       2.515   7.182  18.154  0.00  0.00    +0.000 C 
ENDROOT
BRANCH   1   2
ATOM      2  C   UNL     1       2.082   5.863  18.790  0.00  0.00    +0.000 A 
ATOM      3  C   UNL     1       2.154   5.707  20.187  0.00  0.00    +0.000 A 
ATOM      4  C   UNL     1       1.594   4.590  20.813  0.00  0.00    +0.000 A 
ATOM      5  C   UNL     1       0.950   3.615  20.054  0.00  0.00    +0.000 A 
ATOM      6  C   UNL     1       0.898   3.737  18.669  0.00  0.00    +0.000 A 
ATOM      7  C   UNL     1       1.483   4.838  18.037  0.00  0.00    +0.000 A 
ENDBRANCH   1   2
BRANCH   1   8
ATOM      8  O   UNL     1       2.154   8.298  18.976  0.00  0.00    +0.000 OA
BRANCH   8  10
ATOM      9  O   UNL     1       2.415  10.419  17.675  0.00  0.00    +0.000 OA
ATOM     10  S   UNL     1       1.413   9.546  18.247  0.00  0.00    +0.000 S 
ATOM     11  O   UNL     1       0.361   8.988  17.419  0.00  0.00    +0.000 OA
BRANCH  10  12
ATOM     12  C   UNL     1       0.609  10.564  19.463  0.00  0.00    +0.000 A 
ATOM     13  C   UNL     1       0.741  11.951  19.243  0.00  0.00    +0.000 A 
ATOM     14  C   UNL     1       0.442  12.859  20.252  0.00  0.00    +0.000 A 
ATOM     15  C   UNL     1      -0.010  12.389  21.479  0.00  0.00    +0.000 A 
ATOM     16  C   UNL     1      -0.204  11.015  21.682  0.00  0.00    +0.000 A 
ATOM     17 CL   UNL     1      -0.780  10.542  23.246  0.00  0.00    +0.000 Cl
ATOM     18  C   UNL     1       0.101  10.081  20.672  0.00  0.00    +0.000 A 
ATOM     19 CL   UNL     1      -0.132   8.395  20.982  0.00  0.00    +0.000 Cl
ENDBRANCH  10  12
ENDBRANCH   8  10
ENDBRANCH   1   8
BRANCH   1  20
ATOM     20  C   UNL     1       4.051   7.192  17.833  0.00  0.00    +0.000 C 
BRANCH  20  21
ATOM     21  N   UNL     1       4.534   6.270  16.787  0.00  0.00    +0.000 NA
ATOM     22  H   UNL     1       4.891   6.800  15.992  0.00  0.00    +0.000 HD
BRANCH  21  23
ATOM     23  C   UNL     1       5.574   5.375  17.281  0.00  0.00    +0.000 C 
BRANCH  23  24
ATOM     24  C   UNL     1       5.031   4.098  17.860  0.00  0.00    +0.000 A 
ATOM     25  C   UNL     1       5.143   3.835  19.234  0.00  0.00    +0.000 A 
ATOM     26  C   UNL     1       4.551   2.698  19.788  0.00  0.00    +0.000 A 
ATOM     27  C   UNL     1       3.858   1.810  18.971  0.00  0.00    +0.000 A 
ATOM     28  C   UNL     1       3.766   2.047  17.600  0.00  0.00    +0.000 A 
ATOM     29  C   UNL     1       4.355   3.182  17.044  0.00  0.00    +0.000 A 
ENDBRANCH  23  24
ENDBRANCH  21  23
ENDBRANCH  20  21
ENDBRANCH   1  20
TORSDOF 8
ENDMDL
MODEL 3
REMARK VINA RESULT:      -6.9      3.193      4.910
REMARK  Name = 
REMARK  8 active torsions:
REMARK  status: ('A' for Active; 'I' for Inactive)
REMARK    1  A    between atoms: S_2  and  O_4
REMARK    2  A    between atoms: S_2  and  C_21
REMARK    3  A    between atoms: O_4  and  C_5
REMARK    4  A    between atoms: C_5  and  C_6
REMARK    5  A    between atoms: C_5  and  C_15
REMARK    6  A    between atoms: C_6  and  N_7
REMARK    7  A    between atoms: N_7  and  C_8
REMARK    8  A    between atoms: C_8  and  C_9
REMARK                            x       y       z     vdW  Elec       q    Type
REMARK                         _______ _______ _______ _____ _____    ______ ____
ROOT
ATOM      1  C   UNL     1       3.162   5.726  18.573  0.00  0.00    +0.000 C 
ENDROOT
BRANCH   1   2
ATOM      2  C   UNL     1       2.364   4.795  19.482  0.00  0.00    +0.000 A 
ATOM      3  C   UNL     1       1.365   3.971  18.930  0.00  0.00    +0.000 A 
ATOM      4  C   UNL     1       0.749   2.979  19.698  0.00  0.00    +0.000 A 
ATOM      5  C   UNL     1       1.125   2.791  21.026  0.00  0.00    +0.000 A 
ATOM      6  C   UNL     1       2.088   3.618  21.598  0.00  0.00    +0.000 A 
ATOM      7  C   UNL     1       2.684   4.630  20.841  0.00  0.00    +0.000 A 
ENDBRANCH   1   2
BRANCH   1   8
ATOM      8  O   UNL     1       3.384   5.134  17.288  0.00  0.00    +0.000 OA
BRANCH   8  10
ATOM      9  O   UNL     1       4.727   3.184  18.094  0.00  0.00    +0.000 OA
ATOM     10  S   UNL     1       4.728   4.240  17.106  0.00  0.00    +0.000 S 
ATOM     11  O   UNL     1       4.840   3.928  15.694  0.00  0.00    +0.000 OA
BRANCH  10  12
ATOM     12  C   UNL     1       6.159   5.209  17.522  0.00  0.00    +0.000 A 
ATOM     13  C   UNL     1       6.989   4.632  18.505  0.00  0.00    +0.000 A 
ATOM     14  C   UNL     1       7.958   5.393  19.149  0.00  0.00    +0.000 A 
ATOM     15  C   UNL     1       8.116   6.729  18.800  0.00  0.00    +0.000 A 
ATOM     16  C   UNL     1       7.337   7.291  17.780  0.00  0.00    +0.000 A 
ATOM     17 CL   UNL     1       7.625   8.961  17.421  0.00  0.00    +0.000 Cl
ATOM     18  C   UNL     1       6.346   6.534  17.121  0.00  0.00    +0.000 A 
ATOM     19 CL   UNL     1       5.394   7.282  15.886  0.00  0.00    +0.000 Cl
ENDBRANCH  10  12
ENDBRANCH   8  10
ENDBRANCH   1   8
BRANCH   1  20
ATOM     20  C   UNL     1       2.473   7.129  18.434  0.00  0.00    +0.000 C 
BRANCH  20  21
ATOM     21  N   UNL     1       2.040   7.800  19.675  0.00  0.00    +0.000 NA
ATOM     22  H   UNL     1       2.846   7.982  20.273  0.00  0.00    +0.000 HD
BRANCH  21  23
ATOM     23  C   UNL     1       1.339   9.051  19.408  0.00  0.00    +0.000 C 
BRANCH  23  24
ATOM     24  C   UNL     1       0.561   9.558  20.590  0.00  0.00    +0.000 A 
ATOM     25  C   UNL     1       0.188   8.685  21.624  0.00  0.00    +0.000 A 
ATOM     26  C   UNL     1      -0.447   9.173  22.769  0.00  0.00    +0.000 A 
ATOM     27  C   UNL     1      -0.727  10.532  22.880  0.00  0.00    +0.000 A 
ATOM     28  C   UNL     1      -0.387  11.403  21.845  0.00  0.00    +0.000 A 
ATOM     29  C   UNL     1       0.248  10.919  20.701  0.00  0.00    +0.000 A 
ENDBRANCH  23  24
ENDBRANCH  21  23
ENDBRANCH  20  21
ENDBRANCH   1  20
TORSDOF 8
ENDMDL
MODEL 4
REMARK VINA RESULT:      -6.9      4.711      7.715
REMARK  Name = 
REMARK  8 active torsions:
REMARK  status: ('A' for Active; 'I' for Inactive)
REMARK    1  A    between atoms: S_2  and  O_4
REMARK    2  A    between atoms: S_2  and  C_21
REMARK    3  A    between atoms: O_4  and  C_5
REMARK    4  A    between atoms: C_5  and  C_6
REMARK    5  A    between atoms: C_5  and  C_15
REMARK    6  A    between atoms: C_6  and  N_7
REMARK    7  A    between atoms: N_7  and  C_8
REMARK    8  A    between atoms: C_8  and  C_9
REMARK                            x       y       z     vdW  Elec       q    Type
REMARK                         _______ _______ _______ _____ _____    ______ ____
ROOT
ATOM      1  C   UNL     1       2.603   7.183  17.859  0.00  0.00    +0.000 C 
ENDROOT
BRANCH   1   2
ATOM      2  C   UNL     1       2.144   5.931  18.602  0.00  0.00    +0.000 A 
ATOM      3  C   UNL     1       2.209   5.893  20.008  0.00  0.00    +0.000 A 
ATOM      4  C   UNL     1       1.627   4.844  20.724  0.00  0.00    +0.000 A 
ATOM      5  C   UNL     1       0.967   3.819  20.049  0.00  0.00    +0.000 A 
ATOM      6  C   UNL     1       0.921   3.824  18.658  0.00  0.00    +0.000 A 
ATOM      7  C   UNL     1       1.527   4.857  17.937  0.00  0.00    +0.000 A 
ENDBRANCH   1   2
BRANCH   1   8
ATOM      8  O   UNL     1       2.654   8.317  18.732  0.00  0.00    +0.000 OA
BRANCH   8  10
ATOM      9  O   UNL     1       2.269  10.679  18.007  0.00  0.00    +0.000 OA
ATOM     10  S   UNL     1       1.572   9.501  18.475  0.00  0.00    +0.000 S 
ATOM     11  O   UNL     1       0.492   8.925  17.697  0.00  0.00    +0.000 OA
BRANCH  10  12
ATOM     12  C   UNL     1       0.860  10.015  20.020  0.00  0.00    +0.000 A 
ATOM     13  C   UNL     1       1.139   9.158  21.105  0.00  0.00    +0.000 A 
ATOM     14  C   UNL     1       0.412   9.253  22.286  0.00  0.00    +0.000 A 
ATOM     15  C   UNL     1      -0.583  10.216  22.397  0.00  0.00    +0.000 A 
ATOM     16  C   UNL     1      -0.822  11.112  21.345  0.00  0.00    +0.000 A 
ATOM     17 CL   UNL     1      -2.079  12.277  21.596  0.00  0.00    +0.000 Cl
ATOM     18  C   UNL     1      -0.098  11.025  20.139  0.00  0.00    +0.000 A 
ATOM     19 CL   UNL     1      -0.448  12.138  18.862  0.00  0.00    +0.000 Cl
ENDBRANCH  10  12
ENDBRANCH   8  10
ENDBRANCH   1   8
BRANCH   1  20
ATOM     20  C   UNL     1       3.982   6.959  17.145  0.00  0.00    +0.000 C 
BRANCH  20  21
ATOM     21  N   UNL     1       5.094   6.436  17.963  0.00  0.00    +0.000 NA
ATOM     22  H   UNL     1       4.784   6.296  18.925  0.00  0.00    +0.000 HD
BRANCH  21  23
ATOM     23  C   UNL     1       5.623   5.183  17.435  0.00  0.00    +0.000 C 
BRANCH  23  24
ATOM     24  C   UNL     1       4.926   3.969  17.983  0.00  0.00    +0.000 A 
ATOM     25  C   UNL     1       4.263   3.080  17.124  0.00  0.00    +0.000 A 
ATOM     26  C   UNL     1       3.701   1.901  17.620  0.00  0.00    +0.000 A 
ATOM     27  C   UNL     1       3.784   1.612  18.979  0.00  0.00    +0.000 A 
ATOM     28  C   UNL     1       4.416   2.504  19.846  0.00  0.00    +0.000 A 
ATOM     29  C   UNL     1       4.978   3.681  19.353  0.00  0.00    +0.000 A 
ENDBRANCH  23  24
ENDBRANCH  21  23
ENDBRANCH  20  21
ENDBRANCH   1  20
TORSDOF 8
ENDMDL
MODEL 5
REMARK VINA RESULT:      -6.5      3.146      4.736
REMARK  Name = 
REMARK  8 active torsions:
REMARK  status: ('A' for Active; 'I' for Inactive)
REMARK    1  A    between atoms: S_2  and  O_4
REMARK    2  A    between atoms: S_2  and  C_21
REMARK    3  A    between atoms: O_4  and  C_5
REMARK    4  A    between atoms: C_5  and  C_6
REMARK    5  A    between atoms: C_5  and  C_15
REMARK    6  A    between atoms: C_6  and  N_7
REMARK    7  A    between atoms: N_7  and  C_8
REMARK    8  A    between atoms: C_8  and  C_9
REMARK                            x       y       z     vdW  Elec       q    Type
REMARK                         _______ _______ _______ _____ _____    ______ ____
ROOT
ATOM      1  C   UNL     1       3.292   5.802  17.941  0.00  0.00    +0.000 C 
ENDROOT
BRANCH   1   2
ATOM      2  C   UNL     1       2.465   4.969  18.918  0.00  0.00    +0.000 A 
ATOM      3  C   UNL     1       1.632   3.946  18.428  0.00  0.00    +0.000 A 
ATOM      4  C   UNL     1       1.010   3.049  19.301  0.00  0.00    +0.000 A 
ATOM      5  C   UNL     1       1.214   3.157  20.674  0.00  0.00    +0.000 A 
ATOM      6  C   UNL     1       2.008   4.183  21.178  0.00  0.00    +0.000 A 
ATOM      7  C   UNL     1       2.608   5.099  20.310  0.00  0.00    +0.000 A 
ENDBRANCH   1   2
BRANCH   1   8
ATOM      8  O   UNL     1       3.720   5.018  16.822  0.00  0.00    +0.000 OA
BRANCH   8  10
ATOM      9  O   UNL     1       5.845   4.128  15.849  0.00  0.00    +0.000 OA
ATOM     10  S   UNL     1       5.173   5.364  16.185  0.00  0.00    +0.000 S 
ATOM     11  O   UNL     1       4.961   6.385  15.177  0.00  0.00    +0.000 OA
BRANCH  10  12
ATOM     12  C   UNL     1       6.219   6.091  17.425  0.00  0.00    +0.000 A 
ATOM     13  C   UNL     1       6.805   7.317  17.048  0.00  0.00    +0.000 A 
ATOM     14  C   UNL     1       7.870   7.844  17.770  0.00  0.00    +0.000 A 
ATOM     15  C   UNL     1       8.342   7.159  18.884  0.00  0.00    +0.000 A 
ATOM     16  C   UNL     1       7.722   5.972  19.300  0.00  0.00    +0.000 A 
ATOM     17 CL   UNL     1       8.386   5.208  20.706  0.00  0.00    +0.000 Cl
ATOM     18  C   UNL     1       6.645   5.422  18.575  0.00  0.00    +0.000 A 
ATOM     19 CL   UNL     1       5.931   3.942  19.116  0.00  0.00    +0.000 Cl
ENDBRANCH  10  12
ENDBRANCH   8  10
ENDBRANCH   1   8
BRANCH   1  20
ATOM     20  C   UNL     1       2.516   7.081  17.469  0.00  0.00    +0.000 C 
BRANCH  20  21
ATOM     21  N   UNL     1       2.772   8.340  18.196  0.00  0.00    +0.000 NA
ATOM     22  H   UNL     1       3.567   8.826  17.781  0.00  0.00    +0.000 HD
BRANCH  21  23
ATOM     23  C   UNL     1       1.610   9.220  18.197  0.00  0.00    +0.000 C 
BRANCH  23  24
ATOM     24  C   UNL     1       0.976   9.361  19.553  0.00  0.00    +0.000 A 
ATOM     25  C   UNL     1       1.378   8.537  20.616  0.00  0.00    +0.000 A 
ATOM     26  C   UNL     1       0.862   8.734  21.899  0.00  0.00    +0.000 A 
ATOM     27  C   UNL     1      -0.069   9.744  22.124  0.00  0.00    +0.000 A 
ATOM     28  C   UNL     1      -0.496  10.549  21.069  0.00  0.00    +0.000 A 
ATOM     29  C   UNL     1       0.017  10.356  19.787  0.00  0.00    +0.000 A 
ENDBRANCH  23  24
ENDBRANCH  21  23
ENDBRANCH  20  21
ENDBRANCH   1  20
TORSDOF 8
ENDMDL
MODEL 6
REMARK VINA RESULT:      -6.5      7.078     10.307
REMARK  Name = 
REMARK  8 active torsions:
REMARK  status: ('A' for Active; 'I' for Inactive)
REMARK    1  A    between atoms: S_2  and  O_4
REMARK    2  A    between atoms: S_2  and  C_21
REMARK    3  A    between atoms: O_4  and  C_5
REMARK    4  A    between atoms: C_5  and  C_6
REMARK    5  A    between atoms: C_5  and  C_15
REMARK    6  A    between atoms: C_6  and  N_7
REMARK    7  A    between atoms: N_7  and  C_8
REMARK    8  A    between atoms: C_8  and  C_9
REMARK                            x       y       z     vdW  Elec       q    Type
REMARK                         _______ _______ _______ _____ _____    ______ ____
ROOT
ATOM      1  C   UNL     1      -0.012  10.201  19.525  0.00  0.00    +0.000 C 
ENDROOT
BRANCH   1   2
ATOM      2  C   UNL     1      -1.203  10.546  18.634  0.00  0.00    +0.000 A 
ATOM      3  C   UNL     1      -1.428   9.807  17.457  0.00  0.00    +0.000 A 
ATOM      4  C   UNL     1      -2.605   9.972  16.722  0.00  0.00    +0.000 A 
ATOM      5  C   UNL     1      -3.577  10.872  17.153  0.00  0.00    +0.000 A 
ATOM      6  C   UNL     1      -3.356  11.634  18.297  0.00  0.00    +0.000 A 
ATOM      7  C   UNL     1      -2.168  11.493  19.018  0.00  0.00    +0.000 A 
ENDBRANCH   1   2
BRANCH   1   8
ATOM      8  O   UNL     1      -0.427   9.479  20.690  0.00  0.00    +0.000 OA
BRANCH   8  10
ATOM      9  O   UNL     1      -0.494   9.220  23.177  0.00  0.00    +0.000 OA
ATOM     10  S   UNL     1       0.031  10.071  22.132  0.00  0.00    +0.000 S 
ATOM     11  O   UNL     1       1.453  10.342  22.046  0.00  0.00    +0.000 OA
BRANCH  10  12
ATOM     12  C   UNL     1      -0.762  11.635  22.422  0.00  0.00    +0.000 A 
ATOM     13  C   UNL     1      -1.983  11.550  23.123  0.00  0.00    +0.000 A 
ATOM     14  C   UNL     1      -2.858  12.630  23.154  0.00  0.00    +0.000 A 
ATOM     15  C   UNL     1      -2.511  13.806  22.501  0.00  0.00    +0.000 A 
ATOM     16  C   UNL     1      -1.271  13.918  21.856  0.00  0.00    +0.000 A 
ATOM     17 CL   UNL     1      -0.938  15.433  21.084  0.00  0.00    +0.000 Cl
ATOM     18  C   UNL     1      -0.375  12.831  21.810  0.00  0.00    +0.000 A 
ATOM     19 CL   UNL     1       1.131  13.012  20.979  0.00  0.00    +0.000 Cl
ENDBRANCH  10  12
ENDBRANCH   8  10
ENDBRANCH   1   8
BRANCH   1  20
ATOM     20  C   UNL     1       1.091   9.412  18.737  0.00  0.00    +0.000 C 
BRANCH  20  21
ATOM     21  N   UNL     1       1.895   8.430  19.490  0.00  0.00    +0.000 NA
ATOM     22  H   UNL     1       1.313   7.963  20.186  0.00  0.00    +0.000 HD
BRANCH  21  23
ATOM     23  C   UNL     1       2.506   7.434  18.618  0.00  0.00    +0.000 C 
BRANCH  23  24
ATOM     24  C   UNL     1       2.120   6.024  18.968  0.00  0.00    +0.000 A 
ATOM     25  C   UNL     1       1.840   5.673  20.297  0.00  0.00    +0.000 A 
ATOM     26  C   UNL     1       1.385   4.389  20.610  0.00  0.00    +0.000 A 
ATOM     27  C   UNL     1       1.223   3.446  19.599  0.00  0.00    +0.000 A 
ATOM     28  C   UNL     1       1.527   3.778  18.278  0.00  0.00    +0.000 A 
ATOM     29  C   UNL     1       1.980   5.058  17.963  0.00  0.00    +0.000 A 
ENDBRANCH  23  24
ENDBRANCH  21  23
ENDBRANCH  20  21
ENDBRANCH   1  20
TORSDOF 8
ENDMDL
MODEL 7
REMARK VINA RESULT:      -6.5      4.025      6.476
REMARK  Name = 
REMARK  8 active torsions:
REMARK  status: ('A' for Active; 'I' for Inactive)
REMARK    1  A    between atoms: S_2  and  O_4
REMARK    2  A    between atoms: S_2  and  C_21
REMARK    3  A    between atoms: O_4  and  C_5
REMARK    4  A    between atoms: C_5  and  C_6
REMARK    5  A    between atoms: C_5  and  C_15
REMARK    6  A    between atoms: C_6  and  N_7
REMARK    7  A    between atoms: N_7  and  C_8
REMARK    8  A    between atoms: C_8  and  C_9
REMARK                            x       y       z     vdW  Elec       q    Type
REMARK                         _______ _______ _______ _____ _____    ______ ____
ROOT
ATOM      1  C   UNL     1       4.706   5.395  17.943  0.00  0.00    +0.000 C 
ENDROOT
BRANCH   1   2
ATOM      2  C   UNL     1       6.089   6.034  18.052  0.00  0.00    +0.000 A 
ATOM      3  C   UNL     1       6.404   7.150  17.254  0.00  0.00    +0.000 A 
ATOM      4  C   UNL     1       7.585   7.868  17.462  0.00  0.00    +0.000 A 
ATOM      5  C   UNL     1       8.465   7.487  18.472  0.00  0.00    +0.000 A 
ATOM      6  C   UNL     1       8.184   6.366  19.249  0.00  0.00    +0.000 A 
ATOM      7  C   UNL     1       7.019   5.629  19.024  0.00  0.00    +0.000 A 
ENDBRANCH   1   2
BRANCH   1   8
ATOM      8  O   UNL     1       3.697   6.380  17.691  0.00  0.00    +0.000 OA
BRANCH   8  10
ATOM      9  O   UNL     1       1.341   5.669  18.140  0.00  0.00    +0.000 OA
ATOM     10  S   UNL     1       2.434   6.426  18.711  0.00  0.00    +0.000 S 
ATOM     11  O   UNL     1       2.944   6.102  20.030  0.00  0.00    +0.000 OA
BRANCH  10  12
ATOM     12  C   UNL     1       1.796   8.082  18.810  0.00  0.00    +0.000 A 
ATOM     13  C   UNL     1       2.152   8.910  17.726  0.00  0.00    +0.000 A 
ATOM     14  C   UNL     1       1.996  10.289  17.807  0.00  0.00    +0.000 A 
ATOM     15  C   UNL     1       1.466  10.846  18.965  0.00  0.00    +0.000 A 
ATOM     16  C   UNL     1       1.052  10.023  20.021  0.00  0.00    +0.000 A 
ATOM     17 CL   UNL     1       0.396  10.824  21.411  0.00  0.00    +0.000 Cl
ATOM     18  C   UNL     1       1.208   8.624  19.957  0.00  0.00    +0.000 A 
ATOM     19 CL   UNL     1       0.705   7.655  21.298  0.00  0.00    +0.000 Cl
ENDBRANCH  10  12
ENDBRANCH   8  10
ENDBRANCH   1   8
BRANCH   1  20
ATOM     20  C   UNL     1       4.674   4.265  16.855  0.00  0.00    +0.000 C 
BRANCH  20  21
ATOM     21  N   UNL     1       3.477   3.404  16.802  0.00  0.00    +0.000 NA
ATOM     22  H   UNL     1       3.351   3.038  15.858  0.00  0.00    +0.000 HD
BRANCH  21  23
ATOM     23  C   UNL     1       3.555   2.296  17.748  0.00  0.00    +0.000 C 
BRANCH  23  24
ATOM     24  C   UNL     1       2.795   2.549  19.020  0.00  0.00    +0.000 A 
ATOM     25  C   UNL     1       1.396   2.649  19.005  0.00  0.00    +0.000 A 
ATOM     26  C   UNL     1       0.682   2.784  20.198  0.00  0.00    +0.000 A 
ATOM     27  C   UNL     1       1.364   2.836  21.411  0.00  0.00    +0.000 A 
ATOM     28  C   UNL     1       2.756   2.767  21.433  0.00  0.00    +0.000 A 
ATOM     29  C   UNL     1       3.471   2.631  20.244  0.00  0.00    +0.000 A 
ENDBRANCH  23  24
ENDBRANCH  21  23
ENDBRANCH  20  21
ENDBRANCH   1  20
TORSDOF 8
ENDMDL
MODEL 8
REMARK VINA RESULT:      -6.4      4.474      7.924
REMARK  Name = 
REMARK  8 active torsions:
REMARK  status: ('A' for Active; 'I' for Inactive)
REMARK    1  A    between atoms: S_2  and  O_4
REMARK    2  A    between atoms: S_2  and  C_21
REMARK    3  A    between atoms: O_4  and  C_5
REMARK    4  A    between atoms: C_5  and  C_6
REMARK    5  A    between atoms: C_5  and  C_15
REMARK    6  A    between atoms: C_6  and  N_7
REMARK    7  A    between atoms: N_7  and  C_8
REMARK    8  A    between atoms: C_8  and  C_9
REMARK                            x       y       z     vdW  Elec       q    Type
REMARK                         _______ _______ _______ _____ _____    ______ ____
ROOT
ATOM      1  C   UNL     1       2.622   6.590  18.245  0.00  0.00    +0.000 C 
ENDROOT
BRANCH   1   2
ATOM      2  C   UNL     1       2.120   5.269  18.824  0.00  0.00    +0.000 A 
ATOM      3  C   UNL     1       1.892   5.159  20.209  0.00  0.00    +0.000 A 
ATOM      4  C   UNL     1       1.260   4.032  20.743  0.00  0.00    +0.000 A 
ATOM      5  C   UNL     1       0.842   3.003  19.903  0.00  0.00    +0.000 A 
ATOM      6  C   UNL     1       1.090   3.081  18.535  0.00  0.00    +0.000 A 
ATOM      7  C   UNL     1       1.747   4.192  18.002  0.00  0.00    +0.000 A 
ENDBRANCH   1   2
BRANCH   1   8
ATOM      8  O   UNL     1       2.281   7.692  19.093  0.00  0.00    +0.000 OA
BRANCH   8  10
ATOM      9  O   UNL     1       2.706  10.031  18.314  0.00  0.00    +0.000 OA
ATOM     10  S   UNL     1       1.674   9.019  18.378  0.00  0.00    +0.000 S 
ATOM     11  O   UNL     1       0.998   8.578  17.174  0.00  0.00    +0.000 OA
BRANCH  10  12
ATOM     12  C   UNL     1       0.429   9.748  19.416  0.00  0.00    +0.000 A 
ATOM     13  C   UNL     1      -0.353  10.737  18.783  0.00  0.00    +0.000 A 
ATOM     14  C   UNL     1      -1.143  11.601  19.532  0.00  0.00    +0.000 A 
ATOM     15  C   UNL     1      -1.172  11.471  20.915  0.00  0.00    +0.000 A 
ATOM     16  C   UNL     1      -0.446  10.450  21.545  0.00  0.00    +0.000 A 
ATOM     17 CL   UNL     1      -0.563  10.374  23.272  0.00  0.00    +0.000 Cl
ATOM     18  C   UNL     1       0.364   9.569  20.800  0.00  0.00    +0.000 A 
ATOM     19 CL   UNL     1       1.260   8.342  21.628  0.00  0.00    +0.000 Cl
ENDBRANCH  10  12
ENDBRANCH   8  10
ENDBRANCH   1   8
BRANCH   1  20
ATOM     20  C   UNL     1       4.166   6.551  17.966  0.00  0.00    +0.000 C 
BRANCH  20  21
ATOM     21  N   UNL     1       5.006   5.775  18.899  0.00  0.00    +0.000 NA
ATOM     22  H   UNL     1       4.543   5.699  19.805  0.00  0.00    +0.000 HD
BRANCH  21  23
ATOM     23  C   UNL     1       5.303   4.440  18.391  0.00  0.00    +0.000 C 
BRANCH  23  24
ATOM     24  C   UNL     1       5.806   4.445  16.974  0.00  0.00    +0.000 A 
ATOM     25  C   UNL     1       4.982   4.010  15.925  0.00  0.00    +0.000 A 
ATOM     26  C   UNL     1       5.412   4.108  14.600  0.00  0.00    +0.000 A 
ATOM     27  C   UNL     1       6.672   4.625  14.316  0.00  0.00    +0.000 A 
ATOM     28  C   UNL     1       7.510   5.033  15.354  0.00  0.00    +0.000 A 
ATOM     29  C   UNL     1       7.084   4.937  16.678  0.00  0.00    +0.000 A 
ENDBRANCH  23  24
ENDBRANCH  21  23
ENDBRANCH  20  21
ENDBRANCH   1  20
TORSDOF 8
ENDMDL
MODEL 9
REMARK VINA RESULT:      -6.4      4.729      8.272
REMARK  Name = 
REMARK  8 active torsions:
REMARK  status: ('A' for Active; 'I' for Inactive)
REMARK    1  A    between atoms: S_2  and  O_4
REMARK    2  A    between atoms: S_2  and  C_21
REMARK    3  A    between atoms: O_4  and  C_5
REMARK    4  A    between atoms: C_5  and  C_6
REMARK    5  A    between atoms: C_5  and  C_15
REMARK    6  A    between atoms: C_6  and  N_7
REMARK    7  A    between atoms: N_7  and  C_8
REMARK    8  A    between atoms: C_8  and  C_9
REMARK                            x       y       z     vdW  Elec       q    Type
REMARK                         _______ _______ _______ _____ _____    ______ ____
ROOT
ATOM      1  C   UNL     1       2.529   6.931  18.060  0.00  0.00    +0.000 C 
ENDROOT
BRANCH   1   2
ATOM      2  C   UNL     1       2.105   5.593  18.662  0.00  0.00    +0.000 A 
ATOM      3  C   UNL     1       1.913   5.485  20.053  0.00  0.00    +0.000 A 
ATOM      4  C   UNL     1       1.348   4.335  20.610  0.00  0.00    +0.000 A 
ATOM      5  C   UNL     1       0.962   3.278  19.789  0.00  0.00    +0.000 A 
ATOM      6  C   UNL     1       1.175   3.355  18.415  0.00  0.00    +0.000 A 
ATOM      7  C   UNL     1       1.766   4.492  17.857  0.00  0.00    +0.000 A 
ENDBRANCH   1   2
BRANCH   1   8
ATOM      8  O   UNL     1       2.422   7.990  19.019  0.00  0.00    +0.000 OA
BRANCH   8  10
ATOM      9  O   UNL     1       2.427  10.321  18.111  0.00  0.00    +0.000 OA
ATOM     10  S   UNL     1       1.539   9.287  18.597  0.00  0.00    +0.000 S 
ATOM     11  O   UNL     1       0.448   8.805  17.772  0.00  0.00    +0.000 OA
BRANCH  10  12
ATOM     12  C   UNL     1       0.797  10.009  20.041  0.00  0.00    +0.000 A 
ATOM     13  C   UNL     1       1.071   9.324  21.243  0.00  0.00    +0.000 A 
ATOM     14  C   UNL     1       0.325   9.579  22.388  0.00  0.00    +0.000 A 
ATOM     15  C   UNL     1      -0.685  10.533  22.345  0.00  0.00    +0.000 A 
ATOM     16  C   UNL     1      -0.919  11.262  21.170  0.00  0.00    +0.000 A 
ATOM     17 CL   UNL     1      -2.195  12.432  21.232  0.00  0.00    +0.000 Cl
ATOM     18  C   UNL     1      -0.176  11.012  19.999  0.00  0.00    +0.000 A 
ATOM     19 CL   UNL     1      -0.521  11.921  18.569  0.00  0.00    +0.000 Cl
ENDBRANCH  10  12
ENDBRANCH   8  10
ENDBRANCH   1   8
BRANCH   1  20
ATOM     20  C   UNL     1       3.976   6.862  17.458  0.00  0.00    +0.000 C 
BRANCH  20  21
ATOM     21  N   UNL     1       5.051   6.345  18.327  0.00  0.00    +0.000 NA
ATOM     22  H   UNL     1       4.762   6.391  19.305  0.00  0.00    +0.000 HD
BRANCH  21  23
ATOM     23  C   UNL     1       5.417   4.973  17.992  0.00  0.00    +0.000 C 
BRANCH  23  24
ATOM     24  C   UNL     1       5.800   4.799  16.549  0.00  0.00    +0.000 A 
ATOM     25  C   UNL     1       7.029   5.282  16.076  0.00  0.00    +0.000 A 
ATOM     26  C   UNL     1       7.429   5.033  14.760  0.00  0.00    +0.000 A 
ATOM     27  C   UNL     1       6.597   4.315  13.907  0.00  0.00    +0.000 A 
ATOM     28  C   UNL     1       5.360   3.856  14.360  0.00  0.00    +0.000 A 
ATOM     29  C   UNL     1       4.958   4.102  15.672  0.00  0.00    +0.000 A 
ENDBRANCH  23  24
ENDBRANCH  21  23
ENDBRANCH  20  21
ENDBRANCH   1  20
TORSDOF 8
ENDMDL
