MODEL 1
REMARK VINA RESULT:      -8.4      0.000      0.000
REMARK  Name = 
REMARK  11 active torsions:
REMARK  status: ('A' for Active; 'I' for Inactive)
REMARK    1  A    between atoms: C_1  and  C_2
REMARK    2  A    between atoms: C_2  and  C_3
REMARK    3  A    between atoms: C_2  and  N_4
REMARK    4  A    between atoms: N_4  and  C_5
REMARK    5  A    between atoms: C_5  and  C_6
REMARK    6  A    between atoms: N_10  and  C_11
REMARK    7  A    between atoms: C_12  and  C_14
REMARK    8  A    between atoms: C_16  and  C_17
REMARK    9  A    between atoms: C_17  and  O_18
REMARK   10  A    between atoms: O_18  and  C_19
REMARK   11  A    between atoms: C_23  and  C_24
REMARK                            x       y       z     vdW  Elec       q    Type
REMARK                         _______ _______ _______ _____ _____    ______ ____
ROOT
ATOM      1  C   UNL     1       6.262   5.695  17.027  0.00  0.00    +0.000 A 
ATOM      2  C   UNL     1       7.273   5.915  17.997  0.00  0.00    +0.000 A 
ATOM      3  C   UNL     1       7.608   7.235  17.852  0.00  0.00    +0.000 A 
ATOM      4  O   UNL     1       6.941   7.753  16.790  0.00  0.00    +0.000 OA
ATOM      5  N   UNL     1       6.124   6.780  16.242  0.00  0.00    +0.000 NA
ENDROOT
BRANCH   1   7
ATOM      6  N   UNL     1       4.660   4.005  17.931  0.00  0.00    +0.000 N 
ATOM      7  C   UNL     1       5.497   4.448  16.887  0.00  0.00    +0.000 C 
ATOM      8  O   UNL     1       5.629   3.802  15.845  0.00  0.00    +0.000 OA
BRANCH   6  10
ATOM      9  C   UNL     1       3.904   1.805  18.977  0.00  0.00    +0.000 C 
ATOM     10  C   UNL     1       3.876   2.760  17.774  0.00  0.00    +0.000 C 
ATOM     11  C   UNL     1       2.435   3.037  17.350  0.00  0.00    +0.000 C 
ENDBRANCH   6  10
BRANCH   6  12
ATOM     12  C   UNL     1       4.688   4.608  19.276  0.00  0.00    +0.000 C 
BRANCH  12  13
ATOM     13  C   UNL     1       3.560   5.574  19.552  0.00  0.00    +0.000 A 
ATOM     14  N   UNL     1       3.342   6.745  18.982  0.00  0.00    +0.000 NA
ATOM     15  C   UNL     1       2.175   7.222  19.519  0.00  0.00    +0.000 A 
ATOM     16  C   UNL     1       1.679   6.354  20.463  0.00  0.00    +0.000 A 
ATOM     17  N   UNL     1       2.547   5.295  20.450  0.00  0.00    +0.000 N 
ATOM     18  C   UNL     1       2.379   4.094  21.230  0.00  0.00    +0.000 C 
ENDBRANCH  12  13
ENDBRANCH   6  12
ENDBRANCH   1   7
BRANCH   3  19
ATOM     19  C   UNL     1       8.508   8.141  18.587  0.00  0.00    +0.000 C 
BRANCH  19  20
ATOM     20  O   UNL     1       8.344   9.416  17.980  0.00  0.00    +0.000 OA
BRANCH  20  21
ATOM     21  C   UNL     1       9.093  10.445  18.467  0.00  0.00    +0.000 A 
ATOM     22  C   UNL     1       9.321  10.379  19.843  0.00  0.00    +0.000 A 
ATOM     23  C   UNL     1      10.066  11.363  20.486  0.00  0.00    +0.000 A 
ATOM     24  C   UNL     1      10.589  12.429  19.754  0.00  0.00    +0.000 A 
ATOM     25  C   UNL     1      10.368  12.512  18.371  0.00  0.00    +0.000 A 
ATOM     26  C   UNL     1       9.618  11.508  17.732  0.00  0.00    +0.000 A 
BRANCH  25  27
ATOM     27  C   UNL     1      10.918  13.661  17.563  0.00  0.00    +0.000 C 
ATOM     28  F   UNL     1      12.025  14.238  18.110  0.00  0.00    +0.000 F 
ATOM     29  F   UNL     1      11.277  13.284  16.305  0.00  0.00    +0.000 F 
ATOM     30  F   UNL     1      10.011  14.666  17.406  0.00  0.00    +0.000 F 
ENDBRANCH  25  27
ENDBRANCH  20  21
ENDBRANCH  19  20
ENDBRANCH   3  19
TORSDOF 8
ENDMDL
MODEL 2
REMARK VINA RESULT:      -7.8      6.179      7.417
REMARK  Name = 
REMARK  11 active torsions:
REMARK  status: ('A' for Active; 'I' for Inactive)
REMARK    1  A    between atoms: C_1  and  C_2
REMARK    2  A    between atoms: C_2  and  C_3
REMARK    3  A    between atoms: C_2  and  N_4
REMARK    4  A    between atoms: N_4  and  C_5
REMARK    5  A    between atoms: C_5  and  C_6
REMARK    6  A    between atoms: N_10  and  C_11
REMARK    7  A    between atoms: C_12  and  C_14
REMARK    8  A    between atoms: C_16  and  C_17
REMARK    9  A    between atoms: C_17  and  O_18
REMARK   10  A    between atoms: O_18  and  C_19
REMARK   11  A    between atoms: C_23  and  C_24
REMARK                            x       y       z     vdW  Elec       q    Type
REMARK                         _______ _______ _______ _____ _____    ______ ____
ROOT
ATOM      1  C   UNL     1       4.723   3.841  18.764  0.00  0.00    +0.000 A 
ATOM      2  C   UNL     1       5.061   4.188  17.432  0.00  0.00    +0.000 A 
ATOM      3  C   UNL     1       6.391   4.509  17.486  0.00  0.00    +0.000 A 
ATOM      4  O   UNL     1       6.807   4.479  18.778  0.00  0.00    +0.000 OA
ATOM      5  N   UNL     1       5.754   4.100  19.591  0.00  0.00    +0.000 NA
ENDROOT
BRANCH   1   7
ATOM      6  N   UNL     1       2.492   4.125  19.852  0.00  0.00    +0.000 N 
ATOM      7  C   UNL     1       3.421   3.302  19.182  0.00  0.00    +0.000 C 
ATOM      8  O   UNL     1       3.182   2.116  18.945  0.00  0.00    +0.000 OA
BRANCH   6  10
ATOM      9  C   UNL     1       0.406   2.836  19.149  0.00  0.00    +0.000 C 
ATOM     10  C   UNL     1       1.175   3.582  20.251  0.00  0.00    +0.000 C 
ATOM     11  C   UNL     1       1.263   2.724  21.511  0.00  0.00    +0.000 C 
ENDBRANCH   6  10
BRANCH   6  12
ATOM     12  C   UNL     1       2.851   5.454  20.381  0.00  0.00    +0.000 C 
BRANCH  12  13
ATOM     13  C   UNL     1       2.549   6.601  19.445  0.00  0.00    +0.000 A 
ATOM     14  N   UNL     1       2.788   6.668  18.148  0.00  0.00    +0.000 NA
ATOM     15  C   UNL     1       2.292   7.875  17.729  0.00  0.00    +0.000 A 
ATOM     16  C   UNL     1       1.770   8.584  18.785  0.00  0.00    +0.000 A 
ATOM     17  N   UNL     1       1.907   7.751  19.863  0.00  0.00    +0.000 N 
ATOM     18  C   UNL     1       1.418   8.043  21.188  0.00  0.00    +0.000 C 
ENDBRANCH  12  13
ENDBRANCH   6  12
ENDBRANCH   1   7
BRANCH   3  19
ATOM     19  C   UNL     1       7.394   4.863  16.466  0.00  0.00    +0.000 C 
BRANCH  19  20
ATOM     20  O   UNL     1       6.682   5.577  15.464  0.00  0.00    +0.000 OA
BRANCH  20  21
ATOM     21  C   UNL     1       6.669   5.050  14.207  0.00  0.00    +0.000 A 
ATOM     22  C   UNL     1       7.846   5.265  13.489  0.00  0.00    +0.000 A 
ATOM     23  C   UNL     1       7.981   4.789  12.188  0.00  0.00    +0.000 A 
ATOM     24  C   UNL     1       6.929   4.096  11.590  0.00  0.00    +0.000 A 
ATOM     25  C   UNL     1       5.737   3.874  12.295  0.00  0.00    +0.000 A 
ATOM     26  C   UNL     1       5.617   4.354  13.612  0.00  0.00    +0.000 A 
BRANCH  25  27
ATOM     27  C   UNL     1       4.585   3.132  11.662  0.00  0.00    +0.000 C 
ATOM     28  F   UNL     1       3.542   2.911  12.509  0.00  0.00    +0.000 F 
ATOM     29  F   UNL     1       4.065   3.798  10.594  0.00  0.00    +0.000 F 
ATOM     30  F   UNL     1       4.953   1.907  11.193  0.00  0.00    +0.000 F 
ENDBRANCH  25  27
ENDBRANCH  20  21
ENDBRANCH  19  20
ENDBRANCH   3  19
TORSDOF 8
ENDMDL
MODEL 3
REMARK VINA RESULT:      -7.7      2.102      2.531
REMARK  Name = 
REMARK  11 active torsions:
REMARK  status: ('A' for Active; 'I' for Inactive)
REMARK    1  A    between atoms: C_1  and  C_2
REMARK    2  A    between atoms: C_2  and  C_3
REMARK    3  A    between atoms: C_2  and  N_4
REMARK    4  A    between atoms: N_4  and  C_5
REMARK    5  A    between atoms: C_5  and  C_6
REMARK    6  A    between atoms: N_10  and  C_11
REMARK    7  A    between atoms: C_12  and  C_14
REMARK    8  A    between atoms: C_16  and  C_17
REMARK    9  A    between atoms: C_17  and  O_18
REMARK   10  A    between atoms: O_18  and  C_19
REMARK   11  A    between atoms: C_23  and  C_24
REMARK                            x       y       z     vdW  Elec       q    Type
REMARK                         _______ _______ _______ _____ _____    ______ ____
ROOT
ATOM      1  C   UNL     1       6.754   5.679  17.723  0.00  0.00    +0.000 A 
ATOM      2  C   UNL     1       6.522   7.037  17.388  0.00  0.00    +0.000 A 
ATOM      3  C   UNL     1       7.605   7.707  17.894  0.00  0.00    +0.000 A 
ATOM      4  O   UNL     1       8.380   6.841  18.594  0.00  0.00    +0.000 OA
ATOM      5  N   UNL     1       7.831   5.573  18.526  0.00  0.00    +0.000 NA
ENDROOT
BRANCH   1   7
ATOM      6  N   UNL     1       4.869   4.083  18.093  0.00  0.00    +0.000 N 
ATOM      7  C   UNL     1       5.919   4.555  17.278  0.00  0.00    +0.000 C 
ATOM      8  O   UNL     1       6.179   4.035  16.191  0.00  0.00    +0.000 OA
BRANCH   6  10
ATOM      9  C   UNL     1       3.769   1.852  18.659  0.00  0.00    +0.000 C 
ATOM     10  C   UNL     1       4.018   2.965  17.629  0.00  0.00    +0.000 C 
ATOM     11  C   UNL     1       2.694   3.454  17.045  0.00  0.00    +0.000 C 
ENDBRANCH   6  10
BRANCH   6  12
ATOM     12  C   UNL     1       4.706   4.504  19.496  0.00  0.00    +0.000 C 
BRANCH  12  13
ATOM     13  C   UNL     1       3.545   5.440  19.738  0.00  0.00    +0.000 A 
ATOM     14  N   UNL     1       3.358   6.643  19.226  0.00  0.00    +0.000 NA
ATOM     15  C   UNL     1       2.144   7.074  19.693  0.00  0.00    +0.000 A 
ATOM     16  C   UNL     1       1.585   6.143  20.536  0.00  0.00    +0.000 A 
ATOM     17  N   UNL     1       2.466   5.095  20.529  0.00  0.00    +0.000 N 
ATOM     18  C   UNL     1       2.253   3.845  21.215  0.00  0.00    +0.000 C 
ENDBRANCH  12  13
ENDBRANCH   6  12
ENDBRANCH   1   7
BRANCH   3  19
ATOM     19  C   UNL     1       8.054   9.108  17.828  0.00  0.00    +0.000 C 
BRANCH  19  20
ATOM     20  O   UNL     1       9.104   9.218  18.780  0.00  0.00    +0.000 OA
BRANCH  20  21
ATOM     21  C   UNL     1       9.379  10.458  19.273  0.00  0.00    +0.000 A 
ATOM     22  C   UNL     1      10.180  11.236  18.437  0.00  0.00    +0.000 A 
ATOM     23  C   UNL     1      10.550  12.526  18.808  0.00  0.00    +0.000 A 
ATOM     24  C   UNL     1      10.121  13.047  20.028  0.00  0.00    +0.000 A 
ATOM     25  C   UNL     1       9.318  12.278  20.883  0.00  0.00    +0.000 A 
ATOM     26  C   UNL     1       8.946  10.979  20.493  0.00  0.00    +0.000 A 
BRANCH  25  27
ATOM     27  C   UNL     1       8.851  12.822  22.210  0.00  0.00    +0.000 C 
ATOM     28  F   UNL     1       9.726  13.693  22.786  0.00  0.00    +0.000 F 
ATOM     29  F   UNL     1       7.670  13.492  22.108  0.00  0.00    +0.000 F 
ATOM     30  F   UNL     1       8.642  11.838  23.128  0.00  0.00    +0.000 F 
ENDBRANCH  25  27
ENDBRANCH  20  21
ENDBRANCH  19  20
ENDBRANCH   3  19
TORSDOF 8
ENDMDL
MODEL 4
REMARK VINA RESULT:      -7.7      6.999      9.490
REMARK  Name = 
REMARK  11 active torsions:
REMARK  status: ('A' for Active; 'I' for Inactive)
REMARK    1  A    between atoms: C_1  and  C_2
REMARK    2  A    between atoms: C_2  and  C_3
REMARK    3  A    between atoms: C_2  and  N_4
REMARK    4  A    between atoms: N_4  and  C_5
REMARK    5  A    between atoms: C_5  and  C_6
REMARK    6  A    between atoms: N_10  and  C_11
REMARK    7  A    between atoms: C_12  and  C_14
REMARK    8  A    between atoms: C_16  and  C_17
REMARK    9  A    between atoms: C_17  and  O_18
REMARK   10  A    between atoms: O_18  and  C_19
REMARK   11  A    between atoms: C_23  and  C_24
REMARK                            x       y       z     vdW  Elec       q    Type
REMARK                         _______ _______ _______ _____ _____    ______ ____
ROOT
ATOM      1  C   UNL     1       2.522   7.730  18.508  0.00  0.00    +0.000 A 
ATOM      2  C   UNL     1       1.834   8.667  17.697  0.00  0.00    +0.000 A 
ATOM      3  C   UNL     1       1.103   9.416  18.581  0.00  0.00    +0.000 A 
ATOM      4  O   UNL     1       1.238   8.896  19.828  0.00  0.00    +0.000 OA
ATOM      5  N   UNL     1       2.096   7.812  19.783  0.00  0.00    +0.000 NA
ENDROOT
BRANCH   1   7
ATOM      6  N   UNL     1       3.192   5.442  17.761  0.00  0.00    +0.000 N 
ATOM      7  C   UNL     1       3.535   6.786  18.015  0.00  0.00    +0.000 C 
ATOM      8  O   UNL     1       4.685   7.202  17.854  0.00  0.00    +0.000 OA
BRANCH   6  10
ATOM      9  C   UNL     1       4.891   4.920  15.931  0.00  0.00    +0.000 C 
ATOM     10  C   UNL     1       4.211   4.502  17.244  0.00  0.00    +0.000 C 
ATOM     11  C   UNL     1       5.261   4.155  18.298  0.00  0.00    +0.000 C 
ENDBRANCH   6  10
BRANCH   6  12
ATOM     12  C   UNL     1       1.909   4.858  18.193  0.00  0.00    +0.000 C 
BRANCH  12  13
ATOM     13  C   UNL     1       1.956   4.169  19.536  0.00  0.00    +0.000 A 
ATOM     14  N   UNL     1       2.464   4.633  20.664  0.00  0.00    +0.000 NA
ATOM     15  C   UNL     1       2.223   3.676  21.615  0.00  0.00    +0.000 A 
ATOM     16  C   UNL     1       1.591   2.587  21.064  0.00  0.00    +0.000 A 
ATOM     17  N   UNL     1       1.394   2.925  19.753  0.00  0.00    +0.000 N 
ATOM     18  C   UNL     1       0.686   2.111  18.797  0.00  0.00    +0.000 C 
ENDBRANCH  12  13
ENDBRANCH   6  12
ENDBRANCH   1   7
BRANCH   3  19
ATOM     19  C   UNL     1       0.245  10.605  18.439  0.00  0.00    +0.000 C 
BRANCH  19  20
ATOM     20  O   UNL     1      -1.055  10.188  18.834  0.00  0.00    +0.000 OA
BRANCH  20  21
ATOM     21  C   UNL     1      -2.086  10.450  17.982  0.00  0.00    +0.000 A 
ATOM     22  C   UNL     1      -1.894   9.954  16.691  0.00  0.00    +0.000 A 
ATOM     23  C   UNL     1      -2.858  10.147  15.706  0.00  0.00    +0.000 A 
ATOM     24  C   UNL     1      -4.027  10.846  16.007  0.00  0.00    +0.000 A 
ATOM     25  C   UNL     1      -4.235  11.355  17.298  0.00  0.00    +0.000 A 
ATOM     26  C   UNL     1      -3.255  11.147  18.285  0.00  0.00    +0.000 A 
BRANCH  25  27
ATOM     27  C   UNL     1      -5.489  12.120  17.639  0.00  0.00    +0.000 C 
ATOM     28  F   UNL     1      -5.419  12.790  18.823  0.00  0.00    +0.000 F 
ATOM     29  F   UNL     1      -5.798  13.055  16.698  0.00  0.00    +0.000 F 
ATOM     30  F   UNL     1      -6.581  11.311  17.731  0.00  0.00    +0.000 F 
ENDBRANCH  25  27
ENDBRANCH  20  21
ENDBRANCH  19  20
ENDBRANCH   3  19
TORSDOF 8
ENDMDL
MODEL 5
REMARK VINA RESULT:      -7.7      6.107      8.374
REMARK  Name = 
REMARK  11 active torsions:
REMARK  status: ('A' for Active; 'I' for Inactive)
REMARK    1  A    between atoms: C_1  and  C_2
REMARK    2  A    between atoms: C_2  and  C_3
REMARK    3  A    between atoms: C_2  and  N_4
REMARK    4  A    between atoms: N_4  and  C_5
REMARK    5  A    between atoms: C_5  and  C_6
REMARK    6  A    between atoms: N_10  and  C_11
REMARK    7  A    between atoms: C_12  and  C_14
REMARK    8  A    between atoms: C_16  and  C_17
REMARK    9  A    between atoms: C_17  and  O_18
REMARK   10  A    between atoms: O_18  and  C_19
REMARK   11  A    between atoms: C_23  and  C_24
REMARK                            x       y       z     vdW  Elec       q    Type
REMARK                         _______ _______ _______ _____ _____    ______ ____
ROOT
ATOM      1  C   UNL     1       2.084   6.028  19.197  0.00  0.00    +0.000 A 
ATOM      2  C   UNL     1       1.978   6.833  18.034  0.00  0.00    +0.000 A 
ATOM      3  C   UNL     1       2.037   8.120  18.500  0.00  0.00    +0.000 A 
ATOM      4  O   UNL     1       2.053   8.105  19.857  0.00  0.00    +0.000 OA
ATOM      5  N   UNL     1       2.042   6.796  20.303  0.00  0.00    +0.000 NA
ENDROOT
BRANCH   1   7
ATOM      6  N   UNL     1       3.448   3.944  19.383  0.00  0.00    +0.000 N 
ATOM      7  C   UNL     1       2.196   4.563  19.190  0.00  0.00    +0.000 C 
ATOM      8  O   UNL     1       1.172   3.905  18.992  0.00  0.00    +0.000 OA
BRANCH   6  10
ATOM      9  C   UNL     1       3.559   1.793  18.016  0.00  0.00    +0.000 C 
ATOM     10  C   UNL     1       3.550   2.468  19.396  0.00  0.00    +0.000 C 
ATOM     11  C   UNL     1       4.730   1.981  20.234  0.00  0.00    +0.000 C 
ENDBRANCH   6  10
BRANCH   6  12
ATOM     12  C   UNL     1       4.715   4.697  19.354  0.00  0.00    +0.000 C 
BRANCH  12  13
ATOM     13  C   UNL     1       5.275   4.927  17.970  0.00  0.00    +0.000 A 
ATOM     14  N   UNL     1       4.639   4.835  16.816  0.00  0.00    +0.000 NA
ATOM     15  C   UNL     1       5.545   5.186  15.850  0.00  0.00    +0.000 A 
ATOM     16  C   UNL     1       6.771   5.463  16.406  0.00  0.00    +0.000 A 
ATOM     17  N   UNL     1       6.579   5.330  17.754  0.00  0.00    +0.000 N 
ATOM     18  C   UNL     1       7.582   5.606  18.753  0.00  0.00    +0.000 C 
ENDBRANCH  12  13
ENDBRANCH   6  12
ENDBRANCH   1   7
BRANCH   3  19
ATOM     19  C   UNL     1       2.078   9.438  17.842  0.00  0.00    +0.000 C 
BRANCH  19  20
ATOM     20  O   UNL     1       1.586  10.360  18.804  0.00  0.00    +0.000 OA
BRANCH  20  21
ATOM     21  C   UNL     1       0.290  10.764  18.683  0.00  0.00    +0.000 A 
ATOM     22  C   UNL     1      -0.002  11.946  19.365  0.00  0.00    +0.000 A 
ATOM     23  C   UNL     1      -1.287  12.482  19.339  0.00  0.00    +0.000 A 
ATOM     24  C   UNL     1      -2.295  11.832  18.629  0.00  0.00    +0.000 A 
ATOM     25  C   UNL     1      -2.021  10.642  17.939  0.00  0.00    +0.000 A 
ATOM     26  C   UNL     1      -0.717  10.115  17.969  0.00  0.00    +0.000 A 
BRANCH  25  27
ATOM     27  C   UNL     1      -3.101   9.921  17.172  0.00  0.00    +0.000 C 
ATOM     28  F   UNL     1      -2.662   9.338  16.021  0.00  0.00    +0.000 F 
ATOM     29  F   UNL     1      -3.677   8.925  17.900  0.00  0.00    +0.000 F 
ATOM     30  F   UNL     1      -4.119  10.750  16.807  0.00  0.00    +0.000 F 
ENDBRANCH  25  27
ENDBRANCH  20  21
ENDBRANCH  19  20
ENDBRANCH   3  19
TORSDOF 8
ENDMDL
MODEL 6
REMARK VINA RESULT:      -7.5      6.120      8.589
REMARK  Name = 
REMARK  11 active torsions:
REMARK  status: ('A' for Active; 'I' for Inactive)
REMARK    1  A    between atoms: C_1  and  C_2
REMARK    2  A    between atoms: C_2  and  C_3
REMARK    3  A    between atoms: C_2  and  N_4
REMARK    4  A    between atoms: N_4  and  C_5
REMARK    5  A    between atoms: C_5  and  C_6
REMARK    6  A    between atoms: N_10  and  C_11
REMARK    7  A    between atoms: C_12  and  C_14
REMARK    8  A    between atoms: C_16  and  C_17
REMARK    9  A    between atoms: C_17  and  O_18
REMARK   10  A    between atoms: O_18  and  C_19
REMARK   11  A    between atoms: C_23  and  C_24
REMARK                            x       y       z     vdW  Elec       q    Type
REMARK                         _______ _______ _______ _____ _____    ______ ____
ROOT
ATOM      1  C   UNL     1       2.094   6.181  19.963  0.00  0.00    +0.000 A 
ATOM      2  C   UNL     1       1.662   6.997  21.039  0.00  0.00    +0.000 A 
ATOM      3  C   UNL     1       1.574   8.254  20.504  0.00  0.00    +0.000 A 
ATOM      4  O   UNL     1       2.036   8.232  19.228  0.00  0.00    +0.000 OA
ATOM      5  N   UNL     1       2.403   6.941  18.895  0.00  0.00    +0.000 NA
ENDROOT
BRANCH   1   7
ATOM      6  N   UNL     1       3.151   4.047  19.209  0.00  0.00    +0.000 N 
ATOM      7  C   UNL     1       2.213   4.717  20.021  0.00  0.00    +0.000 C 
ATOM      8  O   UNL     1       1.459   4.104  20.779  0.00  0.00    +0.000 OA
BRANCH   6  10
ATOM      9  C   UNL     1       3.399   1.849  17.939  0.00  0.00    +0.000 C 
ATOM     10  C   UNL     1       3.281   2.575  19.287  0.00  0.00    +0.000 C 
ATOM     11  C   UNL     1       4.411   2.147  20.222  0.00  0.00    +0.000 C 
ENDBRANCH   6  10
BRANCH   6  12
ATOM     12  C   UNL     1       3.870   4.720  18.111  0.00  0.00    +0.000 C 
BRANCH  12  13
ATOM     13  C   UNL     1       5.328   4.996  18.396  0.00  0.00    +0.000 A 
ATOM     14  N   UNL     1       5.859   5.456  19.514  0.00  0.00    +0.000 NA
ATOM     15  C   UNL     1       7.214   5.488  19.311  0.00  0.00    +0.000 A 
ATOM     16  C   UNL     1       7.528   5.078  18.036  0.00  0.00    +0.000 A 
ATOM     17  N   UNL     1       6.327   4.735  17.476  0.00  0.00    +0.000 N 
ATOM     18  C   UNL     1       6.172   4.167  16.160  0.00  0.00    +0.000 C 
ENDBRANCH  12  13
ENDBRANCH   6  12
ENDBRANCH   1   7
BRANCH   3  19
ATOM     19  C   UNL     1       1.104   9.550  21.026  0.00  0.00    +0.000 C 
BRANCH  19  20
ATOM     20  O   UNL     1       1.023  10.409  19.897  0.00  0.00    +0.000 OA
BRANCH  20  21
ATOM     21  C   UNL     1      -0.218  10.804  19.495  0.00  0.00    +0.000 A 
ATOM     22  C   UNL     1      -0.713  11.909  20.189  0.00  0.00    +0.000 A 
ATOM     23  C   UNL     1      -1.972  12.426  19.893  0.00  0.00    +0.000 A 
ATOM     24  C   UNL     1      -2.750  11.834  18.899  0.00  0.00    +0.000 A 
ATOM     25  C   UNL     1      -2.269  10.721  18.194  0.00  0.00    +0.000 A 
ATOM     26  C   UNL     1      -0.993  10.213  18.498  0.00  0.00    +0.000 A 
BRANCH  25  27
ATOM     27  C   UNL     1      -3.099  10.063  17.120  0.00  0.00    +0.000 C 
ATOM     28  F   UNL     1      -2.364   9.541  16.098  0.00  0.00    +0.000 F 
ATOM     29  F   UNL     1      -3.850   9.035  17.603  0.00  0.00    +0.000 F 
ATOM     30  F   UNL     1      -3.980  10.927  16.543  0.00  0.00    +0.000 F 
ENDBRANCH  25  27
ENDBRANCH  20  21
ENDBRANCH  19  20
ENDBRANCH   3  19
TORSDOF 8
ENDMDL
MODEL 7
REMARK VINA RESULT:      -7.5      5.838      8.478
REMARK  Name = 
REMARK  11 active torsions:
REMARK  status: ('A' for Active; 'I' for Inactive)
REMARK    1  A    between atoms: C_1  and  C_2
REMARK    2  A    between atoms: C_2  and  C_3
REMARK    3  A    between atoms: C_2  and  N_4
REMARK    4  A    between atoms: N_4  and  C_5
REMARK    5  A    between atoms: C_5  and  C_6
REMARK    6  A    between atoms: N_10  and  C_11
REMARK    7  A    between atoms: C_12  and  C_14
REMARK    8  A    between atoms: C_16  and  C_17
REMARK    9  A    between atoms: C_17  and  O_18
REMARK   10  A    between atoms: O_18  and  C_19
REMARK   11  A    between atoms: C_23  and  C_24
REMARK                            x       y       z     vdW  Elec       q    Type
REMARK                         _______ _______ _______ _____ _____    ______ ____
ROOT
ATOM      1  C   UNL     1       2.574   6.471  18.417  0.00  0.00    +0.000 A 
ATOM      2  C   UNL     1       1.981   7.579  19.072  0.00  0.00    +0.000 A 
ATOM      3  C   UNL     1       2.215   8.639  18.236  0.00  0.00    +0.000 A 
ATOM      4  O   UNL     1       3.000   8.233  17.207  0.00  0.00    +0.000 OA
ATOM      5  N   UNL     1       3.263   6.881  17.335  0.00  0.00    +0.000 NA
ENDROOT
BRANCH   1   7
ATOM      6  N   UNL     1       3.565   4.454  19.507  0.00  0.00    +0.000 N 
ATOM      7  C   UNL     1       2.470   5.078  18.874  0.00  0.00    +0.000 C 
ATOM      8  O   UNL     1       1.413   4.478  18.670  0.00  0.00    +0.000 OA
BRANCH   6  10
ATOM      9  C   UNL     1       2.496   2.844  21.172  0.00  0.00    +0.000 C 
ATOM     10  C   UNL     1       3.447   3.058  19.984  0.00  0.00    +0.000 C 
ATOM     11  C   UNL     1       3.110   2.089  18.853  0.00  0.00    +0.000 C 
ENDBRANCH   6  10
BRANCH   6  12
ATOM     12  C   UNL     1       4.913   5.050  19.525  0.00  0.00    +0.000 C 
BRANCH  12  13
ATOM     13  C   UNL     1       5.752   4.736  18.308  0.00  0.00    +0.000 A 
ATOM     14  N   UNL     1       5.365   4.149  17.190  0.00  0.00    +0.000 NA
ATOM     15  C   UNL     1       6.460   4.134  16.366  0.00  0.00    +0.000 A 
ATOM     16  C   UNL     1       7.553   4.684  16.993  0.00  0.00    +0.000 A 
ATOM     17  N   UNL     1       7.083   5.095  18.212  0.00  0.00    +0.000 N 
ATOM     18  C   UNL     1       7.866   5.810  19.189  0.00  0.00    +0.000 C 
ENDBRANCH  12  13
ENDBRANCH   6  12
ENDBRANCH   1   7
BRANCH   3  19
ATOM     19  C   UNL     1       1.803  10.054  18.249  0.00  0.00    +0.000 C 
BRANCH  19  20
ATOM     20  O   UNL     1       0.859  10.167  19.305  0.00  0.00    +0.000 OA
BRANCH  20  21
ATOM     21  C   UNL     1      -0.382  10.634  18.992  0.00  0.00    +0.000 A 
ATOM     22  C   UNL     1      -0.937  11.466  19.966  0.00  0.00    +0.000 A 
ATOM     23  C   UNL     1      -2.204  12.017  19.790  0.00  0.00    +0.000 A 
ATOM     24  C   UNL     1      -2.930  11.734  18.633  0.00  0.00    +0.000 A 
ATOM     25  C   UNL     1      -2.388  10.898  17.645  0.00  0.00    +0.000 A 
ATOM     26  C   UNL     1      -1.105  10.353  17.833  0.00  0.00    +0.000 A 
BRANCH  25  27
ATOM     27  C   UNL     1      -3.161  10.574  16.391  0.00  0.00    +0.000 C 
ATOM     28  F   UNL     1      -4.459  10.990  16.422  0.00  0.00    +0.000 F 
ATOM     29  F   UNL     1      -2.612  11.144  15.283  0.00  0.00    +0.000 F 
ATOM     30  F   UNL     1      -3.203   9.236  16.139  0.00  0.00    +0.000 F 
ENDBRANCH  25  27
ENDBRANCH  20  21
ENDBRANCH  19  20
ENDBRANCH   3  19
TORSDOF 8
ENDMDL
MODEL 8
REMARK VINA RESULT:      -7.5      1.237      1.496
REMARK  Name = 
REMARK  11 active torsions:
REMARK  status: ('A' for Active; 'I' for Inactive)
REMARK    1  A    between atoms: C_1  and  C_2
REMARK    2  A    between atoms: C_2  and  C_3
REMARK    3  A    between atoms: C_2  and  N_4
REMARK    4  A    between atoms: N_4  and  C_5
REMARK    5  A    between atoms: C_5  and  C_6
REMARK    6  A    between atoms: N_10  and  C_11
REMARK    7  A    between atoms: C_12  and  C_14
REMARK    8  A    between atoms: C_16  and  C_17
REMARK    9  A    between atoms: C_17  and  O_18
REMARK   10  A    between atoms: O_18  and  C_19
REMARK   11  A    between atoms: C_23  and  C_24
REMARK                            x       y       z     vdW  Elec       q    Type
REMARK                         _______ _______ _______ _____ _____    ______ ____
ROOT
ATOM      1  C   UNL     1       7.123   6.371  17.597  0.00  0.00    +0.000 A 
ATOM      2  C   UNL     1       8.023   6.798  18.605  0.00  0.00    +0.000 A 
ATOM      3  C   UNL     1       8.225   8.127  18.347  0.00  0.00    +0.000 A 
ATOM      4  O   UNL     1       7.593   8.461  17.193  0.00  0.00    +0.000 OA
ATOM      5  N   UNL     1       6.931   7.353  16.695  0.00  0.00    +0.000 NA
ENDROOT
BRANCH   1   7
ATOM      6  N   UNL     1       5.336   4.758  18.265  0.00  0.00    +0.000 N 
ATOM      7  C   UNL     1       6.510   5.037  17.535  0.00  0.00    +0.000 C 
ATOM      8  O   UNL     1       7.063   4.176  16.847  0.00  0.00    +0.000 OA
BRANCH   6  10
ATOM      9  C   UNL     1       4.290   2.801  19.523  0.00  0.00    +0.000 C 
ATOM     10  C   UNL     1       4.712   3.419  18.182  0.00  0.00    +0.000 C 
ATOM     11  C   UNL     1       3.548   3.388  17.193  0.00  0.00    +0.000 C 
ENDBRANCH   6  10
BRANCH   6  12
ATOM     12  C   UNL     1       4.809   5.674  19.294  0.00  0.00    +0.000 C 
BRANCH  12  13
ATOM     13  C   UNL     1       3.731   6.612  18.803  0.00  0.00    +0.000 A 
ATOM     14  N   UNL     1       3.790   7.442  17.777  0.00  0.00    +0.000 NA
ATOM     15  C   UNL     1       2.557   8.036  17.694  0.00  0.00    +0.000 A 
ATOM     16  C   UNL     1       1.733   7.598  18.704  0.00  0.00    +0.000 A 
ATOM     17  N   UNL     1       2.477   6.668  19.380  0.00  0.00    +0.000 N 
ATOM     18  C   UNL     1       1.987   5.876  20.481  0.00  0.00    +0.000 C 
ENDBRANCH  12  13
ENDBRANCH   6  12
ENDBRANCH   1   7
BRANCH   3  19
ATOM     19  C   UNL     1       8.961   9.198  19.043  0.00  0.00    +0.000 C 
BRANCH  19  20
ATOM     20  O   UNL     1       9.041  10.271  18.115  0.00  0.00    +0.000 OA
BRANCH  20  21
ATOM     21  C   UNL     1       9.722  11.387  18.502  0.00  0.00    +0.000 A 
ATOM     22  C   UNL     1      10.639  11.163  19.530  0.00  0.00    +0.000 A 
ATOM     23  C   UNL     1      11.407  12.208  20.035  0.00  0.00    +0.000 A 
ATOM     24  C   UNL     1      11.259  13.494  19.515  0.00  0.00    +0.000 A 
ATOM     25  C   UNL     1      10.339  13.737  18.483  0.00  0.00    +0.000 A 
ATOM     26  C   UNL     1       9.574  12.671  17.977  0.00  0.00    +0.000 A 
BRANCH  25  27
ATOM     27  C   UNL     1      10.159  15.122  17.913  0.00  0.00    +0.000 C 
ATOM     28  F   UNL     1      10.495  16.121  18.777  0.00  0.00    +0.000 F 
ATOM     29  F   UNL     1      10.912  15.325  16.797  0.00  0.00    +0.000 F 
ATOM     30  F   UNL     1       8.871  15.366  17.542  0.00  0.00    +0.000 F 
ENDBRANCH  25  27
ENDBRANCH  20  21
ENDBRANCH  19  20
ENDBRANCH   3  19
TORSDOF 8
ENDMDL
MODEL 9
REMARK VINA RESULT:      -7.5      6.335      8.401
REMARK  Name = 
REMARK  11 active torsions:
REMARK  status: ('A' for Active; 'I' for Inactive)
REMARK    1  A    between atoms: C_1  and  C_2
REMARK    2  A    between atoms: C_2  and  C_3
REMARK    3  A    between atoms: C_2  and  N_4
REMARK    4  A    between atoms: N_4  and  C_5
REMARK    5  A    between atoms: C_5  and  C_6
REMARK    6  A    between atoms: N_10  and  C_11
REMARK    7  A    between atoms: C_12  and  C_14
REMARK    8  A    between atoms: C_16  and  C_17
REMARK    9  A    between atoms: C_17  and  O_18
REMARK   10  A    between atoms: O_18  and  C_19
REMARK   11  A    between atoms: C_23  and  C_24
REMARK                            x       y       z     vdW  Elec       q    Type
REMARK                         _______ _______ _______ _____ _____    ______ ____
ROOT
ATOM      1  C   UNL     1       2.302   5.770  19.464  0.00  0.00    +0.000 A 
ATOM      2  C   UNL     1       2.233   6.599  18.317  0.00  0.00    +0.000 A 
ATOM      3  C   UNL     1       1.993   7.853  18.813  0.00  0.00    +0.000 A 
ATOM      4  O   UNL     1       1.807   7.776  20.155  0.00  0.00    +0.000 OA
ATOM      5  N   UNL     1       1.960   6.465  20.566  0.00  0.00    +0.000 NA
ENDROOT
BRANCH   1   7
ATOM      6  N   UNL     1       4.013   3.962  19.249  0.00  0.00    +0.000 N 
ATOM      7  C   UNL     1       2.670   4.346  19.444  0.00  0.00    +0.000 C 
ATOM      8  O   UNL     1       1.772   3.514  19.582  0.00  0.00    +0.000 OA
BRANCH   6  10
ATOM      9  C   UNL     1       4.373   1.846  20.628  0.00  0.00    +0.000 C 
ATOM     10  C   UNL     1       4.380   2.528  19.251  0.00  0.00    +0.000 C 
ATOM     11  C   UNL     1       3.551   1.720  18.255  0.00  0.00    +0.000 C 
ENDBRANCH   6  10
BRANCH   6  12
ATOM     12  C   UNL     1       5.054   4.913  18.819  0.00  0.00    +0.000 C 
BRANCH  12  13
ATOM     13  C   UNL     1       5.466   4.778  17.372  0.00  0.00    +0.000 A 
ATOM     14  N   UNL     1       4.695   4.853  16.303  0.00  0.00    +0.000 NA
ATOM     15  C   UNL     1       5.526   4.724  15.221  0.00  0.00    +0.000 A 
ATOM     16  C   UNL     1       6.826   4.528  15.622  0.00  0.00    +0.000 A 
ATOM     17  N   UNL     1       6.782   4.600  16.989  0.00  0.00    +0.000 N 
ATOM     18  C   UNL     1       7.938   4.533  17.847  0.00  0.00    +0.000 C 
ENDBRANCH  12  13
ENDBRANCH   6  12
ENDBRANCH   1   7
BRANCH   3  19
ATOM     19  C   UNL     1       1.900   9.189  18.197  0.00  0.00    +0.000 C 
BRANCH  19  20
ATOM     20  O   UNL     1       1.250  10.008  19.160  0.00  0.00    +0.000 OA
BRANCH  20  21
ATOM     21  C   UNL     1       0.031  10.520  18.830  0.00  0.00    +0.000 A 
ATOM     22  C   UNL     1      -0.441  11.482  19.723  0.00  0.00    +0.000 A 
ATOM     23  C   UNL     1      -1.676  12.093  19.522  0.00  0.00    +0.000 A 
ATOM     24  C   UNL     1      -2.454  11.739  18.420  0.00  0.00    +0.000 A 
ATOM     25  C   UNL     1      -1.997  10.771  17.513  0.00  0.00    +0.000 A 
ATOM     26  C   UNL     1      -0.744  10.166  17.725  0.00  0.00    +0.000 A 
BRANCH  25  27
ATOM     27  C   UNL     1      -2.828  10.370  16.320  0.00  0.00    +0.000 C 
ATOM     28  F   UNL     1      -4.163  10.293  16.579  0.00  0.00    +0.000 F 
ATOM     29  F   UNL     1      -2.698  11.241  15.282  0.00  0.00    +0.000 F 
ATOM     30  F   UNL     1      -2.471   9.150  15.827  0.00  0.00    +0.000 F 
ENDBRANCH  25  27
ENDBRANCH  20  21
ENDBRANCH  19  20
ENDBRANCH   3  19
TORSDOF 8
ENDMDL
