MODEL 1
REMARK VINA RESULT:      -5.8      0.000      0.000
REMARK  Name = 
REMARK  5 active torsions:
REMARK  status: ('A' for Active; 'I' for Inactive)
REMARK    1  A    between atoms: C_1  and  C_2
REMARK    2  A    between atoms: C_2  and  O_3
REMARK    3  A    between atoms: O_3  and  C_4
REMARK    4  A    between atoms: C_4  and  C_6
REMARK    5  A    between atoms: C_6  and  N_7
REMARK                            x       y       z     vdW  Elec       q    Type
REMARK                         _______ _______ _______ _____ _____    ______ ____
ROOT
ATOM      1  N   UNL     1       5.500   3.899  18.934  0.00  0.00    +0.000 N 
ATOM      2  C   UNL     1       4.231   3.989  18.425  0.00  0.00    +0.000 C 
ATOM      3  O   UNL     1       3.844   4.995  17.834  0.00  0.00    +0.000 OA
ATOM      4  N   UNL     1       3.454   2.874  18.639  0.00  0.00    +0.000 N 
ATOM      5  C   UNL     1       2.155   2.719  18.231  0.00  0.00    +0.000 C 
ATOM      6  N   UNL     1       1.508   3.629  17.592  0.00  0.00    +0.000 NA
ATOM      7  N   UNL     1       1.514   1.571  18.505  0.00  0.00    +0.000 N 
ATOM      8  H   UNL     1       5.837   3.072  19.410  0.00  0.00    +0.000 HD
ATOM      9  H   UNL     1       3.869   2.104  19.133  0.00  0.00    +0.000 HD
ATOM     10  H   UNL     1       2.133   4.442  17.457  0.00  0.00    +0.000 HD
ATOM     11  H   UNL     1       1.889   0.787  19.011  0.00  0.00    +0.000 HD
ATOM     12  H   UNL     1       0.552   1.527  18.188  0.00  0.00    +0.000 HD
ENDROOT
BRANCH   1  13
ATOM     13  C   UNL     1       6.429   5.015  18.771  0.00  0.00    +0.000 C 
BRANCH  13  14
ATOM     14  C   UNL     1       7.394   4.787  17.620  0.00  0.00    +0.000 C 
ATOM     15  O   UNL     1       8.388   4.070  17.695  0.00  0.00    +0.000 OA
BRANCH  14  16
ATOM     16  O   UNL     1       7.002   5.481  16.517  0.00  0.00    +0.000 OA
BRANCH  16  18
ATOM     17  C   UNL     1       5.739   4.105  14.960  0.00  0.00    +0.000 C 
ATOM     18  C   UNL     1       7.067   4.772  15.266  0.00  0.00    +0.000 C 
ENDBRANCH  16  18
ENDBRANCH  14  16
ENDBRANCH  13  14
ENDBRANCH   1  13
TORSDOF 4
ENDMDL
MODEL 2
REMARK VINA RESULT:      -5.7      0.979      1.251
REMARK  Name = 
REMARK  5 active torsions:
REMARK  status: ('A' for Active; 'I' for Inactive)
REMARK    1  A    between atoms: C_1  and  C_2
REMARK    2  A    between atoms: C_2  and  O_3
REMARK    3  A    between atoms: O_3  and  C_4
REMARK    4  A    between atoms: C_4  and  C_6
REMARK    5  A    between atoms: C_6  and  N_7
REMARK                            x       y       z     vdW  Elec       q    Type
REMARK                         _______ _______ _______ _____ _____    ______ ____
ROOT
ATOM      1  N   UNL     1       6.310   4.116  18.490  0.00  0.00    +0.000 N 
ATOM      2  C   UNL     1       4.941   4.133  18.522  0.00  0.00    +0.000 C 
ATOM      3  O   UNL     1       4.310   5.187  18.573  0.00  0.00    +0.000 OA
ATOM      4  N   UNL     1       4.358   2.887  18.495  0.00  0.00    +0.000 N 
ATOM      5  C   UNL     1       3.011   2.638  18.520  0.00  0.00    +0.000 C 
ATOM      6  N   UNL     1       2.126   3.571  18.577  0.00  0.00    +0.000 NA
ATOM      7  N   UNL     1       2.578   1.367  18.485  0.00  0.00    +0.000 N 
ATOM      8  H   UNL     1       6.843   3.257  18.433  0.00  0.00    +0.000 HD
ATOM      9  H   UNL     1       4.966   2.088  18.452  0.00  0.00    +0.000 HD
ATOM     10  H   UNL     1       2.614   4.483  18.595  0.00  0.00    +0.000 HD
ATOM     11  H   UNL     1       3.155   0.543  18.459  0.00  0.00    +0.000 HD
ATOM     12  H   UNL     1       1.572   1.252  18.520  0.00  0.00    +0.000 HD
ENDROOT
BRANCH   1  13
ATOM     13  C   UNL     1       7.053   5.375  18.509  0.00  0.00    +0.000 C 
BRANCH  13  14
ATOM     14  C   UNL     1       7.357   5.876  17.108  0.00  0.00    +0.000 C 
ATOM     15  O   UNL     1       7.350   7.063  16.790  0.00  0.00    +0.000 OA
BRANCH  14  16
ATOM     16  O   UNL     1       7.633   4.837  16.273  0.00  0.00    +0.000 OA
BRANCH  16  18
ATOM     17  C   UNL     1       5.848   3.972  14.866  0.00  0.00    +0.000 C 
ATOM     18  C   UNL     1       7.043   4.902  14.962  0.00  0.00    +0.000 C 
ENDBRANCH  16  18
ENDBRANCH  14  16
ENDBRANCH  13  14
ENDBRANCH   1  13
TORSDOF 4
ENDMDL
MODEL 3
REMARK VINA RESULT:      -5.6      2.671      5.626
REMARK  Name = 
REMARK  5 active torsions:
REMARK  status: ('A' for Active; 'I' for Inactive)
REMARK    1  A    between atoms: C_1  and  C_2
REMARK    2  A    between atoms: C_2  and  O_3
REMARK    3  A    between atoms: O_3  and  C_4
REMARK    4  A    between atoms: C_4  and  C_6
REMARK    5  A    between atoms: C_6  and  N_7
REMARK                            x       y       z     vdW  Elec       q    Type
REMARK                         _______ _______ _______ _____ _____    ______ ____
ROOT
ATOM      1  N   UNL     1       3.773   4.967  17.739  0.00  0.00    +0.000 N 
ATOM      2  C   UNL     1       5.103   4.641  17.717  0.00  0.00    +0.000 C 
ATOM      3  O   UNL     1       5.646   4.083  18.670  0.00  0.00    +0.000 OA
ATOM      4  N   UNL     1       5.755   4.993  16.558  0.00  0.00    +0.000 N 
ATOM      5  C   UNL     1       7.082   4.778  16.294  0.00  0.00    +0.000 C 
ATOM      6  N   UNL     1       7.880   4.212  17.130  0.00  0.00    +0.000 NA
ATOM      7  N   UNL     1       7.588   5.171  15.114  0.00  0.00    +0.000 N 
ATOM      8  H   UNL     1       3.310   5.413  16.957  0.00  0.00    +0.000 HD
ATOM      9  H   UNL     1       5.217   5.445  15.840  0.00  0.00    +0.000 HD
ATOM     10  H   UNL     1       7.345   3.968  17.980  0.00  0.00    +0.000 HD
ATOM     11  H   UNL     1       7.088   5.640  14.379  0.00  0.00    +0.000 HD
ATOM     12  H   UNL     1       8.579   4.995  14.988  0.00  0.00    +0.000 HD
ENDROOT
BRANCH   1  13
ATOM     13  C   UNL     1       2.964   4.643  18.913  0.00  0.00    +0.000 C 
BRANCH  13  14
ATOM     14  C   UNL     1       2.174   3.361  18.721  0.00  0.00    +0.000 C 
ATOM     15  O   UNL     1       1.218   3.255  17.957  0.00  0.00    +0.000 OA
BRANCH  14  16
ATOM     16  O   UNL     1       2.672   2.366  19.506  0.00  0.00    +0.000 OA
BRANCH  16  18
ATOM     17  C   UNL     1       1.506   2.653  21.620  0.00  0.00    +0.000 C 
ATOM     18  C   UNL     1       2.840   2.680  20.899  0.00  0.00    +0.000 C 
ENDBRANCH  16  18
ENDBRANCH  14  16
ENDBRANCH  13  14
ENDBRANCH   1  13
TORSDOF 4
ENDMDL
MODEL 4
REMARK VINA RESULT:      -5.6      3.693      4.896
REMARK  Name = 
REMARK  5 active torsions:
REMARK  status: ('A' for Active; 'I' for Inactive)
REMARK    1  A    between atoms: C_1  and  C_2
REMARK    2  A    between atoms: C_2  and  O_3
REMARK    3  A    between atoms: O_3  and  C_4
REMARK    4  A    between atoms: C_4  and  C_6
REMARK    5  A    between atoms: C_6  and  N_7
REMARK                            x       y       z     vdW  Elec       q    Type
REMARK                         _______ _______ _______ _____ _____    ______ ____
ROOT
ATOM      1  N   UNL     1       6.016   3.988  16.128  0.00  0.00    +0.000 N 
ATOM      2  C   UNL     1       6.400   4.319  14.856  0.00  0.00    +0.000 C 
ATOM      3  O   UNL     1       6.842   5.433  14.585  0.00  0.00    +0.000 OA
ATOM      4  N   UNL     1       6.243   3.308  13.935  0.00  0.00    +0.000 N 
ATOM      5  C   UNL     1       6.551   3.391  12.602  0.00  0.00    +0.000 C 
ATOM      6  N   UNL     1       7.029   4.455  12.058  0.00  0.00    +0.000 NA
ATOM      7  N   UNL     1       6.350   2.322  11.815  0.00  0.00    +0.000 N 
ATOM      8  H   UNL     1       5.663   3.069  16.368  0.00  0.00    +0.000 HD
ATOM      9  H   UNL     1       5.873   2.433  14.261  0.00  0.00    +0.000 HD
ATOM     10  H   UNL     1       7.128   5.180  12.788  0.00  0.00    +0.000 HD
ATOM     11  H   UNL     1       5.966   1.437  12.101  0.00  0.00    +0.000 HD
ATOM     12  H   UNL     1       6.585   2.454  10.838  0.00  0.00    +0.000 HD
ENDROOT
BRANCH   1  13
ATOM     13  C   UNL     1       6.137   4.971  17.203  0.00  0.00    +0.000 C 
BRANCH  13  14
ATOM     14  C   UNL     1       7.543   5.021  17.772  0.00  0.00    +0.000 C 
ATOM     15  O   UNL     1       8.321   4.070  17.753  0.00  0.00    +0.000 OA
BRANCH  14  16
ATOM     16  O   UNL     1       7.810   6.249  18.294  0.00  0.00    +0.000 OA
BRANCH  16  18
ATOM     17  C   UNL     1       8.163   8.628  17.935  0.00  0.00    +0.000 C 
ATOM     18  C   UNL     1       7.429   7.378  17.488  0.00  0.00    +0.000 C 
ENDBRANCH  16  18
ENDBRANCH  14  16
ENDBRANCH  13  14
ENDBRANCH   1  13
TORSDOF 4
ENDMDL
MODEL 5
REMARK VINA RESULT:      -5.6      2.644      5.731
REMARK  Name = 
REMARK  5 active torsions:
REMARK  status: ('A' for Active; 'I' for Inactive)
REMARK    1  A    between atoms: C_1  and  C_2
REMARK    2  A    between atoms: C_2  and  O_3
REMARK    3  A    between atoms: O_3  and  C_4
REMARK    4  A    between atoms: C_4  and  C_6
REMARK    5  A    between atoms: C_6  and  N_7
REMARK                            x       y       z     vdW  Elec       q    Type
REMARK                         _______ _______ _______ _____ _____    ______ ____
ROOT
ATOM      1  N   UNL     1       4.344   3.267  17.558  0.00  0.00    +0.000 N 
ATOM      2  C   UNL     1       5.202   3.834  18.463  0.00  0.00    +0.000 C 
ATOM      3  O   UNL     1       5.260   3.444  19.628  0.00  0.00    +0.000 OA
ATOM      4  N   UNL     1       5.970   4.856  17.954  0.00  0.00    +0.000 N 
ATOM      5  C   UNL     1       6.897   5.580  18.655  0.00  0.00    +0.000 C 
ATOM      6  N   UNL     1       7.151   5.375  19.900  0.00  0.00    +0.000 NA
ATOM      7  N   UNL     1       7.581   6.551  18.029  0.00  0.00    +0.000 N 
ATOM      8  H   UNL     1       4.296   3.568  16.592  0.00  0.00    +0.000 HD
ATOM      9  H   UNL     1       5.845   5.095  16.986  0.00  0.00    +0.000 HD
ATOM     10  H   UNL     1       6.552   4.601  20.234  0.00  0.00    +0.000 HD
ATOM     11  H   UNL     1       7.472   6.831  17.069  0.00  0.00    +0.000 HD
ATOM     12  H   UNL     1       8.242   7.057  18.608  0.00  0.00    +0.000 HD
ENDROOT
BRANCH   1  13
ATOM     13  C   UNL     1       3.475   2.167  17.971  0.00  0.00    +0.000 C 
BRANCH  13  14
ATOM     14  C   UNL     1       2.059   2.637  18.255  0.00  0.00    +0.000 C 
ATOM     15  O   UNL     1       1.453   3.443  17.553  0.00  0.00    +0.000 OA
BRANCH  14  16
ATOM     16  O   UNL     1       1.570   2.046  19.380  0.00  0.00    +0.000 OA
BRANCH  16  18
ATOM     17  C   UNL     1       2.239   2.854  21.573  0.00  0.00    +0.000 C 
ATOM     18  C   UNL     1       1.214   2.930  20.458  0.00  0.00    +0.000 C 
ENDBRANCH  16  18
ENDBRANCH  14  16
ENDBRANCH  13  14
ENDBRANCH   1  13
TORSDOF 4
ENDMDL
MODEL 6
REMARK VINA RESULT:      -5.6      1.452      1.909
REMARK  Name = 
REMARK  5 active torsions:
REMARK  status: ('A' for Active; 'I' for Inactive)
REMARK    1  A    between atoms: C_1  and  C_2
REMARK    2  A    between atoms: C_2  and  O_3
REMARK    3  A    between atoms: O_3  and  C_4
REMARK    4  A    between atoms: C_4  and  C_6
REMARK    5  A    between atoms: C_6  and  N_7
REMARK                            x       y       z     vdW  Elec       q    Type
REMARK                         _______ _______ _______ _____ _____    ______ ____
ROOT
ATOM      1  N   UNL     1       5.509   3.820  18.599  0.00  0.00    +0.000 N 
ATOM      2  C   UNL     1       4.203   3.946  18.991  0.00  0.00    +0.000 C 
ATOM      3  O   UNL     1       3.782   4.979  19.509  0.00  0.00    +0.000 OA
ATOM      4  N   UNL     1       3.430   2.832  18.757  0.00  0.00    +0.000 N 
ATOM      5  C   UNL     1       2.099   2.708  19.060  0.00  0.00    +0.000 C 
ATOM      6  N   UNL     1       1.416   3.647  19.614  0.00  0.00    +0.000 NA
ATOM      7  N   UNL     1       1.465   1.560  18.772  0.00  0.00    +0.000 N 
ATOM      8  H   UNL     1       5.866   2.981  18.158  0.00  0.00    +0.000 HD
ATOM      9  H   UNL     1       3.873   2.039  18.327  0.00  0.00    +0.000 HD
ATOM     10  H   UNL     1       2.039   4.458  19.768  0.00  0.00    +0.000 HD
ATOM     11  H   UNL     1       1.877   0.741  18.358  0.00  0.00    +0.000 HD
ATOM     12  H   UNL     1       0.487   1.529  19.034  0.00  0.00    +0.000 HD
ENDROOT
BRANCH   1  13
ATOM     13  C   UNL     1       6.435   4.935  18.787  0.00  0.00    +0.000 C 
BRANCH  13  14
ATOM     14  C   UNL     1       7.576   4.900  17.786  0.00  0.00    +0.000 C 
ATOM     15  O   UNL     1       8.471   4.058  17.799  0.00  0.00    +0.000 OA
BRANCH  14  16
ATOM     16  O   UNL     1       7.463   5.919  16.890  0.00  0.00    +0.000 OA
BRANCH  16  18
ATOM     17  C   UNL     1       7.886   8.185  17.663  0.00  0.00    +0.000 C 
ATOM     18  C   UNL     1       6.842   7.123  17.374  0.00  0.00    +0.000 C 
ENDBRANCH  16  18
ENDBRANCH  14  16
ENDBRANCH  13  14
ENDBRANCH   1  13
TORSDOF 4
ENDMDL
MODEL 7
REMARK VINA RESULT:      -5.5      1.937      2.409
REMARK  Name = 
REMARK  5 active torsions:
REMARK  status: ('A' for Active; 'I' for Inactive)
REMARK    1  A    between atoms: C_1  and  C_2
REMARK    2  A    between atoms: C_2  and  O_3
REMARK    3  A    between atoms: O_3  and  C_4
REMARK    4  A    between atoms: C_4  and  C_6
REMARK    5  A    between atoms: C_6  and  N_7
REMARK                            x       y       z     vdW  Elec       q    Type
REMARK                         _______ _______ _______ _____ _____    ______ ____
ROOT
ATOM      1  N   UNL     1       6.067   3.684  16.514  0.00  0.00    +0.000 N 
ATOM      2  C   UNL     1       4.898   3.904  17.192  0.00  0.00    +0.000 C 
ATOM      3  O   UNL     1       4.514   5.040  17.463  0.00  0.00    +0.000 OA
ATOM      4  N   UNL     1       4.215   2.759  17.533  0.00  0.00    +0.000 N 
ATOM      5  C   UNL     1       3.026   2.713  18.212  0.00  0.00    +0.000 C 
ATOM      6  N   UNL     1       2.409   3.768  18.617  0.00  0.00    +0.000 NA
ATOM      7  N   UNL     1       2.466   1.521  18.475  0.00  0.00    +0.000 N 
ATOM      8  H   UNL     1       6.388   2.754  16.271  0.00  0.00    +0.000 HD
ATOM      9  H   UNL     1       4.616   1.879  17.261  0.00  0.00    +0.000 HD
ATOM     10  H   UNL     1       2.960   4.597  18.338  0.00  0.00    +0.000 HD
ATOM     11  H   UNL     1       2.845   0.621  18.237  0.00  0.00    +0.000 HD
ATOM     12  H   UNL     1       1.596   1.558  18.993  0.00  0.00    +0.000 HD
ENDROOT
BRANCH   1  13
ATOM     13  C   UNL     1       6.886   4.818  16.090  0.00  0.00    +0.000 C 
BRANCH  13  14
ATOM     14  C   UNL     1       7.103   4.831  14.587  0.00  0.00    +0.000 C 
ATOM     15  O   UNL     1       7.914   5.558  14.020  0.00  0.00    +0.000 OA
BRANCH  14  16
ATOM     16  O   UNL     1       6.282   3.934  13.973  0.00  0.00    +0.000 OA
BRANCH  16  18
ATOM     17  C   UNL     1       5.338   2.989  11.941  0.00  0.00    +0.000 C 
ATOM     18  C   UNL     1       6.505   3.730  12.566  0.00  0.00    +0.000 C 
ENDBRANCH  16  18
ENDBRANCH  14  16
ENDBRANCH  13  14
ENDBRANCH   1  13
TORSDOF 4
ENDMDL
MODEL 8
REMARK VINA RESULT:      -5.5      1.611      2.218
REMARK  Name = 
REMARK  5 active torsions:
REMARK  status: ('A' for Active; 'I' for Inactive)
REMARK    1  A    between atoms: C_1  and  C_2
REMARK    2  A    between atoms: C_2  and  O_3
REMARK    3  A    between atoms: O_3  and  C_4
REMARK    4  A    between atoms: C_4  and  C_6
REMARK    5  A    between atoms: C_6  and  N_7
REMARK                            x       y       z     vdW  Elec       q    Type
REMARK                         _______ _______ _______ _____ _____    ______ ____
ROOT
ATOM      1  N   UNL     1       5.524   3.398  16.786  0.00  0.00    +0.000 N 
ATOM      2  C   UNL     1       4.207   3.646  17.068  0.00  0.00    +0.000 C 
ATOM      3  O   UNL     1       3.679   4.721  16.788  0.00  0.00    +0.000 OA
ATOM      4  N   UNL     1       3.551   2.603  17.681  0.00  0.00    +0.000 N 
ATOM      5  C   UNL     1       2.236   2.605  18.064  0.00  0.00    +0.000 C 
ATOM      6  N   UNL     1       1.456   3.613  17.889  0.00  0.00    +0.000 NA
ATOM      7  N   UNL     1       1.723   1.511  18.652  0.00  0.00    +0.000 N 
ATOM      8  H   UNL     1       5.968   2.513  16.998  0.00  0.00    +0.000 HD
ATOM      9  H   UNL     1       4.077   1.766  17.865  0.00  0.00    +0.000 HD
ATOM     10  H   UNL     1       1.993   4.366  17.427  0.00  0.00    +0.000 HD
ATOM     11  H   UNL     1       2.219   0.664  18.868  0.00  0.00    +0.000 HD
ATOM     12  H   UNL     1       0.749   1.583  18.923  0.00  0.00    +0.000 HD
ENDROOT
BRANCH   1  13
ATOM     13  C   UNL     1       6.333   4.424  16.131  0.00  0.00    +0.000 C 
BRANCH  13  14
ATOM     14  C   UNL     1       7.294   5.093  17.097  0.00  0.00    +0.000 C 
ATOM     15  O   UNL     1       7.753   4.542  18.094  0.00  0.00    +0.000 OA
BRANCH  14  16
ATOM     16  O   UNL     1       7.567   6.367  16.703  0.00  0.00    +0.000 OA
BRANCH  16  18
ATOM     17  C   UNL     1       8.148   8.413  17.882  0.00  0.00    +0.000 C 
ATOM     18  C   UNL     1       7.055   7.415  17.545  0.00  0.00    +0.000 C 
ENDBRANCH  16  18
ENDBRANCH  14  16
ENDBRANCH  13  14
ENDBRANCH   1  13
TORSDOF 4
ENDMDL
MODEL 9
REMARK VINA RESULT:      -5.5      2.657      5.215
REMARK  Name = 
REMARK  5 active torsions:
REMARK  status: ('A' for Active; 'I' for Inactive)
REMARK    1  A    between atoms: C_1  and  C_2
REMARK    2  A    between atoms: C_2  and  O_3
REMARK    3  A    between atoms: O_3  and  C_4
REMARK    4  A    between atoms: C_4  and  C_6
REMARK    5  A    between atoms: C_6  and  N_7
REMARK                            x       y       z     vdW  Elec       q    Type
REMARK                         _______ _______ _______ _____ _____    ______ ____
ROOT
ATOM      1  N   UNL     1       5.433   3.378  18.637  0.00  0.00    +0.000 N 
ATOM      2  C   UNL     1       5.304   4.299  17.632  0.00  0.00    +0.000 C 
ATOM      3  O   UNL     1       4.281   4.967  17.498  0.00  0.00    +0.000 OA
ATOM      4  N   UNL     1       6.403   4.399  16.809  0.00  0.00    +0.000 N 
ATOM      5  C   UNL     1       6.519   5.243  15.736  0.00  0.00    +0.000 C 
ATOM      6  N   UNL     1       5.584   6.049  15.374  0.00  0.00    +0.000 NA
ATOM      7  N   UNL     1       7.655   5.239  15.019  0.00  0.00    +0.000 N 
ATOM      8  H   UNL     1       6.276   2.831  18.769  0.00  0.00    +0.000 HD
ATOM      9  H   UNL     1       7.189   3.807  17.008  0.00  0.00    +0.000 HD
ATOM     10  H   UNL     1       4.785   5.936  16.021  0.00  0.00    +0.000 HD
ATOM     11  H   UNL     1       8.455   4.650  15.176  0.00  0.00    +0.000 HD
ATOM     12  H   UNL     1       7.670   5.876  14.231  0.00  0.00    +0.000 HD
ENDROOT
BRANCH   1  13
ATOM     13  C   UNL     1       4.338   3.177  19.585  0.00  0.00    +0.000 C 
BRANCH  13  14
ATOM     14  C   UNL     1       3.388   2.083  19.131  0.00  0.00    +0.000 C 
ATOM     15  O   UNL     1       3.672   1.240  18.283  0.00  0.00    +0.000 OA
BRANCH  14  16
ATOM     16  O   UNL     1       2.201   2.171  19.790  0.00  0.00    +0.000 OA
BRANCH  16  18
ATOM     17  C   UNL     1       0.927   4.156  20.380  0.00  0.00    +0.000 C 
ATOM     18  C   UNL     1       1.272   3.153  19.296  0.00  0.00    +0.000 C 
ENDBRANCH  16  18
ENDBRANCH  14  16
ENDBRANCH  13  14
ENDBRANCH   1  13
TORSDOF 4
ENDMDL
