MODEL 1
REMARK VINA RESULT:      -6.6      0.000      0.000
REMARK  Name = 
REMARK  6 active torsions:
REMARK  status: ('A' for Active; 'I' for Inactive)
REMARK    1  A    between atoms: O_1  and  C_2
REMARK    2  A    between atoms: C_2  and  C_3
REMARK    3  A    between atoms: N_8  and  C_9
REMARK    4  A    between atoms: C_9  and  C_10
REMARK    5  A    between atoms: C_15  and  O_16
REMARK    6  A    between atoms: C_17  and  O_18
REMARK                            x       y       z     vdW  Elec       q    Type
REMARK                         _______ _______ _______ _____ _____    ______ ____
ROOT
ATOM      1  C   UNL     1       1.983   3.986  19.369  0.00  0.00    +0.000 C 
ATOM      2  O   UNL     1       2.989   4.938  19.730  0.00  0.00    +0.000 OA
ATOM      3  C   UNL     1       4.178   4.938  18.959  0.00  0.00    +0.000 C 
ATOM      4  S   UNL     1       4.042   5.761  17.357  0.00  0.00    +0.000 S 
ATOM      5  C   UNL     1       5.337   4.757  16.752  0.00  0.00    +0.000 C 
ATOM      6  N   UNL     1       5.882   5.136  15.568  0.00  0.00    +0.000 N 
ATOM      7  N   UNL     1       5.680   3.728  17.448  0.00  0.00    +0.000 NA
ATOM      8  C   UNL     1       4.763   3.569  18.606  0.00  0.00    +0.000 C 
ATOM      9  C   UNL     1       3.680   2.532  18.249  0.00  0.00    +0.000 C 
ATOM     10  C   UNL     1       2.541   2.558  19.273  0.00  0.00    +0.000 C 
ATOM     11  H   UNL     1       5.375   5.864  15.080  0.00  0.00    +0.000 HD
ENDROOT
BRANCH   9  12
ATOM     12  O   UNL     1       4.248   1.218  18.150  0.00  0.00    +0.000 OA
ATOM     13  H   UNL     1       4.937   1.133  18.830  0.00  0.00    +0.000 HD
ENDBRANCH   9  12
BRANCH  10  14
ATOM     14  O   UNL     1       1.508   1.638  18.896  0.00  0.00    +0.000 OA
ATOM     15  H   UNL     1       1.083   1.300  19.705  0.00  0.00    +0.000 HD
ENDBRANCH  10  14
BRANCH   1  16
ATOM     16  C   UNL     1       0.853   4.075  20.407  0.00  0.00    +0.000 C 
BRANCH  16  17
ATOM     17  O   UNL     1       0.823   2.908  21.230  0.00  0.00    +0.000 OA
ATOM     18  H   UNL     1      -0.113   2.682  21.365  0.00  0.00    +0.000 HD
ENDBRANCH  16  17
ENDBRANCH   1  16
BRANCH   6  19
ATOM     19  C   UNL     1       6.508   4.141  14.721  0.00  0.00    +0.000 C 
BRANCH  19  20
ATOM     20  C   UNL     1       6.143   4.394  13.292  0.00  0.00    +0.000 C 
ATOM     21  C   UNL     1       6.976   3.824  12.169  0.00  0.00    +0.000 C 
ATOM     22  C   UNL     1       5.606   3.267  12.438  0.00  0.00    +0.000 C 
ENDBRANCH  19  20
ENDBRANCH   6  19
TORSDOF 6
ENDMDL
MODEL 2
REMARK VINA RESULT:      -6.5      3.402      6.406
REMARK  Name = 
REMARK  6 active torsions:
REMARK  status: ('A' for Active; 'I' for Inactive)
REMARK    1  A    between atoms: O_1  and  C_2
REMARK    2  A    between atoms: C_2  and  C_3
REMARK    3  A    between atoms: N_8  and  C_9
REMARK    4  A    between atoms: C_9  and  C_10
REMARK    5  A    between atoms: C_15  and  O_16
REMARK    6  A    between atoms: C_17  and  O_18
REMARK                            x       y       z     vdW  Elec       q    Type
REMARK                         _______ _______ _______ _____ _____    ______ ____
ROOT
ATOM      1  C   UNL     1       6.937   7.485  17.859  0.00  0.00    +0.000 C 
ATOM      2  O   UNL     1       6.131   7.536  16.678  0.00  0.00    +0.000 OA
ATOM      3  C   UNL     1       5.064   6.607  16.589  0.00  0.00    +0.000 C 
ATOM      4  S   UNL     1       3.599   7.042  17.550  0.00  0.00    +0.000 S 
ATOM      5  C   UNL     1       3.185   5.347  17.652  0.00  0.00    +0.000 C 
ATOM      6  N   UNL     1       1.931   5.066  18.089  0.00  0.00    +0.000 N 
ATOM      7  N   UNL     1       4.085   4.485  17.326  0.00  0.00    +0.000 NA
ATOM      8  C   UNL     1       5.368   5.175  17.034  0.00  0.00    +0.000 C 
ATOM      9  C   UNL     1       6.264   5.116  18.286  0.00  0.00    +0.000 C 
ATOM     10  C   UNL     1       7.456   6.069  18.149  0.00  0.00    +0.000 C 
ATOM     11  H   UNL     1       1.423   5.857  18.463  0.00  0.00    +0.000 HD
ENDROOT
BRANCH   9  12
ATOM     12  O   UNL     1       6.708   3.774  18.532  0.00  0.00    +0.000 OA
ATOM     13  H   UNL     1       6.530   3.246  17.736  0.00  0.00    +0.000 HD
ENDBRANCH   9  12
BRANCH  10  14
ATOM     14  O   UNL     1       8.245   6.058  19.346  0.00  0.00    +0.000 OA
ATOM     15  H   UNL     1       7.696   6.382  20.082  0.00  0.00    +0.000 HD
ENDBRANCH  10  14
BRANCH   1  16
ATOM     16  C   UNL     1       8.096   8.479  17.683  0.00  0.00    +0.000 C 
BRANCH  16  17
ATOM     17  O   UNL     1       8.766   8.707  18.924  0.00  0.00    +0.000 OA
ATOM     18  H   UNL     1       8.756   9.667  19.077  0.00  0.00    +0.000 HD
ENDBRANCH  16  17
ENDBRANCH   1  16
BRANCH   6  19
ATOM     19  C   UNL     1       1.671   3.796  18.739  0.00  0.00    +0.000 C 
BRANCH  19  20
ATOM     20  C   UNL     1       1.215   4.035  20.143  0.00  0.00    +0.000 C 
ATOM     21  C   UNL     1       1.209   2.914  21.155  0.00  0.00    +0.000 C 
ATOM     22  C   UNL     1       2.217   4.022  21.276  0.00  0.00    +0.000 C 
ENDBRANCH  19  20
ENDBRANCH   6  19
TORSDOF 6
ENDMDL
MODEL 3
REMARK VINA RESULT:      -6.4      4.322      5.627
REMARK  Name = 
REMARK  6 active torsions:
REMARK  status: ('A' for Active; 'I' for Inactive)
REMARK    1  A    between atoms: O_1  and  C_2
REMARK    2  A    between atoms: C_2  and  C_3
REMARK    3  A    between atoms: N_8  and  C_9
REMARK    4  A    between atoms: C_9  and  C_10
REMARK    5  A    between atoms: C_15  and  O_16
REMARK    6  A    between atoms: C_17  and  O_18
REMARK                            x       y       z     vdW  Elec       q    Type
REMARK                         _______ _______ _______ _____ _____    ______ ____
ROOT
ATOM      1  C   UNL     1       4.867   4.185  19.085  0.00  0.00    +0.000 C 
ATOM      2  O   UNL     1       6.151   3.820  18.569  0.00  0.00    +0.000 OA
ATOM      3  C   UNL     1       6.960   4.868  18.062  0.00  0.00    +0.000 C 
ATOM      4  S   UNL     1       7.801   5.851  19.322  0.00  0.00    +0.000 S 
ATOM      5  C   UNL     1       7.840   7.202  18.215  0.00  0.00    +0.000 C 
ATOM      6  N   UNL     1       8.649   8.235  18.564  0.00  0.00    +0.000 N 
ATOM      7  N   UNL     1       7.099   7.143  17.163  0.00  0.00    +0.000 NA
ATOM      8  C   UNL     1       6.256   5.920  17.203  0.00  0.00    +0.000 C 
ATOM      9  C   UNL     1       4.860   6.291  17.738  0.00  0.00    +0.000 C 
ATOM     10  C   UNL     1       4.059   5.034  18.092  0.00  0.00    +0.000 C 
ATOM     11  H   UNL     1       9.019   8.187  19.504  0.00  0.00    +0.000 HD
ENDROOT
BRANCH   9  12
ATOM     12  O   UNL     1       4.149   7.099  16.789  0.00  0.00    +0.000 OA
ATOM     13  H   UNL     1       3.630   7.757  17.280  0.00  0.00    +0.000 HD
ENDBRANCH   9  12
BRANCH  10  14
ATOM     14  O   UNL     1       2.789   5.391  18.652  0.00  0.00    +0.000 OA
ATOM     15  H   UNL     1       2.531   4.706  19.296  0.00  0.00    +0.000 HD
ENDBRANCH  10  14
BRANCH   1  16
ATOM     16  C   UNL     1       4.120   2.893  19.453  0.00  0.00    +0.000 C 
BRANCH  16  17
ATOM     17  O   UNL     1       5.037   1.865  19.831  0.00  0.00    +0.000 OA
ATOM     18  H   UNL     1       5.063   1.854  20.804  0.00  0.00    +0.000 HD
ENDBRANCH  16  17
ENDBRANCH   1  16
BRANCH   6  19
ATOM     19  C   UNL     1       8.349   9.569  18.082  0.00  0.00    +0.000 C 
BRANCH  19  20
ATOM     20  C   UNL     1       9.269  10.556  18.728  0.00  0.00    +0.000 C 
ATOM     21  C   UNL     1      10.302  11.297  17.913  0.00  0.00    +0.000 C 
ATOM     22  C   UNL     1       9.107  12.034  18.451  0.00  0.00    +0.000 C 
ENDBRANCH  19  20
ENDBRANCH   6  19
TORSDOF 6
ENDMDL
MODEL 4
REMARK VINA RESULT:      -6.3      3.332      4.859
REMARK  Name = 
REMARK  6 active torsions:
REMARK  status: ('A' for Active; 'I' for Inactive)
REMARK    1  A    between atoms: O_1  and  C_2
REMARK    2  A    between atoms: C_2  and  C_3
REMARK    3  A    between atoms: N_8  and  C_9
REMARK    4  A    between atoms: C_9  and  C_10
REMARK    5  A    between atoms: C_15  and  O_16
REMARK    6  A    between atoms: C_17  and  O_18
REMARK                            x       y       z     vdW  Elec       q    Type
REMARK                         _______ _______ _______ _____ _____    ______ ____
ROOT
ATOM      1  C   UNL     1       4.161   3.125  18.346  0.00  0.00    +0.000 C 
ATOM      2  O   UNL     1       4.539   3.302  16.978  0.00  0.00    +0.000 OA
ATOM      3  C   UNL     1       5.047   4.574  16.613  0.00  0.00    +0.000 C 
ATOM      4  S   UNL     1       6.768   4.863  17.076  0.00  0.00    +0.000 S 
ATOM      5  C   UNL     1       6.450   6.581  17.117  0.00  0.00    +0.000 C 
ATOM      6  N   UNL     1       7.540   7.388  17.172  0.00  0.00    +0.000 N 
ATOM      7  N   UNL     1       5.221   6.968  17.109  0.00  0.00    +0.000 NA
ATOM      8  C   UNL     1       4.317   5.791  17.186  0.00  0.00    +0.000 C 
ATOM      9  C   UNL     1       3.879   5.590  18.649  0.00  0.00    +0.000 C 
ATOM     10  C   UNL     1       3.207   4.226  18.835  0.00  0.00    +0.000 C 
ATOM     11  H   UNL     1       8.415   6.910  17.346  0.00  0.00    +0.000 HD
ENDROOT
BRANCH   9  12
ATOM     12  O   UNL     1       3.008   6.650  19.070  0.00  0.00    +0.000 OA
ATOM     13  H   UNL     1       2.841   7.226  18.305  0.00  0.00    +0.000 HD
ENDBRANCH   9  12
BRANCH  10  14
ATOM     14  O   UNL     1       2.865   4.020  20.212  0.00  0.00    +0.000 OA
ATOM     15  H   UNL     1       1.955   4.336  20.356  0.00  0.00    +0.000 HD
ENDBRANCH  10  14
BRANCH   1  16
ATOM     16  C   UNL     1       3.524   1.733  18.484  0.00  0.00    +0.000 C 
BRANCH  16  17
ATOM     17  O   UNL     1       2.111   1.796  18.281  0.00  0.00    +0.000 OA
ATOM     18  H   UNL     1       1.846   0.950  17.881  0.00  0.00    +0.000 HD
ENDBRANCH  16  17
ENDBRANCH   1  16
BRANCH   6  19
ATOM     19  C   UNL     1       7.422   8.705  17.766  0.00  0.00    +0.000 C 
BRANCH  19  20
ATOM     20  C   UNL     1       8.785   9.246  18.062  0.00  0.00    +0.000 C 
ATOM     21  C   UNL     1       9.031  10.735  18.112  0.00  0.00    +0.000 C 
ATOM     22  C   UNL     1       9.054   9.933  19.383  0.00  0.00    +0.000 C 
ENDBRANCH  19  20
ENDBRANCH   6  19
TORSDOF 6
ENDMDL
MODEL 5
REMARK VINA RESULT:      -6.2      3.350      6.170
REMARK  Name = 
REMARK  6 active torsions:
REMARK  status: ('A' for Active; 'I' for Inactive)
REMARK    1  A    between atoms: O_1  and  C_2
REMARK    2  A    between atoms: C_2  and  C_3
REMARK    3  A    between atoms: N_8  and  C_9
REMARK    4  A    between atoms: C_9  and  C_10
REMARK    5  A    between atoms: C_15  and  O_16
REMARK    6  A    between atoms: C_17  and  O_18
REMARK                            x       y       z     vdW  Elec       q    Type
REMARK                         _______ _______ _______ _____ _____    ______ ____
ROOT
ATOM      1  C   UNL     1       6.394   6.372  17.930  0.00  0.00    +0.000 C 
ATOM      2  O   UNL     1       5.270   7.106  17.434  0.00  0.00    +0.000 OA
ATOM      3  C   UNL     1       4.017   6.443  17.440  0.00  0.00    +0.000 C 
ATOM      4  S   UNL     1       3.203   6.379  19.051  0.00  0.00    +0.000 S 
ATOM      5  C   UNL     1       2.364   4.931  18.548  0.00  0.00    +0.000 C 
ATOM      6  N   UNL     1       1.331   4.537  19.336  0.00  0.00    +0.000 N 
ATOM      7  N   UNL     1       2.781   4.328  17.489  0.00  0.00    +0.000 NA
ATOM      8  C   UNL     1       4.015   4.983  16.984  0.00  0.00    +0.000 C 
ATOM      9  C   UNL     1       5.241   4.198  17.489  0.00  0.00    +0.000 C 
ATOM     10  C   UNL     1       6.531   4.995  17.263  0.00  0.00    +0.000 C 
ATOM     11  H   UNL     1       1.257   5.028  20.217  0.00  0.00    +0.000 HD
ENDROOT
BRANCH   9  12
ATOM     12  O   UNL     1       5.318   2.912  16.856  0.00  0.00    +0.000 OA
ATOM     13  H   UNL     1       4.970   2.998  15.953  0.00  0.00    +0.000 HD
ENDBRANCH   9  12
BRANCH  10  14
ATOM     14  O   UNL     1       7.656   4.287  17.797  0.00  0.00    +0.000 OA
ATOM     15  H   UNL     1       7.875   3.552  17.196  0.00  0.00    +0.000 HD
ENDBRANCH  10  14
BRANCH   1  16
ATOM     16  C   UNL     1       7.652   7.227  17.709  0.00  0.00    +0.000 C 
BRANCH  16  17
ATOM     17  O   UNL     1       8.486   7.215  18.868  0.00  0.00    +0.000 OA
ATOM     18  H   UNL     1       8.234   6.433  19.389  0.00  0.00    +0.000 HD
ENDBRANCH  16  17
ENDBRANCH   1  16
BRANCH   6  19
ATOM     19  C   UNL     1       0.956   3.137  19.372  0.00  0.00    +0.000 C 
BRANCH  19  20
ATOM     20  C   UNL     1       1.745   2.432  20.430  0.00  0.00    +0.000 C 
ATOM     21  C   UNL     1       2.488   3.213  21.488  0.00  0.00    +0.000 C 
ATOM     22  C   UNL     1       1.258   2.435  21.862  0.00  0.00    +0.000 C 
ENDBRANCH  19  20
ENDBRANCH   6  19
TORSDOF 6
ENDMDL
MODEL 6
REMARK VINA RESULT:      -6.2      1.306      1.589
REMARK  Name = 
REMARK  6 active torsions:
REMARK  status: ('A' for Active; 'I' for Inactive)
REMARK    1  A    between atoms: O_1  and  C_2
REMARK    2  A    between atoms: C_2  and  C_3
REMARK    3  A    between atoms: N_8  and  C_9
REMARK    4  A    between atoms: C_9  and  C_10
REMARK    5  A    between atoms: C_15  and  O_16
REMARK    6  A    between atoms: C_17  and  O_18
REMARK                            x       y       z     vdW  Elec       q    Type
REMARK                         _______ _______ _______ _____ _____    ______ ____
ROOT
ATOM      1  C   UNL     1       1.974   4.225  19.546  0.00  0.00    +0.000 C 
ATOM      2  O   UNL     1       2.412   5.553  19.851  0.00  0.00    +0.000 OA
ATOM      3  C   UNL     1       3.680   5.940  19.349  0.00  0.00    +0.000 C 
ATOM      4  S   UNL     1       3.697   6.388  17.601  0.00  0.00    +0.000 S 
ATOM      5  C   UNL     1       5.386   5.946  17.523  0.00  0.00    +0.000 C 
ATOM      6  N   UNL     1       6.056   6.343  16.410  0.00  0.00    +0.000 N 
ATOM      7  N   UNL     1       5.879   5.269  18.502  0.00  0.00    +0.000 NA
ATOM      8  C   UNL     1       4.804   4.909  19.462  0.00  0.00    +0.000 C 
ATOM      9  C   UNL     1       4.328   3.474  19.167  0.00  0.00    +0.000 C 
ATOM     10  C   UNL     1       3.025   3.166  19.913  0.00  0.00    +0.000 C 
ATOM     11  H   UNL     1       5.471   6.711  15.671  0.00  0.00    +0.000 HD
ENDROOT
BRANCH   9  12
ATOM     12  O   UNL     1       5.347   2.520  19.504  0.00  0.00    +0.000 OA
ATOM     13  H   UNL     1       5.042   2.011  20.273  0.00  0.00    +0.000 HD
ENDBRANCH   9  12
BRANCH  10  14
ATOM     14  O   UNL     1       2.555   1.854  19.578  0.00  0.00    +0.000 OA
ATOM     15  H   UNL     1       3.240   1.207  19.825  0.00  0.00    +0.000 HD
ENDBRANCH  10  14
BRANCH   1  16
ATOM     16  C   UNL     1       0.652   3.980  20.291  0.00  0.00    +0.000 C 
BRANCH  16  17
ATOM     17  O   UNL     1      -0.021   2.832  19.771  0.00  0.00    +0.000 OA
ATOM     18  H   UNL     1      -0.967   3.054  19.733  0.00  0.00    +0.000 HD
ENDBRANCH  16  17
ENDBRANCH   1  16
BRANCH   6  19
ATOM     19  C   UNL     1       7.215   5.592  15.971  0.00  0.00    +0.000 C 
BRANCH  19  20
ATOM     20  C   UNL     1       6.771   4.387  15.203  0.00  0.00    +0.000 C 
ATOM     21  C   UNL     1       5.502   4.417  14.385  0.00  0.00    +0.000 C 
ATOM     22  C   UNL     1       6.835   4.389  13.692  0.00  0.00    +0.000 C 
ENDBRANCH  19  20
ENDBRANCH   6  19
TORSDOF 6
ENDMDL
MODEL 7
REMARK VINA RESULT:      -6.2      1.045      1.282
REMARK  Name = 
REMARK  6 active torsions:
REMARK  status: ('A' for Active; 'I' for Inactive)
REMARK    1  A    between atoms: O_1  and  C_2
REMARK    2  A    between atoms: C_2  and  C_3
REMARK    3  A    between atoms: N_8  and  C_9
REMARK    4  A    between atoms: C_9  and  C_10
REMARK    5  A    between atoms: C_15  and  O_16
REMARK    6  A    between atoms: C_17  and  O_18
REMARK                            x       y       z     vdW  Elec       q    Type
REMARK                         _______ _______ _______ _____ _____    ______ ____
ROOT
ATOM      1  C   UNL     1       2.577   5.058  19.585  0.00  0.00    +0.000 C 
ATOM      2  O   UNL     1       3.749   5.877  19.641  0.00  0.00    +0.000 OA
ATOM      3  C   UNL     1       4.785   5.579  18.721  0.00  0.00    +0.000 C 
ATOM      4  S   UNL     1       4.504   6.180  17.042  0.00  0.00    +0.000 S 
ATOM      5  C   UNL     1       5.533   4.907  16.433  0.00  0.00    +0.000 C 
ATOM      6  N   UNL     1       5.924   5.025  15.138  0.00  0.00    +0.000 N 
ATOM      7  N   UNL     1       5.840   3.944  17.232  0.00  0.00    +0.000 NA
ATOM      8  C   UNL     1       5.111   4.098  18.517  0.00  0.00    +0.000 C 
ATOM      9  C   UNL     1       3.854   3.209  18.489  0.00  0.00    +0.000 C 
ATOM     10  C   UNL     1       2.911   3.559  19.645  0.00  0.00    +0.000 C 
ATOM     11  H   UNL     1       5.449   5.749  14.615  0.00  0.00    +0.000 HD
ENDROOT
BRANCH   9  12
ATOM     12  O   UNL     1       4.212   1.819  18.526  0.00  0.00    +0.000 OA
ATOM     13  H   UNL     1       4.155   1.468  17.622  0.00  0.00    +0.000 HD
ENDBRANCH   9  12
BRANCH  10  14
ATOM     14  O   UNL     1       1.715   2.774  19.571  0.00  0.00    +0.000 OA
ATOM     15  H   UNL     1       0.971   3.361  19.346  0.00  0.00    +0.000 HD
ENDBRANCH  10  14
BRANCH   1  16
ATOM     16  C   UNL     1       1.654   5.471  20.742  0.00  0.00    +0.000 C 
BRANCH  16  17
ATOM     17  O   UNL     1       1.863   6.838  21.097  0.00  0.00    +0.000 OA
ATOM     18  H   UNL     1       2.321   7.258  20.348  0.00  0.00    +0.000 HD
ENDBRANCH  16  17
ENDBRANCH   1  16
BRANCH   6  19
ATOM     19  C   UNL     1       6.262   3.834  14.385  0.00  0.00    +0.000 C 
BRANCH  19  20
ATOM     20  C   UNL     1       5.952   4.050  12.938  0.00  0.00    +0.000 C 
ATOM     21  C   UNL     1       6.985   3.760  11.875  0.00  0.00    +0.000 C 
ATOM     22  C   UNL     1       5.789   2.862  12.015  0.00  0.00    +0.000 C 
ENDBRANCH  19  20
ENDBRANCH   6  19
TORSDOF 6
ENDMDL
MODEL 8
REMARK VINA RESULT:      -6.1      1.497      1.756
REMARK  Name = 
REMARK  6 active torsions:
REMARK  status: ('A' for Active; 'I' for Inactive)
REMARK    1  A    between atoms: O_1  and  C_2
REMARK    2  A    between atoms: C_2  and  C_3
REMARK    3  A    between atoms: N_8  and  C_9
REMARK    4  A    between atoms: C_9  and  C_10
REMARK    5  A    between atoms: C_15  and  O_16
REMARK    6  A    between atoms: C_17  and  O_18
REMARK                            x       y       z     vdW  Elec       q    Type
REMARK                         _______ _______ _______ _____ _____    ______ ____
ROOT
ATOM      1  C   UNL     1       3.079   5.663  18.836  0.00  0.00    +0.000 C 
ATOM      2  O   UNL     1       4.351   6.316  18.771  0.00  0.00    +0.000 OA
ATOM      3  C   UNL     1       5.296   5.790  17.856  0.00  0.00    +0.000 C 
ATOM      4  S   UNL     1       5.023   6.257  16.133  0.00  0.00    +0.000 S 
ATOM      5  C   UNL     1       5.846   4.801  15.627  0.00  0.00    +0.000 C 
ATOM      6  N   UNL     1       6.191   4.737  14.315  0.00  0.00    +0.000 N 
ATOM      7  N   UNL     1       6.058   3.888  16.511  0.00  0.00    +0.000 NA
ATOM      8  C   UNL     1       5.413   4.266  17.795  0.00  0.00    +0.000 C 
ATOM      9  C   UNL     1       4.049   3.558  17.898  0.00  0.00    +0.000 C 
ATOM     10  C   UNL     1       3.213   4.146  19.040  0.00  0.00    +0.000 C 
ATOM     11  H   UNL     1       5.794   5.464  13.735  0.00  0.00    +0.000 HD
ENDROOT
BRANCH   9  12
ATOM     12  O   UNL     1       4.221   2.143  18.067  0.00  0.00    +0.000 OA
ATOM     13  H   UNL     1       4.760   1.996  18.862  0.00  0.00    +0.000 HD
ENDBRANCH   9  12
BRANCH  10  14
ATOM     14  O   UNL     1       1.921   3.528  19.084  0.00  0.00    +0.000 OA
ATOM     15  H   UNL     1       1.686   3.236  18.185  0.00  0.00    +0.000 HD
ENDBRANCH  10  14
BRANCH   1  16
ATOM     16  C   UNL     1       2.272   6.310  19.972  0.00  0.00    +0.000 C 
BRANCH  16  17
ATOM     17  O   UNL     1       2.295   5.493  21.144  0.00  0.00    +0.000 OA
ATOM     18  H   UNL     1       1.792   5.966  21.828  0.00  0.00    +0.000 HD
ENDBRANCH  16  17
ENDBRANCH   1  16
BRANCH   6  19
ATOM     19  C   UNL     1       6.334   3.442  13.679  0.00  0.00    +0.000 C 
BRANCH  19  20
ATOM     20  C   UNL     1       5.977   3.552  12.231  0.00  0.00    +0.000 C 
ATOM     21  C   UNL     1       5.634   2.322  11.424  0.00  0.00    +0.000 C 
ATOM     22  C   UNL     1       4.554   3.303  11.783  0.00  0.00    +0.000 C 
ENDBRANCH  19  20
ENDBRANCH   6  19
TORSDOF 6
ENDMDL
MODEL 9
REMARK VINA RESULT:      -6.1      3.852      5.364
REMARK  Name = 
REMARK  6 active torsions:
REMARK  status: ('A' for Active; 'I' for Inactive)
REMARK    1  A    between atoms: O_1  and  C_2
REMARK    2  A    between atoms: C_2  and  C_3
REMARK    3  A    between atoms: N_8  and  C_9
REMARK    4  A    between atoms: C_9  and  C_10
REMARK    5  A    between atoms: C_15  and  O_16
REMARK    6  A    between atoms: C_17  and  O_18
REMARK                            x       y       z     vdW  Elec       q    Type
REMARK                         _______ _______ _______ _____ _____    ______ ____
ROOT
ATOM      1  C   UNL     1       4.101   3.905  18.078  0.00  0.00    +0.000 C 
ATOM      2  O   UNL     1       5.071   3.765  17.036  0.00  0.00    +0.000 OA
ATOM      3  C   UNL     1       5.829   4.917  16.708  0.00  0.00    +0.000 C 
ATOM      4  S   UNL     1       7.179   5.286  17.849  0.00  0.00    +0.000 S 
ATOM      5  C   UNL     1       7.073   6.971  17.402  0.00  0.00    +0.000 C 
ATOM      6  N   UNL     1       8.106   7.759  17.797  0.00  0.00    +0.000 N 
ATOM      7  N   UNL     1       6.032   7.359  16.749  0.00  0.00    +0.000 NA
ATOM      8  C   UNL     1       5.063   6.239  16.626  0.00  0.00    +0.000 C 
ATOM      9  C   UNL     1       3.995   6.378  17.727  0.00  0.00    +0.000 C 
ATOM     10  C   UNL     1       3.161   5.097  17.843  0.00  0.00    +0.000 C 
ATOM     11  H   UNL     1       8.748   7.324  18.446  0.00  0.00    +0.000 HD
ENDROOT
BRANCH   9  12
ATOM     12  O   UNL     1       3.154   7.514  17.480  0.00  0.00    +0.000 OA
ATOM     13  H   UNL     1       2.649   7.699  18.289  0.00  0.00    +0.000 HD
ENDBRANCH   9  12
BRANCH  10  14
ATOM     14  O   UNL     1       2.215   5.211  18.914  0.00  0.00    +0.000 OA
ATOM     15  H   UNL     1       1.720   4.375  18.981  0.00  0.00    +0.000 HD
ENDBRANCH  10  14
BRANCH   1  16
ATOM     16  C   UNL     1       3.317   2.586  18.174  0.00  0.00    +0.000 C 
BRANCH  16  17
ATOM     17  O   UNL     1       2.139   2.634  17.367  0.00  0.00    +0.000 OA
ATOM     18  H   UNL     1       1.557   3.308  17.757  0.00  0.00    +0.000 HD
ENDBRANCH  16  17
ENDBRANCH   1  16
BRANCH   6  19
ATOM     19  C   UNL     1       7.884   9.177  17.998  0.00  0.00    +0.000 C 
BRANCH  19  20
ATOM     20  C   UNL     1       9.180   9.847  18.326  0.00  0.00    +0.000 C 
ATOM     21  C   UNL     1       9.282  11.354  18.369  0.00  0.00    +0.000 C 
ATOM     22  C   UNL     1       9.346  10.566  19.647  0.00  0.00    +0.000 C 
ENDBRANCH  19  20
ENDBRANCH   6  19
TORSDOF 6
ENDMDL
