MODEL 1
REMARK VINA RESULT:      -8.3      0.000      0.000
REMARK  Name = 
REMARK  7 active torsions:
REMARK  status: ('A' for Active; 'I' for Inactive)
REMARK    1  A    between atoms: C_1  and  C_2
REMARK    2  A    between atoms: C_2  and  C_3
REMARK    3  A    between atoms: C_2  and  C_4
REMARK    4  A    between atoms: C_7  and  N_8
REMARK    5  A    between atoms: C_18  and  O_19
REMARK    6  A    between atoms: C_22  and  C_23
REMARK    7  A    between atoms: C_27  and  C_28
REMARK                            x       y       z     vdW  Elec       q    Type
REMARK                         _______ _______ _______ _____ _____    ______ ____
ROOT
ATOM      1  N   UNL     1       1.828   8.549  20.230  0.00  0.00    +0.000 NA
ATOM      2  C   UNL     1       0.608   8.907  20.568  0.00  0.00    +0.000 C 
ATOM      3  C   UNL     1      -0.049   8.350  21.794  0.00  0.00    +0.000 C 
ATOM      4  C   UNL     1      -0.160   9.679  22.516  0.00  0.00    +0.000 C 
ATOM      5  C   UNL     1      -0.695  10.573  21.391  0.00  0.00    +0.000 C 
ATOM      6  C   UNL     1      -0.744  12.046  21.645  0.00  0.00    +0.000 C 
ATOM      7  C   UNL     1      -1.401  12.219  22.958  0.00  0.00    +0.000 C 
ATOM      8  C   UNL     1      -1.195  13.625  23.304  0.00  0.00    +0.000 C 
ATOM      9  C   UNL     1      -0.949  14.571  22.406  0.00  0.00    +0.000 C 
ATOM     10  C   UNL     1      -0.738  15.846  23.151  0.00  0.00    +0.000 C 
ATOM     11  C   UNL     1      -0.993  17.265  22.733  0.00  0.00    +0.000 C 
ATOM     12  C   UNL     1      -1.371  17.282  21.263  0.00  0.00    +0.000 C 
ATOM     13  C   UNL     1      -1.805  15.872  20.502  0.00  0.00    +0.000 C 
ATOM     14  C   UNL     1      -0.990  14.524  20.849  0.00  0.00    +0.000 C 
ATOM     15  C   UNL     1       0.345  14.711  20.092  0.00  0.00    +0.000 C 
ATOM     16  C   UNL     1      -1.476  12.923  20.528  0.00  0.00    +0.000 C 
ATOM     17  C   UNL     1      -1.340  12.194  19.098  0.00  0.00    +0.000 C 
ATOM     18  C   UNL     1      -1.044  10.603  19.084  0.00  0.00    +0.000 C 
ATOM     19  C   UNL     1       0.074  10.269  20.103  0.00  0.00    +0.000 C 
ATOM     20  C   UNL     1       1.326  11.010  19.569  0.00  0.00    +0.000 C 
ENDROOT
BRANCH   1  24
ATOM     21  C   UNL     1       2.094   4.720  18.697  0.00  0.00    +0.000 A 
ATOM     22  C   UNL     1       2.385   5.849  17.931  0.00  0.00    +0.000 A 
ATOM     23  C   UNL     1       2.321   7.092  18.489  0.00  0.00    +0.000 A 
ATOM     24  C   UNL     1       1.928   7.244  19.818  0.00  0.00    +0.000 A 
ATOM     25  C   UNL     1       1.745   6.148  20.650  0.00  0.00    +0.000 A 
ATOM     26  C   UNL     1       1.809   4.884  20.075  0.00  0.00    +0.000 A 
BRANCH  21  28
ATOM     27  C   UNL     1       3.377   2.619  18.025  0.00  0.00    +0.000 C 
ATOM     28  C   UNL     1       2.026   3.350  18.075  0.00  0.00    +0.000 C 
ATOM     29  C   UNL     1       0.984   2.477  18.767  0.00  0.00    +0.000 C 
ENDBRANCH  21  28
ENDBRANCH   1  24
BRANCH  11  30
ATOM     30  O   UNL     1       0.194  18.016  23.058  0.00  0.00    +0.000 OA
ATOM     31  H   UNL     1       0.774  17.446  23.644  0.00  0.00    +0.000 HD
ENDBRANCH  11  30
TORSDOF 3
ENDMDL
MODEL 2
REMARK VINA RESULT:      -8.2      2.512      3.642
REMARK  Name = 
REMARK  7 active torsions:
REMARK  status: ('A' for Active; 'I' for Inactive)
REMARK    1  A    between atoms: C_1  and  C_2
REMARK    2  A    between atoms: C_2  and  C_3
REMARK    3  A    between atoms: C_2  and  C_4
REMARK    4  A    between atoms: C_7  and  N_8
REMARK    5  A    between atoms: C_18  and  O_19
REMARK    6  A    between atoms: C_22  and  C_23
REMARK    7  A    between atoms: C_27  and  C_28
REMARK                            x       y       z     vdW  Elec       q    Type
REMARK                         _______ _______ _______ _____ _____    ______ ____
ROOT
ATOM      1  N   UNL     1       1.194   8.422  19.688  0.00  0.00    +0.000 NA
ATOM      2  C   UNL     1       0.800   9.563  19.162  0.00  0.00    +0.000 C 
ATOM      3  C   UNL     1       0.063   9.599  17.859  0.00  0.00    +0.000 C 
ATOM      4  C   UNL     1      -1.219  10.171  18.433  0.00  0.00    +0.000 C 
ATOM      5  C   UNL     1      -0.662  11.291  19.319  0.00  0.00    +0.000 C 
ATOM      6  C   UNL     1      -1.616  11.977  20.244  0.00  0.00    +0.000 C 
ATOM      7  C   UNL     1      -2.794  12.342  19.429  0.00  0.00    +0.000 C 
ATOM      8  C   UNL     1      -3.811  12.759  20.395  0.00  0.00    +0.000 C 
ATOM      9  C   UNL     1      -3.525  13.188  21.618  0.00  0.00    +0.000 C 
ATOM     10  C   UNL     1      -4.820  13.454  22.309  0.00  0.00    +0.000 C 
ATOM     11  C   UNL     1      -5.154  14.434  23.395  0.00  0.00    +0.000 C 
ATOM     12  C   UNL     1      -3.870  15.078  23.886  0.00  0.00    +0.000 C 
ATOM     13  C   UNL     1      -2.479  14.941  22.990  0.00  0.00    +0.000 C 
ATOM     14  C   UNL     1      -2.155  13.532  22.276  0.00  0.00    +0.000 C 
ATOM     15  C   UNL     1      -1.679  12.641  23.446  0.00  0.00    +0.000 C 
ATOM     16  C   UNL     1      -1.045  13.256  21.013  0.00  0.00    +0.000 C 
ATOM     17  C   UNL     1       0.546  13.098  21.210  0.00  0.00    +0.000 C 
ATOM     18  C   UNL     1       1.336  12.094  20.218  0.00  0.00    +0.000 C 
ATOM     19  C   UNL     1       0.553  10.764  20.086  0.00  0.00    +0.000 C 
ATOM     20  C   UNL     1       0.564  10.159  21.513  0.00  0.00    +0.000 C 
ENDROOT
BRANCH   1  24
ATOM     21  C   UNL     1       4.277   6.399  17.822  0.00  0.00    +0.000 A 
ATOM     22  C   UNL     1       3.606   5.875  18.926  0.00  0.00    +0.000 A 
ATOM     23  C   UNL     1       2.568   6.559  19.487  0.00  0.00    +0.000 A 
ATOM     24  C   UNL     1       2.197   7.806  18.983  0.00  0.00    +0.000 A 
ATOM     25  C   UNL     1       2.757   8.312  17.818  0.00  0.00    +0.000 A 
ATOM     26  C   UNL     1       3.814   7.610  17.252  0.00  0.00    +0.000 A 
BRANCH  21  28
ATOM     27  C   UNL     1       5.351   5.234  15.822  0.00  0.00    +0.000 C 
ATOM     28  C   UNL     1       5.508   5.731  17.268  0.00  0.00    +0.000 C 
ATOM     29  C   UNL     1       6.730   6.638  17.379  0.00  0.00    +0.000 C 
ENDBRANCH  21  28
ENDBRANCH   1  24
BRANCH  11  30
ATOM     30  O   UNL     1      -5.885  13.707  24.402  0.00  0.00    +0.000 OA
ATOM     31  H   UNL     1      -6.047  12.778  24.063  0.00  0.00    +0.000 HD
ENDBRANCH  11  30
TORSDOF 3
ENDMDL
MODEL 3
REMARK VINA RESULT:      -7.8      2.413      3.369
REMARK  Name = 
REMARK  7 active torsions:
REMARK  status: ('A' for Active; 'I' for Inactive)
REMARK    1  A    between atoms: C_1  and  C_2
REMARK    2  A    between atoms: C_2  and  C_3
REMARK    3  A    between atoms: C_2  and  C_4
REMARK    4  A    between atoms: C_7  and  N_8
REMARK    5  A    between atoms: C_18  and  O_19
REMARK    6  A    between atoms: C_22  and  C_23
REMARK    7  A    between atoms: C_27  and  C_28
REMARK                            x       y       z     vdW  Elec       q    Type
REMARK                         _______ _______ _______ _____ _____    ______ ____
ROOT
ATOM      1  N   UNL     1       1.214   8.400  19.808  0.00  0.00    +0.000 NA
ATOM      2  C   UNL     1       0.828   9.518  19.231  0.00  0.00    +0.000 C 
ATOM      3  C   UNL     1       0.079   9.499  17.934  0.00  0.00    +0.000 C 
ATOM      4  C   UNL     1      -1.190  10.113  18.491  0.00  0.00    +0.000 C 
ATOM      5  C   UNL     1      -0.612  11.269  19.317  0.00  0.00    +0.000 C 
ATOM      6  C   UNL     1      -1.550  12.011  20.216  0.00  0.00    +0.000 C 
ATOM      7  C   UNL     1      -2.732  12.349  19.395  0.00  0.00    +0.000 C 
ATOM      8  C   UNL     1      -3.734  12.824  20.348  0.00  0.00    +0.000 C 
ATOM      9  C   UNL     1      -3.431  13.309  21.546  0.00  0.00    +0.000 C 
ATOM     10  C   UNL     1      -4.717  13.623  22.235  0.00  0.00    +0.000 C 
ATOM     11  C   UNL     1      -5.030  14.659  23.275  0.00  0.00    +0.000 C 
ATOM     12  C   UNL     1      -3.734  15.310  23.723  0.00  0.00    +0.000 C 
ATOM     13  C   UNL     1      -2.353  15.114  22.822  0.00  0.00    +0.000 C 
ATOM     14  C   UNL     1      -2.052  13.668  22.174  0.00  0.00    +0.000 C 
ATOM     15  C   UNL     1      -1.575  12.830  23.383  0.00  0.00    +0.000 C 
ATOM     16  C   UNL     1      -0.957  13.318  20.917  0.00  0.00    +0.000 C 
ATOM     17  C   UNL     1       0.634  13.151  21.107  0.00  0.00    +0.000 C 
ATOM     18  C   UNL     1       1.403  12.090  20.158  0.00  0.00    +0.000 C 
ATOM     19  C   UNL     1       0.604  10.765  20.098  0.00  0.00    +0.000 C 
ATOM     20  C   UNL     1       0.621  10.230  21.553  0.00  0.00    +0.000 C 
ENDROOT
BRANCH   1  24
ATOM     21  C   UNL     1       4.126   6.583  17.506  0.00  0.00    +0.000 A 
ATOM     22  C   UNL     1       3.652   7.863  17.227  0.00  0.00    +0.000 A 
ATOM     23  C   UNL     1       2.717   8.440  18.037  0.00  0.00    +0.000 A 
ATOM     24  C   UNL     1       2.204   7.738  19.126  0.00  0.00    +0.000 A 
ATOM     25  C   UNL     1       2.730   6.512  19.510  0.00  0.00    +0.000 A 
ATOM     26  C   UNL     1       3.680   5.928  18.681  0.00  0.00    +0.000 A 
BRANCH  21  28
ATOM     27  C   UNL     1       6.545   6.124  16.835  0.00  0.00    +0.000 C 
ATOM     28  C   UNL     1       5.055   5.870  16.558  0.00  0.00    +0.000 C 
ATOM     29  C   UNL     1       4.777   4.371  16.529  0.00  0.00    +0.000 C 
ENDBRANCH  21  28
ENDBRANCH   1  24
BRANCH  11  30
ATOM     30  O   UNL     1      -5.760  13.991  24.323  0.00  0.00    +0.000 OA
ATOM     31  H   UNL     1      -5.620  14.499  25.175  0.00  0.00    +0.000 HD
ENDBRANCH  11  30
TORSDOF 3
ENDMDL
MODEL 4
REMARK VINA RESULT:      -7.8      0.299      1.123
REMARK  Name = 
REMARK  7 active torsions:
REMARK  status: ('A' for Active; 'I' for Inactive)
REMARK    1  A    between atoms: C_1  and  C_2
REMARK    2  A    between atoms: C_2  and  C_3
REMARK    3  A    between atoms: C_2  and  C_4
REMARK    4  A    between atoms: C_7  and  N_8
REMARK    5  A    between atoms: C_18  and  O_19
REMARK    6  A    between atoms: C_22  and  C_23
REMARK    7  A    between atoms: C_27  and  C_28
REMARK                            x       y       z     vdW  Elec       q    Type
REMARK                         _______ _______ _______ _____ _____    ______ ____
ROOT
ATOM      1  N   UNL     1       1.833   8.696  20.150  0.00  0.00    +0.000 NA
ATOM      2  C   UNL     1       0.604   9.017  20.494  0.00  0.00    +0.000 C 
ATOM      3  C   UNL     1      -0.043   8.410  21.700  0.00  0.00    +0.000 C 
ATOM      4  C   UNL     1      -0.186   9.714  22.460  0.00  0.00    +0.000 C 
ATOM      5  C   UNL     1      -0.738  10.629  21.360  0.00  0.00    +0.000 C 
ATOM      6  C   UNL     1      -0.820  12.093  21.657  0.00  0.00    +0.000 C 
ATOM      7  C   UNL     1      -1.485  12.213  22.971  0.00  0.00    +0.000 C 
ATOM      8  C   UNL     1      -1.310  13.613  23.359  0.00  0.00    +0.000 C 
ATOM      9  C   UNL     1      -1.083  14.590  22.489  0.00  0.00    +0.000 C 
ATOM     10  C   UNL     1      -0.902  15.846  23.272  0.00  0.00    +0.000 C 
ATOM     11  C   UNL     1      -1.188  17.271  22.895  0.00  0.00    +0.000 C 
ATOM     12  C   UNL     1      -1.562  17.323  21.425  0.00  0.00    +0.000 C 
ATOM     13  C   UNL     1      -1.962  15.926  20.622  0.00  0.00    +0.000 C 
ATOM     14  C   UNL     1      -1.118  14.587  20.932  0.00  0.00    +0.000 C 
ATOM     15  C   UNL     1       0.214  14.825  20.185  0.00  0.00    +0.000 C 
ATOM     16  C   UNL     1      -1.567  12.986  20.562  0.00  0.00    +0.000 C 
ATOM     17  C   UNL     1      -1.411  12.302  19.113  0.00  0.00    +0.000 C 
ATOM     18  C   UNL     1      -1.080  10.719  19.054  0.00  0.00    +0.000 C 
ATOM     19  C   UNL     1       0.042  10.380  20.067  0.00  0.00    +0.000 C 
ATOM     20  C   UNL     1       1.279  11.164  19.558  0.00  0.00    +0.000 C 
ENDROOT
BRANCH   1  24
ATOM     21  C   UNL     1       2.277   4.726  19.091  0.00  0.00    +0.000 A 
ATOM     22  C   UNL     1       1.911   5.115  20.378  0.00  0.00    +0.000 A 
ATOM     23  C   UNL     1       1.738   6.435  20.674  0.00  0.00    +0.000 A 
ATOM     24  C   UNL     1       1.964   7.407  19.700  0.00  0.00    +0.000 A 
ATOM     25  C   UNL     1       2.213   7.063  18.378  0.00  0.00    +0.000 A 
ATOM     26  C   UNL     1       2.389   5.717  18.083  0.00  0.00    +0.000 A 
BRANCH  21  28
ATOM     27  C   UNL     1       1.372   2.384  18.641  0.00  0.00    +0.000 C 
ATOM     28  C   UNL     1       2.605   3.291  18.771  0.00  0.00    +0.000 C 
ATOM     29  C   UNL     1       3.467   3.184  17.516  0.00  0.00    +0.000 C 
ENDBRANCH  21  28
ENDBRANCH   1  24
BRANCH  11  30
ATOM     30  O   UNL     1      -0.019  18.038  23.246  0.00  0.00    +0.000 OA
ATOM     31  H   UNL     1       0.006  18.131  24.244  0.00  0.00    +0.000 HD
ENDBRANCH  11  30
TORSDOF 3
ENDMDL
MODEL 5
REMARK VINA RESULT:      -7.6      1.421      1.586
REMARK  Name = 
REMARK  7 active torsions:
REMARK  status: ('A' for Active; 'I' for Inactive)
REMARK    1  A    between atoms: C_1  and  C_2
REMARK    2  A    between atoms: C_2  and  C_3
REMARK    3  A    between atoms: C_2  and  C_4
REMARK    4  A    between atoms: C_7  and  N_8
REMARK    5  A    between atoms: C_18  and  O_19
REMARK    6  A    between atoms: C_22  and  C_23
REMARK    7  A    between atoms: C_27  and  C_28
REMARK                            x       y       z     vdW  Elec       q    Type
REMARK                         _______ _______ _______ _____ _____    ______ ____
ROOT
ATOM      1  N   UNL     1       2.636   7.974  19.203  0.00  0.00    +0.000 NA
ATOM      2  C   UNL     1       1.478   8.389  19.670  0.00  0.00    +0.000 C 
ATOM      3  C   UNL     1       1.009   7.992  21.036  0.00  0.00    +0.000 C 
ATOM      4  C   UNL     1       1.002   9.399  21.602  0.00  0.00    +0.000 C 
ATOM      5  C   UNL     1       0.307  10.162  20.467  0.00  0.00    +0.000 C 
ATOM      6  C   UNL     1       0.294  11.655  20.548  0.00  0.00    +0.000 C 
ATOM      7  C   UNL     1      -0.165  11.993  21.911  0.00  0.00    +0.000 C 
ATOM      8  C   UNL     1       0.089  13.427  22.053  0.00  0.00    +0.000 C 
ATOM      9  C   UNL     1       0.199  14.255  21.022  0.00  0.00    +0.000 C 
ATOM     10  C   UNL     1       0.516  15.606  21.570  0.00  0.00    +0.000 C 
ATOM     11  C   UNL     1       0.200  16.969  21.027  0.00  0.00    +0.000 C 
ATOM     12  C   UNL     1      -0.389  16.818  19.636  0.00  0.00    +0.000 C 
ATOM     13  C   UNL     1      -0.927  15.335  19.121  0.00  0.00    +0.000 C 
ATOM     14  C   UNL     1      -0.068  14.024  19.505  0.00  0.00    +0.000 C 
ATOM     15  C   UNL     1       1.141  14.098  18.544  0.00  0.00    +0.000 C 
ATOM     16  C   UNL     1      -0.594  12.405  19.451  0.00  0.00    +0.000 C 
ATOM     17  C   UNL     1      -0.667  11.509  18.115  0.00  0.00    +0.000 C 
ATOM     18  C   UNL     1      -0.375   9.923  18.249  0.00  0.00    +0.000 C 
ATOM     19  C   UNL     1       0.880   9.695  19.128  0.00  0.00    +0.000 C 
ATOM     20  C   UNL     1       2.040  10.346  18.332  0.00  0.00    +0.000 C 
ENDROOT
BRANCH   1  24
ATOM     21  C   UNL     1       2.467   3.943  18.304  0.00  0.00    +0.000 A 
ATOM     22  C   UNL     1       1.652   4.880  17.672  0.00  0.00    +0.000 A 
ATOM     23  C   UNL     1       1.768   6.205  17.971  0.00  0.00    +0.000 A 
ATOM     24  C   UNL     1       2.677   6.627  18.941  0.00  0.00    +0.000 A 
ATOM     25  C   UNL     1       3.589   5.749  19.510  0.00  0.00    +0.000 A 
ATOM     26  C   UNL     1       3.465   4.400  19.201  0.00  0.00    +0.000 A 
BRANCH  21  28
ATOM     27  C   UNL     1       3.466   1.606  18.531  0.00  0.00    +0.000 C 
ATOM     28  C   UNL     1       2.269   2.465  18.092  0.00  0.00    +0.000 C 
ATOM     29  C   UNL     1       0.995   1.972  18.772  0.00  0.00    +0.000 C 
ENDBRANCH  21  28
ENDBRANCH   1  24
BRANCH  11  30
ATOM     30  O   UNL     1       1.420  17.734  21.083  0.00  0.00    +0.000 OA
ATOM     31  H   UNL     1       1.743  17.879  20.145  0.00  0.00    +0.000 HD
ENDBRANCH  11  30
TORSDOF 3
ENDMDL
MODEL 6
REMARK VINA RESULT:      -7.6      3.568      9.759
REMARK  Name = 
REMARK  7 active torsions:
REMARK  status: ('A' for Active; 'I' for Inactive)
REMARK    1  A    between atoms: C_1  and  C_2
REMARK    2  A    between atoms: C_2  and  C_3
REMARK    3  A    between atoms: C_2  and  C_4
REMARK    4  A    between atoms: C_7  and  N_8
REMARK    5  A    between atoms: C_18  and  O_19
REMARK    6  A    between atoms: C_22  and  C_23
REMARK    7  A    between atoms: C_27  and  C_28
REMARK                            x       y       z     vdW  Elec       q    Type
REMARK                         _______ _______ _______ _____ _____    ______ ____
ROOT
ATOM      1  N   UNL     1      -0.796  11.213  19.340  0.00  0.00    +0.000 NA
ATOM      2  C   UNL     1       0.343  10.730  19.787  0.00  0.00    +0.000 C 
ATOM      3  C   UNL     1       0.672  10.753  21.248  0.00  0.00    +0.000 C 
ATOM      4  C   UNL     1       0.720   9.247  21.411  0.00  0.00    +0.000 C 
ATOM      5  C   UNL     1       1.553   8.852  20.185  0.00  0.00    +0.000 C 
ATOM      6  C   UNL     1       1.654   7.396  19.860  0.00  0.00    +0.000 C 
ATOM      7  C   UNL     1       2.018   6.713  21.119  0.00  0.00    +0.000 C 
ATOM      8  C   UNL     1       1.845   5.287  20.842  0.00  0.00    +0.000 C 
ATOM      9  C   UNL     1       1.873   4.771  19.620  0.00  0.00    +0.000 C 
ATOM     10  C   UNL     1       1.598   3.311  19.749  0.00  0.00    +0.000 C 
ATOM     11  C   UNL     1       2.043   2.162  18.891  0.00  0.00    +0.000 C 
ATOM     12  C   UNL     1       2.734   2.712  17.657  0.00  0.00    +0.000 C 
ATOM     13  C   UNL     1       3.219   4.300  17.617  0.00  0.00    +0.000 C 
ATOM     14  C   UNL     1       2.250   5.420  18.255  0.00  0.00    +0.000 C 
ATOM     15  C   UNL     1       1.132   5.567  17.198  0.00  0.00    +0.000 C 
ATOM     16  C   UNL     1       2.675   7.010  18.693  0.00  0.00    +0.000 C 
ATOM     17  C   UNL     1       2.803   8.242  17.662  0.00  0.00    +0.000 C 
ATOM     18  C   UNL     1       2.400   9.717  18.191  0.00  0.00    +0.000 C 
ATOM     19  C   UNL     1       1.065   9.647  18.973  0.00  0.00    +0.000 C 
ATOM     20  C   UNL     1       0.019   9.196  17.921  0.00  0.00    +0.000 C 
ENDROOT
BRANCH   1  24
ATOM     21  C   UNL     1      -0.827  15.341  19.534  0.00  0.00    +0.000 A 
ATOM     22  C   UNL     1      -0.043  14.647  18.614  0.00  0.00    +0.000 A 
ATOM     23  C   UNL     1      -0.093  13.285  18.559  0.00  0.00    +0.000 A 
ATOM     24  C   UNL     1      -0.900  12.577  19.448  0.00  0.00    +0.000 A 
ATOM     25  C   UNL     1      -1.784  13.227  20.299  0.00  0.00    +0.000 A 
ATOM     26  C   UNL     1      -1.727  14.615  20.352  0.00  0.00    +0.000 A 
BRANCH  21  28
ATOM     27  C   UNL     1       0.725  17.290  20.084  0.00  0.00    +0.000 C 
ATOM     28  C   UNL     1      -0.692  16.832  19.708  0.00  0.00    +0.000 C 
ATOM     29  C   UNL     1      -1.173  17.582  18.469  0.00  0.00    +0.000 C 
ENDBRANCH  21  28
ENDBRANCH   1  24
BRANCH  11  30
ATOM     30  O   UNL     1       0.873   1.366  18.620  0.00  0.00    +0.000 OA
ATOM     31  H   UNL     1       0.417   1.171  19.491  0.00  0.00    +0.000 HD
ENDBRANCH  11  30
TORSDOF 3
ENDMDL
MODEL 7
REMARK VINA RESULT:      -7.5      1.096      1.281
REMARK  Name = 
REMARK  7 active torsions:
REMARK  status: ('A' for Active; 'I' for Inactive)
REMARK    1  A    between atoms: C_1  and  C_2
REMARK    2  A    between atoms: C_2  and  C_3
REMARK    3  A    between atoms: C_2  and  C_4
REMARK    4  A    between atoms: C_7  and  N_8
REMARK    5  A    between atoms: C_18  and  O_19
REMARK    6  A    between atoms: C_22  and  C_23
REMARK    7  A    between atoms: C_27  and  C_28
REMARK                            x       y       z     vdW  Elec       q    Type
REMARK                         _______ _______ _______ _____ _____    ______ ____
ROOT
ATOM      1  N   UNL     1       2.244   8.800  19.390  0.00  0.00    +0.000 NA
ATOM      2  C   UNL     1       1.074   8.852  19.992  0.00  0.00    +0.000 C 
ATOM      3  C   UNL     1       0.855   8.178  21.311  0.00  0.00    +0.000 C 
ATOM      4  C   UNL     1       0.576   9.454  22.081  0.00  0.00    +0.000 C 
ATOM      5  C   UNL     1      -0.393  10.161  21.125  0.00  0.00    +0.000 C 
ATOM      6  C   UNL     1      -0.749  11.581  21.429  0.00  0.00    +0.000 C 
ATOM      7  C   UNL     1      -1.131  11.616  22.857  0.00  0.00    +0.000 C 
ATOM      8  C   UNL     1      -1.209  13.038  23.194  0.00  0.00    +0.000 C 
ATOM      9  C   UNL     1      -1.404  13.993  22.294  0.00  0.00    +0.000 C 
ATOM     10  C   UNL     1      -1.360  15.298  23.016  0.00  0.00    +0.000 C 
ATOM     11  C   UNL     1      -2.042  16.599  22.707  0.00  0.00    +0.000 C 
ATOM     12  C   UNL     1      -2.719  16.487  21.353  0.00  0.00    +0.000 C 
ATOM     13  C   UNL     1      -2.943  14.996  20.659  0.00  0.00    +0.000 C 
ATOM     14  C   UNL     1      -1.765  13.901  20.782  0.00  0.00    +0.000 C 
ATOM     15  C   UNL     1      -0.712  14.395  19.763  0.00  0.00    +0.000 C 
ATOM     16  C   UNL     1      -1.897  12.223  20.522  0.00  0.00    +0.000 C 
ATOM     17  C   UNL     1      -1.894  11.517  19.074  0.00  0.00    +0.000 C 
ATOM     18  C   UNL     1      -1.224  10.049  18.948  0.00  0.00    +0.000 C 
ATOM     19  C   UNL     1       0.133  10.027  19.694  0.00  0.00    +0.000 C 
ATOM     20  C   UNL     1       1.018  11.044  18.927  0.00  0.00    +0.000 C 
ENDROOT
BRANCH   1  24
ATOM     21  C   UNL     1       3.325   5.175  17.726  0.00  0.00    +0.000 A 
ATOM     22  C   UNL     1       3.866   6.383  17.289  0.00  0.00    +0.000 A 
ATOM     23  C   UNL     1       3.510   7.554  17.893  0.00  0.00    +0.000 A 
ATOM     24  C   UNL     1       2.573   7.552  18.925  0.00  0.00    +0.000 A 
ATOM     25  C   UNL     1       2.098   6.367  19.471  0.00  0.00    +0.000 A 
ATOM     26  C   UNL     1       2.464   5.178  18.851  0.00  0.00    +0.000 A 
BRANCH  21  28
ATOM     27  C   UNL     1       4.943   3.863  16.252  0.00  0.00    +0.000 C 
ATOM     28  C   UNL     1       3.597   3.887  16.993  0.00  0.00    +0.000 C 
ATOM     29  C   UNL     1       3.491   2.684  17.925  0.00  0.00    +0.000 C 
ENDBRANCH  21  28
ENDBRANCH   1  24
BRANCH  11  30
ATOM     30  O   UNL     1      -1.037  17.628  22.794  0.00  0.00    +0.000 OA
ATOM     31  H   UNL     1      -1.495  18.518  22.732  0.00  0.00    +0.000 HD
ENDBRANCH  11  30
TORSDOF 3
ENDMDL
MODEL 8
REMARK VINA RESULT:      -7.4      2.421      3.718
REMARK  Name = 
REMARK  7 active torsions:
REMARK  status: ('A' for Active; 'I' for Inactive)
REMARK    1  A    between atoms: C_1  and  C_2
REMARK    2  A    between atoms: C_2  and  C_3
REMARK    3  A    between atoms: C_2  and  C_4
REMARK    4  A    between atoms: C_7  and  N_8
REMARK    5  A    between atoms: C_18  and  O_19
REMARK    6  A    between atoms: C_22  and  C_23
REMARK    7  A    between atoms: C_27  and  C_28
REMARK                            x       y       z     vdW  Elec       q    Type
REMARK                         _______ _______ _______ _____ _____    ______ ____
ROOT
ATOM      1  N   UNL     1      -0.003  10.848  19.522  0.00  0.00    +0.000 NA
ATOM      2  C   UNL     1       0.223  11.495  20.645  0.00  0.00    +0.000 C 
ATOM      3  C   UNL     1       1.479  12.286  20.842  0.00  0.00    +0.000 C 
ATOM      4  C   UNL     1       0.787  13.629  20.970  0.00  0.00    +0.000 C 
ATOM      5  C   UNL     1      -0.354  13.273  21.931  0.00  0.00    +0.000 C 
ATOM      6  C   UNL     1      -1.416  14.303  22.151  0.00  0.00    +0.000 C 
ATOM      7  C   UNL     1      -0.713  15.569  22.445  0.00  0.00    +0.000 C 
ATOM      8  C   UNL     1      -1.747  16.602  22.387  0.00  0.00    +0.000 C 
ATOM      9  C   UNL     1      -3.040  16.352  22.554  0.00  0.00    +0.000 C 
ATOM     10  C   UNL     1      -3.769  17.638  22.361  0.00  0.00    +0.000 C 
ATOM     11  C   UNL     1      -5.064  18.115  22.951  0.00  0.00    +0.000 C 
ATOM     12  C   UNL     1      -5.707  16.970  23.712  0.00  0.00    +0.000 C 
ATOM     13  C   UNL     1      -4.811  15.626  24.098  0.00  0.00    +0.000 C 
ATOM     14  C   UNL     1      -3.769  15.052  23.009  0.00  0.00    +0.000 C 
ATOM     15  C   UNL     1      -4.683  14.346  21.981  0.00  0.00    +0.000 C 
ATOM     16  C   UNL     1      -2.483  13.972  23.293  0.00  0.00    +0.000 C 
ATOM     17  C   UNL     1      -2.642  12.375  23.434  0.00  0.00    +0.000 C 
ATOM     18  C   UNL     1      -1.434  11.443  22.895  0.00  0.00    +0.000 C 
ATOM     19  C   UNL     1      -0.970  11.940  21.503  0.00  0.00    +0.000 C 
ATOM     20  C   UNL     1      -2.202  11.735  20.583  0.00  0.00    +0.000 C 
ENDROOT
BRANCH   1  24
ATOM     21  C   UNL     1       2.461   7.655  18.620  0.00  0.00    +0.000 A 
ATOM     22  C   UNL     1       2.224   8.689  17.715  0.00  0.00    +0.000 A 
ATOM     23  C   UNL     1       1.434   9.743  18.069  0.00  0.00    +0.000 A 
ATOM     24  C   UNL     1       0.828   9.775  19.324  0.00  0.00    +0.000 A 
ATOM     25  C   UNL     1       1.128   8.831  20.297  0.00  0.00    +0.000 A 
ATOM     26  C   UNL     1       1.932   7.758  19.930  0.00  0.00    +0.000 A 
BRANCH  21  28
ATOM     27  C   UNL     1       4.410   6.693  17.285  0.00  0.00    +0.000 C 
ATOM     28  C   UNL     1       3.216   6.417  18.212  0.00  0.00    +0.000 C 
ATOM     29  C   UNL     1       3.672   5.618  19.429  0.00  0.00    +0.000 C 
ENDBRANCH  21  28
ENDBRANCH   1  24
BRANCH  11  30
ATOM     30  O   UNL     1      -5.855  18.630  21.861  0.00  0.00    +0.000 OA
ATOM     31  H   UNL     1      -6.369  17.869  21.460  0.00  0.00    +0.000 HD
ENDBRANCH  11  30
TORSDOF 3
ENDMDL
MODEL 9
REMARK VINA RESULT:      -7.4      3.565      9.852
REMARK  Name = 
REMARK  7 active torsions:
REMARK  status: ('A' for Active; 'I' for Inactive)
REMARK    1  A    between atoms: C_1  and  C_2
REMARK    2  A    between atoms: C_2  and  C_3
REMARK    3  A    between atoms: C_2  and  C_4
REMARK    4  A    between atoms: C_7  and  N_8
REMARK    5  A    between atoms: C_18  and  O_19
REMARK    6  A    between atoms: C_22  and  C_23
REMARK    7  A    between atoms: C_27  and  C_28
REMARK                            x       y       z     vdW  Elec       q    Type
REMARK                         _______ _______ _______ _____ _____    ______ ____
ROOT
ATOM      1  N   UNL     1      -0.575  11.231  19.243  0.00  0.00    +0.000 NA
ATOM      2  C   UNL     1       0.525  10.691  19.721  0.00  0.00    +0.000 C 
ATOM      3  C   UNL     1       0.819  10.708  21.190  0.00  0.00    +0.000 C 
ATOM      4  C   UNL     1       0.783   9.202  21.362  0.00  0.00    +0.000 C 
ATOM      5  C   UNL     1       1.624   8.755  20.160  0.00  0.00    +0.000 C 
ATOM      6  C   UNL     1       1.654   7.293  19.847  0.00  0.00    +0.000 C 
ATOM      7  C   UNL     1       1.951   6.601  21.118  0.00  0.00    +0.000 C 
ATOM      8  C   UNL     1       1.708   5.184  20.847  0.00  0.00    +0.000 C 
ATOM      9  C   UNL     1       1.739   4.658  19.628  0.00  0.00    +0.000 C 
ATOM     10  C   UNL     1       1.383   3.215  19.760  0.00  0.00    +0.000 C 
ATOM     11  C   UNL     1       1.787   2.039  18.920  0.00  0.00    +0.000 C 
ATOM     12  C   UNL     1       2.536   2.542  17.700  0.00  0.00    +0.000 C 
ATOM     13  C   UNL     1       3.106   4.101  17.662  0.00  0.00    +0.000 C 
ATOM     14  C   UNL     1       2.183   5.276  18.269  0.00  0.00    +0.000 C 
ATOM     15  C   UNL     1       1.100   5.475  17.184  0.00  0.00    +0.000 C 
ATOM     16  C   UNL     1       2.682   6.845  18.708  0.00  0.00    +0.000 C 
ATOM     17  C   UNL     1       2.899   8.060  17.673  0.00  0.00    +0.000 C 
ATOM     18  C   UNL     1       2.564   9.558  18.182  0.00  0.00    +0.000 C 
ATOM     19  C   UNL     1       1.208   9.566  18.931  0.00  0.00    +0.000 C 
ATOM     20  C   UNL     1       0.165   9.163  17.857  0.00  0.00    +0.000 C 
ENDROOT
BRANCH   1  24
ATOM     21  C   UNL     1      -0.960  15.325  19.660  0.00  0.00    +0.000 A 
ATOM     22  C   UNL     1      -1.688  14.428  20.439  0.00  0.00    +0.000 A 
ATOM     23  C   UNL     1      -1.501  13.084  20.295  0.00  0.00    +0.000 A 
ATOM     24  C   UNL     1      -0.609  12.599  19.340  0.00  0.00    +0.000 A 
ATOM     25  C   UNL     1       0.222  13.452  18.626  0.00  0.00    +0.000 A 
ATOM     26  C   UNL     1       0.027  14.820  18.776  0.00  0.00    +0.000 A 
BRANCH  21  28
ATOM     27  C   UNL     1      -0.988  17.526  18.369  0.00  0.00    +0.000 C 
ATOM     28  C   UNL     1      -1.241  16.804  19.702  0.00  0.00    +0.000 C 
ATOM     29  C   UNL     1      -2.659  17.086  20.189  0.00  0.00    +0.000 C 
ENDBRANCH  21  28
ENDBRANCH   1  24
BRANCH  11  30
ATOM     30  O   UNL     1       0.583   1.304  18.625  0.00  0.00    +0.000 OA
ATOM     31  H   UNL     1       0.165   1.026  19.493  0.00  0.00    +0.000 HD
ENDBRANCH  11  30
TORSDOF 3
ENDMDL
