MODEL 1
REMARK VINA RESULT:      -7.3      0.000      0.000
REMARK  Name = 
REMARK  6 active torsions:
REMARK  status: ('A' for Active; 'I' for Inactive)
REMARK    1  A    between atoms: C_1  and  O_2
REMARK    2  A    between atoms: O_2  and  C_3
REMARK    3  A    between atoms: C_3  and  C_5
REMARK    4  A    between atoms: N_16  and  C_17
REMARK    5  A    between atoms: C_17  and  C_18
REMARK    6  A    between atoms: C_17  and  C_19
REMARK                            x       y       z     vdW  Elec       q    Type
REMARK                         _______ _______ _______ _____ _____    ______ ____
ROOT
ATOM      1  C   UNL     1       3.480   4.251  19.131  0.00  0.00    +0.000 A 
ATOM      2  C   UNL     1       2.695   3.804  18.063  0.00  0.00    +0.000 A 
ATOM      3  C   UNL     1       3.225   3.751  16.766  0.00  0.00    +0.000 A 
ATOM      4  C   UNL     1       4.545   4.134  16.504  0.00  0.00    +0.000 A 
ATOM      5  C   UNL     1       5.296   4.598  17.575  0.00  0.00    +0.000 A 
ATOM      6  C   UNL     1       4.794   4.659  18.883  0.00  0.00    +0.000 A 
ATOM      7  S   UNL     1       6.916   5.135  17.259  0.00  0.00    +0.000 S 
ATOM      8  O   UNL     1       6.916   6.582  17.239  0.00  0.00    +0.000 OA
ATOM      9  O   UNL     1       7.804   4.393  18.130  0.00  0.00    +0.000 OA
ATOM     10  N   UNL     1       7.227   4.591  15.726  0.00  0.00    +0.000 N 
ATOM     11  C   UNL     1       6.242   4.154  14.861  0.00  0.00    +0.000 C 
ATOM     12  N   UNL     1       6.751   3.911  13.629  0.00  0.00    +0.000 N 
ATOM     13  N   UNL     1       5.010   3.976  15.193  0.00  0.00    +0.000 NA
ATOM     14  H   UNL     1       8.129   4.132  15.663  0.00  0.00    +0.000 HD
ATOM     15  H   UNL     1       7.716   4.161  13.466  0.00  0.00    +0.000 HD
ENDROOT
BRANCH  12  16
ATOM     16  C   UNL     1       6.138   3.035  12.645  0.00  0.00    +0.000 C 
ATOM     17  C   UNL     1       4.919   3.728  12.041  0.00  0.00    +0.000 C 
ATOM     18  C   UNL     1       7.160   2.724  11.555  0.00  0.00    +0.000 C 
ENDBRANCH  12  16
BRANCH   1  19
ATOM     19  C   UNL     1       2.874   4.269  20.493  0.00  0.00    +0.000 C 
ATOM     20  O   UNL     1       2.406   5.272  21.007  0.00  0.00    +0.000 OA
BRANCH  19  22
ATOM     21  C   UNL     1       1.674   2.577  21.569  0.00  0.00    +0.000 C 
ATOM     22  O   UNL     1       2.926   3.036  21.052  0.00  0.00    +0.000 OA
ENDBRANCH  19  22
ENDBRANCH   1  19
TORSDOF 3
ENDMDL
MODEL 2
REMARK VINA RESULT:      -7.2      3.845      7.197
REMARK  Name = 
REMARK  6 active torsions:
REMARK  status: ('A' for Active; 'I' for Inactive)
REMARK    1  A    between atoms: C_1  and  O_2
REMARK    2  A    between atoms: O_2  and  C_3
REMARK    3  A    between atoms: C_3  and  C_5
REMARK    4  A    between atoms: N_16  and  C_17
REMARK    5  A    between atoms: C_17  and  C_18
REMARK    6  A    between atoms: C_17  and  C_19
REMARK                            x       y       z     vdW  Elec       q    Type
REMARK                         _______ _______ _______ _____ _____    ______ ____
ROOT
ATOM      1  C   UNL     1       5.504   4.978  16.809  0.00  0.00    +0.000 A 
ATOM      2  C   UNL     1       5.355   6.362  16.666  0.00  0.00    +0.000 A 
ATOM      3  C   UNL     1       4.384   7.051  17.406  0.00  0.00    +0.000 A 
ATOM      4  C   UNL     1       3.547   6.384  18.306  0.00  0.00    +0.000 A 
ATOM      5  C   UNL     1       3.696   5.009  18.413  0.00  0.00    +0.000 A 
ATOM      6  C   UNL     1       4.661   4.293  17.688  0.00  0.00    +0.000 A 
ATOM      7  S   UNL     1       2.626   4.155  19.480  0.00  0.00    +0.000 S 
ATOM      8  O   UNL     1       1.609   3.510  18.678  0.00  0.00    +0.000 OA
ATOM      9  O   UNL     1       3.440   3.403  20.413  0.00  0.00    +0.000 OA
ATOM     10  N   UNL     1       1.908   5.353  20.370  0.00  0.00    +0.000 N 
ATOM     11  C   UNL     1       1.945   6.688  20.016  0.00  0.00    +0.000 C 
ATOM     12  N   UNL     1       1.155   7.429  20.831  0.00  0.00    +0.000 N 
ATOM     13  N   UNL     1       2.659   7.166  19.055  0.00  0.00    +0.000 NA
ATOM     14  H   UNL     1       1.912   5.142  21.361  0.00  0.00    +0.000 HD
ATOM     15  H   UNL     1       0.582   6.933  21.500  0.00  0.00    +0.000 HD
ENDROOT
BRANCH  12  16
ATOM     16  C   UNL     1       1.306   8.857  21.045  0.00  0.00    +0.000 C 
ATOM     17  C   UNL     1       0.318   9.609  20.156  0.00  0.00    +0.000 C 
ATOM     18  C   UNL     1       1.033   9.168  22.514  0.00  0.00    +0.000 C 
ENDBRANCH  12  16
BRANCH   1  19
ATOM     19  C   UNL     1       6.566   4.296  16.014  0.00  0.00    +0.000 C 
ATOM     20  O   UNL     1       7.758   4.416  16.245  0.00  0.00    +0.000 OA
BRANCH  19  22
ATOM     21  C   UNL     1       6.360   3.979  13.709  0.00  0.00    +0.000 C 
ATOM     22  O   UNL     1       6.015   3.549  15.028  0.00  0.00    +0.000 OA
ENDBRANCH  19  22
ENDBRANCH   1  19
TORSDOF 3
ENDMDL
MODEL 3
REMARK VINA RESULT:      -7.2      2.728      3.471
REMARK  Name = 
REMARK  6 active torsions:
REMARK  status: ('A' for Active; 'I' for Inactive)
REMARK    1  A    between atoms: C_1  and  O_2
REMARK    2  A    between atoms: O_2  and  C_3
REMARK    3  A    between atoms: C_3  and  C_5
REMARK    4  A    between atoms: N_16  and  C_17
REMARK    5  A    between atoms: C_17  and  C_18
REMARK    6  A    between atoms: C_17  and  C_19
REMARK                            x       y       z     vdW  Elec       q    Type
REMARK                         _______ _______ _______ _____ _____    ______ ____
ROOT
ATOM      1  C   UNL     1       2.607   7.098  19.108  0.00  0.00    +0.000 A 
ATOM      2  C   UNL     1       3.068   7.866  18.032  0.00  0.00    +0.000 A 
ATOM      3  C   UNL     1       3.925   7.303  17.075  0.00  0.00    +0.000 A 
ATOM      4  C   UNL     1       4.336   5.969  17.163  0.00  0.00    +0.000 A 
ATOM      5  C   UNL     1       3.886   5.235  18.251  0.00  0.00    +0.000 A 
ATOM      6  C   UNL     1       3.025   5.770  19.222  0.00  0.00    +0.000 A 
ATOM      7  S   UNL     1       4.433   3.596  18.409  0.00  0.00    +0.000 S 
ATOM      8  O   UNL     1       5.474   3.562  19.413  0.00  0.00    +0.000 OA
ATOM      9  O   UNL     1       3.264   2.747  18.507  0.00  0.00    +0.000 OA
ATOM     10  N   UNL     1       5.116   3.258  16.938  0.00  0.00    +0.000 N 
ATOM     11  C   UNL     1       5.448   4.230  16.014  0.00  0.00    +0.000 C 
ATOM     12  N   UNL     1       6.125   3.695  14.969  0.00  0.00    +0.000 N 
ATOM     13  N   UNL     1       5.130   5.474  16.122  0.00  0.00    +0.000 NA
ATOM     14  H   UNL     1       4.804   2.366  16.572  0.00  0.00    +0.000 HD
ATOM     15  H   UNL     1       6.385   2.720  15.032  0.00  0.00    +0.000 HD
ENDROOT
BRANCH  12  16
ATOM     16  C   UNL     1       6.217   4.302  13.652  0.00  0.00    +0.000 C 
ATOM     17  C   UNL     1       7.582   4.969  13.497  0.00  0.00    +0.000 C 
ATOM     18  C   UNL     1       6.040   3.217  12.594  0.00  0.00    +0.000 C 
ENDBRANCH  12  16
BRANCH   1  19
ATOM     19  C   UNL     1       1.681   7.738  20.086  0.00  0.00    +0.000 C 
ATOM     20  O   UNL     1       1.287   7.184  21.099  0.00  0.00    +0.000 OA
BRANCH  19  22
ATOM     21  C   UNL     1       0.338   9.610  20.472  0.00  0.00    +0.000 C 
ATOM     22  O   UNL     1       1.357   8.991  19.684  0.00  0.00    +0.000 OA
ENDBRANCH  19  22
ENDBRANCH   1  19
TORSDOF 3
ENDMDL
MODEL 4
REMARK VINA RESULT:      -7.1      2.646      3.222
REMARK  Name = 
REMARK  6 active torsions:
REMARK  status: ('A' for Active; 'I' for Inactive)
REMARK    1  A    between atoms: C_1  and  O_2
REMARK    2  A    between atoms: O_2  and  C_3
REMARK    3  A    between atoms: C_3  and  C_5
REMARK    4  A    between atoms: N_16  and  C_17
REMARK    5  A    between atoms: C_17  and  C_18
REMARK    6  A    between atoms: C_17  and  C_19
REMARK                            x       y       z     vdW  Elec       q    Type
REMARK                         _______ _______ _______ _____ _____    ______ ____
ROOT
ATOM      1  C   UNL     1       2.708   7.074  19.259  0.00  0.00    +0.000 A 
ATOM      2  C   UNL     1       2.726   7.717  18.016  0.00  0.00    +0.000 A 
ATOM      3  C   UNL     1       3.662   7.347  17.040  0.00  0.00    +0.000 A 
ATOM      4  C   UNL     1       4.593   6.330  17.274  0.00  0.00    +0.000 A 
ATOM      5  C   UNL     1       4.572   5.723  18.521  0.00  0.00    +0.000 A 
ATOM      6  C   UNL     1       3.645   6.069  19.516  0.00  0.00    +0.000 A 
ATOM      7  S   UNL     1       5.758   4.500  18.852  0.00  0.00    +0.000 S 
ATOM      8  O   UNL     1       6.794   5.086  19.675  0.00  0.00    +0.000 OA
ATOM      9  O   UNL     1       5.055   3.303  19.264  0.00  0.00    +0.000 OA
ATOM     10  N   UNL     1       6.403   4.157  17.366  0.00  0.00    +0.000 N 
ATOM     11  C   UNL     1       6.233   4.965  16.258  0.00  0.00    +0.000 C 
ATOM     12  N   UNL     1       6.987   4.532  15.219  0.00  0.00    +0.000 N 
ATOM     13  N   UNL     1       5.438   5.979  16.214  0.00  0.00    +0.000 NA
ATOM     14  H   UNL     1       6.461   3.158  17.200  0.00  0.00    +0.000 HD
ATOM     15  H   UNL     1       7.630   3.772  15.396  0.00  0.00    +0.000 HD
ENDROOT
BRANCH  12  16
ATOM     16  C   UNL     1       6.719   4.837  13.825  0.00  0.00    +0.000 C 
ATOM     17  C   UNL     1       8.013   5.274  13.144  0.00  0.00    +0.000 C 
ATOM     18  C   UNL     1       6.162   3.589  13.144  0.00  0.00    +0.000 C 
ENDBRANCH  12  16
BRANCH   1  19
ATOM     19  C   UNL     1       1.679   7.490  20.254  0.00  0.00    +0.000 C 
ATOM     20  O   UNL     1       1.255   6.754  21.130  0.00  0.00    +0.000 OA
BRANCH  19  22
ATOM     21  C   UNL     1       0.584   9.361  21.126  0.00  0.00    +0.000 C 
ATOM     22  O   UNL     1       1.300   8.773  20.038  0.00  0.00    +0.000 OA
ENDBRANCH  19  22
ENDBRANCH   1  19
TORSDOF 3
ENDMDL
MODEL 5
REMARK VINA RESULT:      -7.1      3.580      6.997
REMARK  Name = 
REMARK  6 active torsions:
REMARK  status: ('A' for Active; 'I' for Inactive)
REMARK    1  A    between atoms: C_1  and  O_2
REMARK    2  A    between atoms: O_2  and  C_3
REMARK    3  A    between atoms: C_3  and  C_5
REMARK    4  A    between atoms: N_16  and  C_17
REMARK    5  A    between atoms: C_17  and  C_18
REMARK    6  A    between atoms: C_17  and  C_19
REMARK                            x       y       z     vdW  Elec       q    Type
REMARK                         _______ _______ _______ _____ _____    ______ ____
ROOT
ATOM      1  C   UNL     1       5.689   5.238  15.711  0.00  0.00    +0.000 A 
ATOM      2  C   UNL     1       5.216   6.550  15.594  0.00  0.00    +0.000 A 
ATOM      3  C   UNL     1       4.306   7.062  16.529  0.00  0.00    +0.000 A 
ATOM      4  C   UNL     1       3.851   6.287  17.601  0.00  0.00    +0.000 A 
ATOM      5  C   UNL     1       4.314   4.982  17.683  0.00  0.00    +0.000 A 
ATOM      6  C   UNL     1       5.227   4.443  16.764  0.00  0.00    +0.000 A 
ATOM      7  S   UNL     1       3.715   3.985  18.971  0.00  0.00    +0.000 S 
ATOM      8  O   UNL     1       2.711   3.098  18.426  0.00  0.00    +0.000 OA
ATOM      9  O   UNL     1       4.856   3.474  19.701  0.00  0.00    +0.000 OA
ATOM     10  N   UNL     1       2.968   5.055  19.991  0.00  0.00    +0.000 N 
ATOM     11  C   UNL     1       2.637   6.347  19.626  0.00  0.00    +0.000 C 
ATOM     12  N   UNL     1       1.904   6.951  20.593  0.00  0.00    +0.000 N 
ATOM     13  N   UNL     1       3.002   6.908  18.525  0.00  0.00    +0.000 NA
ATOM     14  H   UNL     1       3.235   4.906  20.957  0.00  0.00    +0.000 HD
ATOM     15  H   UNL     1       1.612   6.386  21.379  0.00  0.00    +0.000 HD
ENDROOT
BRANCH  12  16
ATOM     16  C   UNL     1       1.786   8.390  20.756  0.00  0.00    +0.000 C 
ATOM     17  C   UNL     1       1.119   8.986  19.519  0.00  0.00    +0.000 C 
ATOM     18  C   UNL     1       0.946   8.680  21.997  0.00  0.00    +0.000 C 
ENDBRANCH  12  16
BRANCH   1  19
ATOM     19  C   UNL     1       6.671   4.749  14.702  0.00  0.00    +0.000 C 
ATOM     20  O   UNL     1       7.763   5.264  14.524  0.00  0.00    +0.000 OA
BRANCH  19  22
ATOM     21  C   UNL     1       6.442   3.691  12.632  0.00  0.00    +0.000 C 
ATOM     22  O   UNL     1       6.176   3.678  14.036  0.00  0.00    +0.000 OA
ENDBRANCH  19  22
ENDBRANCH   1  19
TORSDOF 3
ENDMDL
MODEL 6
REMARK VINA RESULT:      -7.0      3.928      7.152
REMARK  Name = 
REMARK  6 active torsions:
REMARK  status: ('A' for Active; 'I' for Inactive)
REMARK    1  A    between atoms: C_1  and  O_2
REMARK    2  A    between atoms: O_2  and  C_3
REMARK    3  A    between atoms: C_3  and  C_5
REMARK    4  A    between atoms: N_16  and  C_17
REMARK    5  A    between atoms: C_17  and  C_18
REMARK    6  A    between atoms: C_17  and  C_19
REMARK                            x       y       z     vdW  Elec       q    Type
REMARK                         _______ _______ _______ _____ _____    ______ ____
ROOT
ATOM      1  C   UNL     1       5.247   5.061  16.592  0.00  0.00    +0.000 A 
ATOM      2  C   UNL     1       5.086   6.447  16.480  0.00  0.00    +0.000 A 
ATOM      3  C   UNL     1       4.171   7.123  17.299  0.00  0.00    +0.000 A 
ATOM      4  C   UNL     1       3.402   6.440  18.248  0.00  0.00    +0.000 A 
ATOM      5  C   UNL     1       3.561   5.064  18.324  0.00  0.00    +0.000 A 
ATOM      6  C   UNL     1       4.471   4.361  17.520  0.00  0.00    +0.000 A 
ATOM      7  S   UNL     1       2.572   4.192  19.453  0.00  0.00    +0.000 S 
ATOM      8  O   UNL     1       1.500   3.557  18.718  0.00  0.00    +0.000 OA
ATOM      9  O   UNL     1       3.453   3.429  20.313  0.00  0.00    +0.000 OA
ATOM     10  N   UNL     1       1.920   5.375  20.410  0.00  0.00    +0.000 N 
ATOM     11  C   UNL     1       1.929   6.716  20.074  0.00  0.00    +0.000 C 
ATOM     12  N   UNL     1       1.199   7.443  20.955  0.00  0.00    +0.000 N 
ATOM     13  N   UNL     1       2.571   7.209  19.071  0.00  0.00    +0.000 NA
ATOM     14  H   UNL     1       1.996   5.150  21.395  0.00  0.00    +0.000 HD
ATOM     15  H   UNL     1       0.677   6.936  21.656  0.00  0.00    +0.000 HD
ENDROOT
BRANCH  12  16
ATOM     16  C   UNL     1       1.363   8.868  21.179  0.00  0.00    +0.000 C 
ATOM     17  C   UNL     1       0.410   9.637  20.266  0.00  0.00    +0.000 C 
ATOM     18  C   UNL     1       1.055   9.178  22.641  0.00  0.00    +0.000 C 
ENDBRANCH  12  16
BRANCH   1  19
ATOM     19  C   UNL     1       6.249   4.393  15.712  0.00  0.00    +0.000 C 
ATOM     20  O   UNL     1       5.944   3.668  14.779  0.00  0.00    +0.000 OA
BRANCH  19  22
ATOM     21  C   UNL     1       7.760   4.488  17.490  0.00  0.00    +0.000 C 
ATOM     22  O   UNL     1       7.508   4.708  16.101  0.00  0.00    +0.000 OA
ENDBRANCH  19  22
ENDBRANCH   1  19
TORSDOF 3
ENDMDL
MODEL 7
REMARK VINA RESULT:      -7.0      0.596      1.060
REMARK  Name = 
REMARK  6 active torsions:
REMARK  status: ('A' for Active; 'I' for Inactive)
REMARK    1  A    between atoms: C_1  and  O_2
REMARK    2  A    between atoms: O_2  and  C_3
REMARK    3  A    between atoms: C_3  and  C_5
REMARK    4  A    between atoms: N_16  and  C_17
REMARK    5  A    between atoms: C_17  and  C_18
REMARK    6  A    between atoms: C_17  and  C_19
REMARK                            x       y       z     vdW  Elec       q    Type
REMARK                         _______ _______ _______ _____ _____    ______ ____
ROOT
ATOM      1  C   UNL     1       3.584   3.718  19.401  0.00  0.00    +0.000 A 
ATOM      2  C   UNL     1       2.825   3.251  18.322  0.00  0.00    +0.000 A 
ATOM      3  C   UNL     1       3.316   3.353  17.012  0.00  0.00    +0.000 A 
ATOM      4  C   UNL     1       4.570   3.913  16.748  0.00  0.00    +0.000 A 
ATOM      5  C   UNL     1       5.294   4.392  17.831  0.00  0.00    +0.000 A 
ATOM      6  C   UNL     1       4.830   4.301  19.152  0.00  0.00    +0.000 A 
ATOM      7  S   UNL     1       6.826   5.145  17.517  0.00  0.00    +0.000 S 
ATOM      8  O   UNL     1       6.650   6.578  17.601  0.00  0.00    +0.000 OA
ATOM      9  O   UNL     1       7.825   4.460  18.311  0.00  0.00    +0.000 OA
ATOM     10  N   UNL     1       7.151   4.749  15.942  0.00  0.00    +0.000 N 
ATOM     11  C   UNL     1       6.199   4.255  15.071  0.00  0.00    +0.000 C 
ATOM     12  N   UNL     1       6.694   4.161  13.813  0.00  0.00    +0.000 N 
ATOM     13  N   UNL     1       5.009   3.904  15.419  0.00  0.00    +0.000 NA
ATOM     14  H   UNL     1       8.099   4.411  15.825  0.00  0.00    +0.000 HD
ATOM     15  H   UNL     1       7.616   4.539  13.646  0.00  0.00    +0.000 HD
ENDROOT
BRANCH  12  16
ATOM     16  C   UNL     1       6.161   3.286  12.784  0.00  0.00    +0.000 C 
ATOM     17  C   UNL     1       4.879   3.892  12.218  0.00  0.00    +0.000 C 
ATOM     18  C   UNL     1       7.202   3.132  11.678  0.00  0.00    +0.000 C 
ENDBRANCH  12  16
BRANCH   1  19
ATOM     19  C   UNL     1       3.024   3.568  20.775  0.00  0.00    +0.000 C 
ATOM     20  O   UNL     1       2.948   2.497  21.354  0.00  0.00    +0.000 OA
BRANCH  19  22
ATOM     21  C   UNL     1       1.458   5.294  20.628  0.00  0.00    +0.000 C 
ATOM     22  O   UNL     1       2.626   4.768  21.260  0.00  0.00    +0.000 OA
ENDBRANCH  19  22
ENDBRANCH   1  19
TORSDOF 3
ENDMDL
MODEL 8
REMARK VINA RESULT:      -6.9      2.702      6.616
REMARK  Name = 
REMARK  6 active torsions:
REMARK  status: ('A' for Active; 'I' for Inactive)
REMARK    1  A    between atoms: C_1  and  O_2
REMARK    2  A    between atoms: O_2  and  C_3
REMARK    3  A    between atoms: C_3  and  C_5
REMARK    4  A    between atoms: N_16  and  C_17
REMARK    5  A    between atoms: C_17  and  C_18
REMARK    6  A    between atoms: C_17  and  C_19
REMARK                            x       y       z     vdW  Elec       q    Type
REMARK                         _______ _______ _______ _____ _____    ______ ____
ROOT
ATOM      1  C   UNL     1       6.546   4.692  14.381  0.00  0.00    +0.000 A 
ATOM      2  C   UNL     1       5.262   4.137  14.420  0.00  0.00    +0.000 A 
ATOM      3  C   UNL     1       4.569   4.036  15.635  0.00  0.00    +0.000 A 
ATOM      4  C   UNL     1       5.132   4.490  16.832  0.00  0.00    +0.000 A 
ATOM      5  C   UNL     1       6.416   5.014  16.773  0.00  0.00    +0.000 A 
ATOM      6  C   UNL     1       7.132   5.130  15.572  0.00  0.00    +0.000 A 
ATOM      7  S   UNL     1       7.155   5.526  18.257  0.00  0.00    +0.000 S 
ATOM      8  O   UNL     1       8.096   4.507  18.668  0.00  0.00    +0.000 OA
ATOM      9  O   UNL     1       7.562   6.906  18.094  0.00  0.00    +0.000 OA
ATOM     10  N   UNL     1       5.903   5.549  19.341  0.00  0.00    +0.000 N 
ATOM     11  C   UNL     1       4.687   4.935  19.109  0.00  0.00    +0.000 C 
ATOM     12  N   UNL     1       3.903   4.978  20.214  0.00  0.00    +0.000 N 
ATOM     13  N   UNL     1       4.337   4.417  17.982  0.00  0.00    +0.000 NA
ATOM     14  H   UNL     1       5.888   6.404  19.884  0.00  0.00    +0.000 HD
ATOM     15  H   UNL     1       4.314   5.341  21.063  0.00  0.00    +0.000 HD
ENDROOT
BRANCH  12  16
ATOM     16  C   UNL     1       2.455   4.859  20.199  0.00  0.00    +0.000 C 
ATOM     17  C   UNL     1       2.021   3.840  21.251  0.00  0.00    +0.000 C 
ATOM     18  C   UNL     1       1.843   6.223  20.506  0.00  0.00    +0.000 C 
ENDBRANCH  12  16
BRANCH   1  19
ATOM     19  C   UNL     1       7.231   4.794  13.060  0.00  0.00    +0.000 C 
ATOM     20  O   UNL     1       8.205   5.502  12.862  0.00  0.00    +0.000 OA
BRANCH  19  22
ATOM     21  C   UNL     1       7.431   2.929  11.669  0.00  0.00    +0.000 C 
ATOM     22  O   UNL     1       6.619   4.004  12.145  0.00  0.00    +0.000 OA
ENDBRANCH  19  22
ENDBRANCH   1  19
TORSDOF 3
ENDMDL
MODEL 9
REMARK VINA RESULT:      -6.8      2.169      2.570
REMARK  Name = 
REMARK  6 active torsions:
REMARK  status: ('A' for Active; 'I' for Inactive)
REMARK    1  A    between atoms: C_1  and  O_2
REMARK    2  A    between atoms: O_2  and  C_3
REMARK    3  A    between atoms: C_3  and  C_5
REMARK    4  A    between atoms: N_16  and  C_17
REMARK    5  A    between atoms: C_17  and  C_18
REMARK    6  A    between atoms: C_17  and  C_19
REMARK                            x       y       z     vdW  Elec       q    Type
REMARK                         _______ _______ _______ _____ _____    ______ ____
ROOT
ATOM      1  C   UNL     1       2.842   6.747  19.310  0.00  0.00    +0.000 A 
ATOM      2  C   UNL     1       2.740   7.385  18.068  0.00  0.00    +0.000 A 
ATOM      3  C   UNL     1       3.677   7.124  17.058  0.00  0.00    +0.000 A 
ATOM      4  C   UNL     1       4.727   6.222  17.256  0.00  0.00    +0.000 A 
ATOM      5  C   UNL     1       4.822   5.620  18.503  0.00  0.00    +0.000 A 
ATOM      6  C   UNL     1       3.898   5.859  19.531  0.00  0.00    +0.000 A 
ATOM      7  S   UNL     1       6.153   4.544  18.787  0.00  0.00    +0.000 S 
ATOM      8  O   UNL     1       7.143   5.248  19.573  0.00  0.00    +0.000 OA
ATOM      9  O   UNL     1       5.609   3.274  19.223  0.00  0.00    +0.000 OA
ATOM     10  N   UNL     1       6.779   4.274  17.278  0.00  0.00    +0.000 N 
ATOM     11  C   UNL     1       6.476   5.054  16.179  0.00  0.00    +0.000 C 
ATOM     12  N   UNL     1       7.237   4.708  15.112  0.00  0.00    +0.000 N 
ATOM     13  N   UNL     1       5.568   5.969  16.166  0.00  0.00    +0.000 NA
ATOM     14  H   UNL     1       6.946   3.288  17.108  0.00  0.00    +0.000 HD
ATOM     15  H   UNL     1       7.970   4.029  15.264  0.00  0.00    +0.000 HD
ENDROOT
BRANCH  12  16
ATOM     16  C   UNL     1       6.884   4.977  13.729  0.00  0.00    +0.000 C 
ATOM     17  C   UNL     1       8.138   5.379  12.956  0.00  0.00    +0.000 C 
ATOM     18  C   UNL     1       6.274   3.717  13.121  0.00  0.00    +0.000 C 
ENDBRANCH  12  16
BRANCH   1  19
ATOM     19  C   UNL     1       1.808   7.044  20.343  0.00  0.00    +0.000 C 
ATOM     20  O   UNL     1       1.276   8.135  20.465  0.00  0.00    +0.000 OA
BRANCH  19  22
ATOM     21  C   UNL     1       0.989   4.857  20.376  0.00  0.00    +0.000 C 
ATOM     22  O   UNL     1       1.564   5.948  21.099  0.00  0.00    +0.000 OA
ENDBRANCH  19  22
ENDBRANCH   1  19
TORSDOF 3
ENDMDL
