MODEL 1
REMARK VINA RESULT:      -8.1      0.000      0.000
REMARK  Name = 
REMARK  8 active torsions:
REMARK  status: ('A' for Active; 'I' for Inactive)
REMARK    1  A    between atoms: C_1  and  C_2
REMARK    2  A    between atoms: C_2  and  C_3
REMARK    3  A    between atoms: C_5  and  N_6
REMARK    4  A    between atoms: C_7  and  C_9
REMARK    5  A    between atoms: C_12  and  N_13
REMARK    6  A    between atoms: N_13  and  C_14
REMARK    7  A    between atoms: C_23  and  C_24
REMARK    8  A    between atoms: C_23  and  C_25
REMARK                            x       y       z     vdW  Elec       q    Type
REMARK                         _______ _______ _______ _____ _____    ______ ____
ROOT
ATOM      1  N   UNL     1       2.812   6.586  19.607  0.00  0.00    +0.000 N 
ATOM      2  C   UNL     1       2.300   7.647  18.885  0.00  0.00    +0.000 C 
ATOM      3  O   UNL     1       2.396   7.755  17.668  0.00  0.00    +0.000 OA
ATOM      4  H   UNL     1       2.470   6.442  20.548  0.00  0.00    +0.000 HD
ENDROOT
BRANCH   1   9
ATOM      5  C   UNL     1       4.449   1.963  20.289  0.00  0.00    +0.000 C 
ATOM      6  C   UNL     1       4.232   3.050  19.211  0.00  0.00    +0.000 C 
ATOM      7  C   UNL     1       3.380   2.402  18.105  0.00  0.00    +0.000 C 
ATOM      8  C   UNL     1       3.495   4.236  19.862  0.00  0.00    +0.000 C 
ATOM      9  C   UNL     1       3.487   5.469  18.958  0.00  0.00    +0.000 C 
ATOM     10  C   UNL     1       4.929   5.853  18.627  0.00  0.00    +0.000 C 
ATOM     11  C   UNL     1       5.707   4.697  17.970  0.00  0.00    +0.000 C 
ATOM     12  C   UNL     1       7.211   5.059  17.984  0.00  0.00    +0.000 C 
ATOM     13  C   UNL     1       5.313   4.533  16.491  0.00  0.00    +0.000 C 
ATOM     14  N   UNL     1       5.572   3.434  18.723  0.00  0.00    +0.000 NA
ATOM     15  H   UNL     1       6.206   3.467  19.523  0.00  0.00    +0.000 HD
ENDBRANCH   1   9
BRANCH   2  16
ATOM     16  C   UNL     1       1.566   8.667  19.679  0.00  0.00    +0.000 A 
ATOM     17  C   UNL     1       1.148   9.876  19.109  0.00  0.00    +0.000 A 
ATOM     18  C   UNL     1       0.515  10.841  19.899  0.00  0.00    +0.000 A 
ATOM     19  C   UNL     1       0.263  10.607  21.256  0.00  0.00    +0.000 A 
ATOM     20  C   UNL     1       0.653   9.378  21.806  0.00  0.00    +0.000 A 
ATOM     21  C   UNL     1       1.293   8.410  21.024  0.00  0.00    +0.000 A 
BRANCH  19  22
ATOM     22  N   UNL     1      -0.309  11.625  22.045  0.00  0.00    +0.000 N 
ATOM     23  H   UNL     1       0.299  12.428  22.170  0.00  0.00    +0.000 HD
BRANCH  22  24
ATOM     24  C   UNL     1      -1.662  12.023  22.104  0.00  0.00    +0.000 A 
ATOM     25  C   UNL     1      -2.310  12.023  23.345  0.00  0.00    +0.000 A 
ATOM     26  C   UNL     1      -3.637  12.443  23.458  0.00  0.00    +0.000 A 
ATOM     27  C   UNL     1      -4.323  12.891  22.331  0.00  0.00    +0.000 A 
ATOM     28  C   UNL     1      -3.684  12.918  21.094  0.00  0.00    +0.000 A 
ATOM     29  C   UNL     1      -2.359  12.487  20.982  0.00  0.00    +0.000 A 
ENDBRANCH  22  24
ENDBRANCH  19  22
ENDBRANCH   2  16
TORSDOF 4
ENDMDL
MODEL 2
REMARK VINA RESULT:      -8.1      2.754     10.212
REMARK  Name = 
REMARK  8 active torsions:
REMARK  status: ('A' for Active; 'I' for Inactive)
REMARK    1  A    between atoms: C_1  and  C_2
REMARK    2  A    between atoms: C_2  and  C_3
REMARK    3  A    between atoms: C_5  and  N_6
REMARK    4  A    between atoms: C_7  and  C_9
REMARK    5  A    between atoms: C_12  and  N_13
REMARK    6  A    between atoms: N_13  and  C_14
REMARK    7  A    between atoms: C_23  and  C_24
REMARK    8  A    between atoms: C_23  and  C_25
REMARK                            x       y       z     vdW  Elec       q    Type
REMARK                         _______ _______ _______ _____ _____    ______ ____
ROOT
ATOM      1  N   UNL     1       2.285   8.770  17.937  0.00  0.00    +0.000 N 
ATOM      2  C   UNL     1       2.586   7.613  18.629  0.00  0.00    +0.000 C 
ATOM      3  O   UNL     1       2.177   7.366  19.758  0.00  0.00    +0.000 OA
ATOM      4  H   UNL     1       2.441   8.779  16.937  0.00  0.00    +0.000 HD
ENDROOT
BRANCH   1   9
ATOM      5  C   UNL     1      -2.103  10.995  17.383  0.00  0.00    +0.000 C 
ATOM      6  C   UNL     1      -0.888  10.879  18.332  0.00  0.00    +0.000 C 
ATOM      7  C   UNL     1      -1.451  10.494  19.713  0.00  0.00    +0.000 C 
ATOM      8  C   UNL     1       0.050   9.785  17.786  0.00  0.00    +0.000 C 
ATOM      9  C   UNL     1       1.406   9.791  18.491  0.00  0.00    +0.000 C 
ATOM     10  C   UNL     1       2.043  11.171  18.330  0.00  0.00    +0.000 C 
ATOM     11  C   UNL     1       1.142  12.299  18.866  0.00  0.00    +0.000 C 
ATOM     12  C   UNL     1       1.708  13.648  18.364  0.00  0.00    +0.000 C 
ATOM     13  C   UNL     1       1.182  12.358  20.404  0.00  0.00    +0.000 C 
ATOM     14  N   UNL     1      -0.238  12.205  18.351  0.00  0.00    +0.000 NA
ATOM     15  H   UNL     1      -0.254  12.581  17.401  0.00  0.00    +0.000 HD
ENDBRANCH   1   9
BRANCH   2  16
ATOM     16  C   UNL     1       3.428   6.629  17.898  0.00  0.00    +0.000 A 
ATOM     17  C   UNL     1       4.531   7.034  17.136  0.00  0.00    +0.000 A 
ATOM     18  C   UNL     1       5.265   6.091  16.410  0.00  0.00    +0.000 A 
ATOM     19  C   UNL     1       4.932   4.732  16.455  0.00  0.00    +0.000 A 
ATOM     20  C   UNL     1       3.848   4.335  17.251  0.00  0.00    +0.000 A 
ATOM     21  C   UNL     1       3.104   5.273  17.974  0.00  0.00    +0.000 A 
BRANCH  19  22
ATOM     22  N   UNL     1       5.642   3.813  15.657  0.00  0.00    +0.000 N 
ATOM     23  H   UNL     1       5.281   2.865  15.714  0.00  0.00    +0.000 HD
BRANCH  22  24
ATOM     24  C   UNL     1       6.237   4.032  14.396  0.00  0.00    +0.000 A 
ATOM     25  C   UNL     1       5.704   3.380  13.278  0.00  0.00    +0.000 A 
ATOM     26  C   UNL     1       6.237   3.593  12.005  0.00  0.00    +0.000 A 
ATOM     27  C   UNL     1       7.297   4.481  11.835  0.00  0.00    +0.000 A 
ATOM     28  C   UNL     1       7.824   5.153  12.936  0.00  0.00    +0.000 A 
ATOM     29  C   UNL     1       7.295   4.930  14.210  0.00  0.00    +0.000 A 
ENDBRANCH  22  24
ENDBRANCH  19  22
ENDBRANCH   2  16
TORSDOF 4
ENDMDL
MODEL 3
REMARK VINA RESULT:      -8.0      1.902      3.352
REMARK  Name = 
REMARK  8 active torsions:
REMARK  status: ('A' for Active; 'I' for Inactive)
REMARK    1  A    between atoms: C_1  and  C_2
REMARK    2  A    between atoms: C_2  and  C_3
REMARK    3  A    between atoms: C_5  and  N_6
REMARK    4  A    between atoms: C_7  and  C_9
REMARK    5  A    between atoms: C_12  and  N_13
REMARK    6  A    between atoms: N_13  and  C_14
REMARK    7  A    between atoms: C_23  and  C_24
REMARK    8  A    between atoms: C_23  and  C_25
REMARK                            x       y       z     vdW  Elec       q    Type
REMARK                         _______ _______ _______ _____ _____    ______ ____
ROOT
ATOM      1  N   UNL     1       2.874   6.932  18.375  0.00  0.00    +0.000 N 
ATOM      2  C   UNL     1       2.208   7.261  19.540  0.00  0.00    +0.000 C 
ATOM      3  O   UNL     1       2.287   6.615  20.579  0.00  0.00    +0.000 OA
ATOM      4  H   UNL     1       2.963   7.644  17.662  0.00  0.00    +0.000 HD
ENDROOT
BRANCH   1   9
ATOM      5  C   UNL     1       6.187   4.633  15.503  0.00  0.00    +0.000 C 
ATOM      6  C   UNL     1       5.577   4.638  16.924  0.00  0.00    +0.000 C 
ATOM      7  C   UNL     1       6.759   4.746  17.904  0.00  0.00    +0.000 C 
ATOM      8  C   UNL     1       4.638   5.855  17.042  0.00  0.00    +0.000 C 
ATOM      9  C   UNL     1       3.774   5.789  18.301  0.00  0.00    +0.000 C 
ATOM     10  C   UNL     1       2.968   4.491  18.284  0.00  0.00    +0.000 C 
ATOM     11  C   UNL     1       3.865   3.244  18.169  0.00  0.00    +0.000 C 
ATOM     12  C   UNL     1       2.966   2.033  17.825  0.00  0.00    +0.000 C 
ATOM     13  C   UNL     1       4.535   2.918  19.516  0.00  0.00    +0.000 C 
ATOM     14  N   UNL     1       4.848   3.362  17.075  0.00  0.00    +0.000 NA
ATOM     15  H   UNL     1       4.375   3.159  16.193  0.00  0.00    +0.000 HD
ENDBRANCH   1   9
BRANCH   2  16
ATOM     16  C   UNL     1       1.392   8.503  19.483  0.00  0.00    +0.000 A 
ATOM     17  C   UNL     1       0.658   8.948  20.590  0.00  0.00    +0.000 A 
ATOM     18  C   UNL     1      -0.148  10.085  20.484  0.00  0.00    +0.000 A 
ATOM     19  C   UNL     1      -0.215  10.811  19.289  0.00  0.00    +0.000 A 
ATOM     20  C   UNL     1       0.554  10.376  18.200  0.00  0.00    +0.000 A 
ATOM     21  C   UNL     1       1.357   9.235  18.295  0.00  0.00    +0.000 A 
BRANCH  19  22
ATOM     22  N   UNL     1      -1.091  11.909  19.188  0.00  0.00    +0.000 N 
ATOM     23  H   UNL     1      -0.642  12.754  18.846  0.00  0.00    +0.000 HD
BRANCH  22  24
ATOM     24  C   UNL     1      -2.456  11.905  18.828  0.00  0.00    +0.000 A 
ATOM     25  C   UNL     1      -2.820  11.397  17.575  0.00  0.00    +0.000 A 
ATOM     26  C   UNL     1      -4.161  11.340  17.190  0.00  0.00    +0.000 A 
ATOM     27  C   UNL     1      -5.155  11.769  18.066  0.00  0.00    +0.000 A 
ATOM     28  C   UNL     1      -4.809  12.256  19.325  0.00  0.00    +0.000 A 
ATOM     29  C   UNL     1      -3.466  12.322  19.704  0.00  0.00    +0.000 A 
ENDBRANCH  22  24
ENDBRANCH  19  22
ENDBRANCH   2  16
TORSDOF 4
ENDMDL
MODEL 4
REMARK VINA RESULT:      -8.0      1.667      3.049
REMARK  Name = 
REMARK  8 active torsions:
REMARK  status: ('A' for Active; 'I' for Inactive)
REMARK    1  A    between atoms: C_1  and  C_2
REMARK    2  A    between atoms: C_2  and  C_3
REMARK    3  A    between atoms: C_5  and  N_6
REMARK    4  A    between atoms: C_7  and  C_9
REMARK    5  A    between atoms: C_12  and  N_13
REMARK    6  A    between atoms: N_13  and  C_14
REMARK    7  A    between atoms: C_23  and  C_24
REMARK    8  A    between atoms: C_23  and  C_25
REMARK                            x       y       z     vdW  Elec       q    Type
REMARK                         _______ _______ _______ _____ _____    ______ ____
ROOT
ATOM      1  N   UNL     1       2.974   6.958  18.388  0.00  0.00    +0.000 N 
ATOM      2  C   UNL     1       2.252   7.240  19.532  0.00  0.00    +0.000 C 
ATOM      3  O   UNL     1       2.251   6.532  20.533  0.00  0.00    +0.000 OA
ATOM      4  H   UNL     1       3.125   7.707  17.725  0.00  0.00    +0.000 HD
ENDROOT
BRANCH   1   9
ATOM      5  C   UNL     1       6.247   4.631  15.493  0.00  0.00    +0.000 C 
ATOM      6  C   UNL     1       5.623   4.621  16.908  0.00  0.00    +0.000 C 
ATOM      7  C   UNL     1       6.798   4.672  17.901  0.00  0.00    +0.000 C 
ATOM      8  C   UNL     1       4.719   5.861  17.046  0.00  0.00    +0.000 C 
ATOM      9  C   UNL     1       3.841   5.791  18.296  0.00  0.00    +0.000 C 
ATOM     10  C   UNL     1       2.998   4.518  18.240  0.00  0.00    +0.000 C 
ATOM     11  C   UNL     1       3.860   3.249  18.105  0.00  0.00    +0.000 C 
ATOM     12  C   UNL     1       2.930   2.072  17.724  0.00  0.00    +0.000 C 
ATOM     13  C   UNL     1       4.508   2.872  19.449  0.00  0.00    +0.000 C 
ATOM     14  N   UNL     1       4.857   3.364  17.022  0.00  0.00    +0.000 NA
ATOM     15  H   UNL     1       4.387   3.194  16.132  0.00  0.00    +0.000 HD
ENDBRANCH   1   9
BRANCH   2  16
ATOM     16  C   UNL     1       1.478   8.510  19.505  0.00  0.00    +0.000 A 
ATOM     17  C   UNL     1       0.872   9.022  20.658  0.00  0.00    +0.000 A 
ATOM     18  C   UNL     1       0.099  10.185  20.586  0.00  0.00    +0.000 A 
ATOM     19  C   UNL     1      -0.057  10.870  19.375  0.00  0.00    +0.000 A 
ATOM     20  C   UNL     1       0.586  10.368  18.235  0.00  0.00    +0.000 A 
ATOM     21  C   UNL     1       1.354   9.201  18.297  0.00  0.00    +0.000 A 
BRANCH  19  22
ATOM     22  N   UNL     1      -0.900  11.998  19.315  0.00  0.00    +0.000 N 
ATOM     23  H   UNL     1      -0.492  12.781  18.812  0.00  0.00    +0.000 HD
BRANCH  22  24
ATOM     24  C   UNL     1      -2.307  12.029  19.204  0.00  0.00    +0.000 A 
ATOM     25  C   UNL     1      -3.045  12.694  20.189  0.00  0.00    +0.000 A 
ATOM     26  C   UNL     1      -4.437  12.781  20.103  0.00  0.00    +0.000 A 
ATOM     27  C   UNL     1      -5.101  12.222  19.014  0.00  0.00    +0.000 A 
ATOM     28  C   UNL     1      -4.377  11.577  18.014  0.00  0.00    +0.000 A 
ATOM     29  C   UNL     1      -2.986  11.482  18.108  0.00  0.00    +0.000 A 
ENDBRANCH  22  24
ENDBRANCH  19  22
ENDBRANCH   2  16
TORSDOF 4
ENDMDL
MODEL 5
REMARK VINA RESULT:      -8.0      1.101      1.531
REMARK  Name = 
REMARK  8 active torsions:
REMARK  status: ('A' for Active; 'I' for Inactive)
REMARK    1  A    between atoms: C_1  and  C_2
REMARK    2  A    between atoms: C_2  and  C_3
REMARK    3  A    between atoms: C_5  and  N_6
REMARK    4  A    between atoms: C_7  and  C_9
REMARK    5  A    between atoms: C_12  and  N_13
REMARK    6  A    between atoms: N_13  and  C_14
REMARK    7  A    between atoms: C_23  and  C_24
REMARK    8  A    between atoms: C_23  and  C_25
REMARK                            x       y       z     vdW  Elec       q    Type
REMARK                         _______ _______ _______ _____ _____    ______ ____
ROOT
ATOM      1  N   UNL     1       2.489   6.658  19.763  0.00  0.00    +0.000 N 
ATOM      2  C   UNL     1       2.008   7.868  19.300  0.00  0.00    +0.000 C 
ATOM      3  O   UNL     1       2.141   8.260  18.146  0.00  0.00    +0.000 OA
ATOM      4  H   UNL     1       2.119   6.301  20.634  0.00  0.00    +0.000 HD
ENDROOT
BRANCH   1   9
ATOM      5  C   UNL     1       3.704   1.893  19.186  0.00  0.00    +0.000 C 
ATOM      6  C   UNL     1       3.712   3.265  18.472  0.00  0.00    +0.000 C 
ATOM      7  C   UNL     1       2.979   3.061  17.134  0.00  0.00    +0.000 C 
ATOM      8  C   UNL     1       2.972   4.279  19.366  0.00  0.00    +0.000 C 
ATOM      9  C   UNL     1       3.171   5.716  18.885  0.00  0.00    +0.000 C 
ATOM     10  C   UNL     1       4.667   6.026  18.849  0.00  0.00    +0.000 C 
ATOM     11  C   UNL     1       5.450   5.038  17.964  0.00  0.00    +0.000 C 
ATOM     12  C   UNL     1       6.958   5.220  18.255  0.00  0.00    +0.000 C 
ATOM     13  C   UNL     1       5.255   5.357  16.471  0.00  0.00    +0.000 C 
ATOM     14  N   UNL     1       5.129   3.632  18.277  0.00  0.00    +0.000 NA
ATOM     15  H   UNL     1       5.646   3.362  19.115  0.00  0.00    +0.000 HD
ENDBRANCH   1   9
BRANCH   2  16
ATOM     16  C   UNL     1       1.262   8.683  20.295  0.00  0.00    +0.000 A 
ATOM     17  C   UNL     1       1.458   8.517  21.671  0.00  0.00    +0.000 A 
ATOM     18  C   UNL     1       0.695   9.255  22.582  0.00  0.00    +0.000 A 
ATOM     19  C   UNL     1      -0.250  10.187  22.138  0.00  0.00    +0.000 A 
ATOM     20  C   UNL     1      -0.410  10.371  20.757  0.00  0.00    +0.000 A 
ATOM     21  C   UNL     1       0.343   9.631  19.840  0.00  0.00    +0.000 A 
BRANCH  19  22
ATOM     22  N   UNL     1      -1.056  10.864  23.074  0.00  0.00    +0.000 N 
ATOM     23  H   UNL     1      -0.786  10.692  24.038  0.00  0.00    +0.000 HD
BRANCH  22  24
ATOM     24  C   UNL     1      -1.645  12.142  22.955  0.00  0.00    +0.000 A 
ATOM     25  C   UNL     1      -3.034  12.256  23.078  0.00  0.00    +0.000 A 
ATOM     26  C   UNL     1      -3.658  13.504  23.001  0.00  0.00    +0.000 A 
ATOM     27  C   UNL     1      -2.893  14.653  22.825  0.00  0.00    +0.000 A 
ATOM     28  C   UNL     1      -1.506  14.557  22.723  0.00  0.00    +0.000 A 
ATOM     29  C   UNL     1      -0.886  13.306  22.790  0.00  0.00    +0.000 A 
ENDBRANCH  22  24
ENDBRANCH  19  22
ENDBRANCH   2  16
TORSDOF 4
ENDMDL
MODEL 6
REMARK VINA RESULT:      -7.9      2.336     10.074
REMARK  Name = 
REMARK  8 active torsions:
REMARK  status: ('A' for Active; 'I' for Inactive)
REMARK    1  A    between atoms: C_1  and  C_2
REMARK    2  A    between atoms: C_2  and  C_3
REMARK    3  A    between atoms: C_5  and  N_6
REMARK    4  A    between atoms: C_7  and  C_9
REMARK    5  A    between atoms: C_12  and  N_13
REMARK    6  A    between atoms: N_13  and  C_14
REMARK    7  A    between atoms: C_23  and  C_24
REMARK    8  A    between atoms: C_23  and  C_25
REMARK                            x       y       z     vdW  Elec       q    Type
REMARK                         _______ _______ _______ _____ _____    ______ ____
ROOT
ATOM      1  N   UNL     1      -0.950  11.265  21.785  0.00  0.00    +0.000 N 
ATOM      2  C   UNL     1      -0.575  11.089  20.467  0.00  0.00    +0.000 C 
ATOM      3  O   UNL     1      -0.929  11.823  19.551  0.00  0.00    +0.000 OA
ATOM      4  H   UNL     1      -0.417  10.786  22.499  0.00  0.00    +0.000 HD
ENDROOT
BRANCH   1   9
ATOM      5  C   UNL     1      -0.913  15.571  24.230  0.00  0.00    +0.000 C 
ATOM      6  C   UNL     1      -1.792  14.665  23.336  0.00  0.00    +0.000 C 
ATOM      7  C   UNL     1      -2.254  15.537  22.155  0.00  0.00    +0.000 C 
ATOM      8  C   UNL     1      -0.933  13.481  22.854  0.00  0.00    +0.000 C 
ATOM      9  C   UNL     1      -1.780  12.387  22.204  0.00  0.00    +0.000 C 
ATOM     10  C   UNL     1      -2.832  11.912  23.205  0.00  0.00    +0.000 C 
ATOM     11  C   UNL     1      -3.720  13.064  23.714  0.00  0.00    +0.000 C 
ATOM     12  C   UNL     1      -4.508  12.557  24.945  0.00  0.00    +0.000 C 
ATOM     13  C   UNL     1      -4.769  13.463  22.661  0.00  0.00    +0.000 C 
ATOM     14  N   UNL     1      -2.926  14.220  24.172  0.00  0.00    +0.000 NA
ATOM     15  H   UNL     1      -2.572  14.019  25.108  0.00  0.00    +0.000 HD
ENDBRANCH   1   9
BRANCH   2  16
ATOM     16  C   UNL     1       0.342   9.946  20.210  0.00  0.00    +0.000 A 
ATOM     17  C   UNL     1       0.938   9.755  18.957  0.00  0.00    +0.000 A 
ATOM     18  C   UNL     1       1.745   8.636  18.729  0.00  0.00    +0.000 A 
ATOM     19  C   UNL     1       1.994   7.710  19.748  0.00  0.00    +0.000 A 
ATOM     20  C   UNL     1       1.422   7.933  21.009  0.00  0.00    +0.000 A 
ATOM     21  C   UNL     1       0.607   9.045  21.243  0.00  0.00    +0.000 A 
BRANCH  19  22
ATOM     22  N   UNL     1       2.751   6.554  19.472  0.00  0.00    +0.000 N 
ATOM     23  H   UNL     1       3.612   6.497  20.008  0.00  0.00    +0.000 HD
BRANCH  22  24
ATOM     24  C   UNL     1       2.282   5.258  19.165  0.00  0.00    +0.000 A 
ATOM     25  C   UNL     1       1.530   4.571  20.124  0.00  0.00    +0.000 A 
ATOM     26  C   UNL     1       1.016   3.301  19.853  0.00  0.00    +0.000 A 
ATOM     27  C   UNL     1       1.230   2.716  18.607  0.00  0.00    +0.000 A 
ATOM     28  C   UNL     1       1.958   3.398  17.635  0.00  0.00    +0.000 A 
ATOM     29  C   UNL     1       2.480   4.664  17.913  0.00  0.00    +0.000 A 
ENDBRANCH  22  24
ENDBRANCH  19  22
ENDBRANCH   2  16
TORSDOF 4
ENDMDL
MODEL 7
REMARK VINA RESULT:      -7.9      1.072      1.576
REMARK  Name = 
REMARK  8 active torsions:
REMARK  status: ('A' for Active; 'I' for Inactive)
REMARK    1  A    between atoms: C_1  and  C_2
REMARK    2  A    between atoms: C_2  and  C_3
REMARK    3  A    between atoms: C_5  and  N_6
REMARK    4  A    between atoms: C_7  and  C_9
REMARK    5  A    between atoms: C_12  and  N_13
REMARK    6  A    between atoms: N_13  and  C_14
REMARK    7  A    between atoms: C_23  and  C_24
REMARK    8  A    between atoms: C_23  and  C_25
REMARK                            x       y       z     vdW  Elec       q    Type
REMARK                         _______ _______ _______ _____ _____    ______ ____
ROOT
ATOM      1  N   UNL     1       2.566   6.583  20.070  0.00  0.00    +0.000 N 
ATOM      2  C   UNL     1       2.075   7.761  19.540  0.00  0.00    +0.000 C 
ATOM      3  O   UNL     1       2.239   8.108  18.376  0.00  0.00    +0.000 OA
ATOM      4  H   UNL     1       2.173   6.255  20.942  0.00  0.00    +0.000 HD
ENDROOT
BRANCH   1   9
ATOM      5  C   UNL     1       4.338   1.961  19.972  0.00  0.00    +0.000 C 
ATOM      6  C   UNL     1       4.117   3.218  19.099  0.00  0.00    +0.000 C 
ATOM      7  C   UNL     1       3.322   2.755  17.864  0.00  0.00    +0.000 C 
ATOM      8  C   UNL     1       3.320   4.246  19.924  0.00  0.00    +0.000 C 
ATOM      9  C   UNL     1       3.297   5.621  19.256  0.00  0.00    +0.000 C 
ATOM     10  C   UNL     1       4.735   6.098  19.052  0.00  0.00    +0.000 C 
ATOM     11  C   UNL     1       5.572   5.102  18.227  0.00  0.00    +0.000 C 
ATOM     12  C   UNL     1       7.061   5.498  18.360  0.00  0.00    +0.000 C 
ATOM     13  C   UNL     1       5.230   5.196  16.729  0.00  0.00    +0.000 C 
ATOM     14  N   UNL     1       5.458   3.721  18.736  0.00  0.00    +0.000 NA
ATOM     15  H   UNL     1       6.065   3.627  19.552  0.00  0.00    +0.000 HD
ENDBRANCH   1   9
BRANCH   2  16
ATOM     16  C   UNL     1       1.277   8.600  20.473  0.00  0.00    +0.000 A 
ATOM     17  C   UNL     1       1.433   8.500  21.862  0.00  0.00    +0.000 A 
ATOM     18  C   UNL     1       0.623   9.257  22.714  0.00  0.00    +0.000 A 
ATOM     19  C   UNL     1      -0.330  10.144  22.199  0.00  0.00    +0.000 A 
ATOM     20  C   UNL     1      -0.450  10.262  20.807  0.00  0.00    +0.000 A 
ATOM     21  C   UNL     1       0.350   9.503  19.948  0.00  0.00    +0.000 A 
BRANCH  19  22
ATOM     22  N   UNL     1      -1.182  10.841  23.079  0.00  0.00    +0.000 N 
ATOM     23  H   UNL     1      -1.013  10.627  24.058  0.00  0.00    +0.000 HD
BRANCH  22  24
ATOM     24  C   UNL     1      -1.687  12.152  22.947  0.00  0.00    +0.000 A 
ATOM     25  C   UNL     1      -0.789  13.198  22.706  0.00  0.00    +0.000 A 
ATOM     26  C   UNL     1      -1.246  14.507  22.534  0.00  0.00    +0.000 A 
ATOM     27  C   UNL     1      -2.611  14.777  22.577  0.00  0.00    +0.000 A 
ATOM     28  C   UNL     1      -3.518  13.743  22.794  0.00  0.00    +0.000 A 
ATOM     29  C   UNL     1      -3.058  12.436  22.976  0.00  0.00    +0.000 A 
ENDBRANCH  22  24
ENDBRANCH  19  22
ENDBRANCH   2  16
TORSDOF 4
ENDMDL
MODEL 8
REMARK VINA RESULT:      -7.9      6.477      9.428
REMARK  Name = 
REMARK  8 active torsions:
REMARK  status: ('A' for Active; 'I' for Inactive)
REMARK    1  A    between atoms: C_1  and  C_2
REMARK    2  A    between atoms: C_2  and  C_3
REMARK    3  A    between atoms: C_5  and  N_6
REMARK    4  A    between atoms: C_7  and  C_9
REMARK    5  A    between atoms: C_12  and  N_13
REMARK    6  A    between atoms: N_13  and  C_14
REMARK    7  A    between atoms: C_23  and  C_24
REMARK    8  A    between atoms: C_23  and  C_25
REMARK                            x       y       z     vdW  Elec       q    Type
REMARK                         _______ _______ _______ _____ _____    ______ ____
ROOT
ATOM      1  N   UNL     1       8.073   9.356  17.668  0.00  0.00    +0.000 N 
ATOM      2  C   UNL     1       8.192   8.115  18.263  0.00  0.00    +0.000 C 
ATOM      3  O   UNL     1       8.978   7.863  19.169  0.00  0.00    +0.000 OA
ATOM      4  H   UNL     1       7.241   9.545  17.125  0.00  0.00    +0.000 HD
ENDROOT
BRANCH   1   9
ATOM      5  C   UNL     1       9.585  11.867  21.658  0.00  0.00    +0.000 C 
ATOM      6  C   UNL     1       9.774  11.749  20.128  0.00  0.00    +0.000 C 
ATOM      7  C   UNL     1      11.283  11.557  19.890  0.00  0.00    +0.000 C 
ATOM      8  C   UNL     1       8.971  10.531  19.634  0.00  0.00    +0.000 C 
ATOM      9  C   UNL     1       8.863  10.498  18.109  0.00  0.00    +0.000 C 
ATOM     10  C   UNL     1       8.216  11.797  17.628  0.00  0.00    +0.000 C 
ATOM     11  C   UNL     1       8.988  13.045  18.097  0.00  0.00    +0.000 C 
ATOM     12  C   UNL     1       8.092  14.283  17.856  0.00  0.00    +0.000 C 
ATOM     13  C   UNL     1      10.259  13.259  17.256  0.00  0.00    +0.000 C 
ATOM     14  N   UNL     1       9.279  13.012  19.543  0.00  0.00    +0.000 NA
ATOM     15  H   UNL     1       8.435  13.288  20.048  0.00  0.00    +0.000 HD
ENDBRANCH   1   9
BRANCH   2  16
ATOM     16  C   UNL     1       7.260   7.071  17.759  0.00  0.00    +0.000 A 
ATOM     17  C   UNL     1       6.138   7.403  16.989  0.00  0.00    +0.000 A 
ATOM     18  C   UNL     1       5.247   6.405  16.584  0.00  0.00    +0.000 A 
ATOM     19  C   UNL     1       5.473   5.063  16.912  0.00  0.00    +0.000 A 
ATOM     20  C   UNL     1       6.619   4.740  17.652  0.00  0.00    +0.000 A 
ATOM     21  C   UNL     1       7.512   5.733  18.068  0.00  0.00    +0.000 A 
BRANCH  19  22
ATOM     22  N   UNL     1       4.521   4.087  16.554  0.00  0.00    +0.000 N 
ATOM     23  H   UNL     1       4.899   3.353  15.962  0.00  0.00    +0.000 HD
BRANCH  22  24
ATOM     24  C   UNL     1       3.454   3.585  17.330  0.00  0.00    +0.000 A 
ATOM     25  C   UNL     1       3.561   2.298  17.868  0.00  0.00    +0.000 A 
ATOM     26  C   UNL     1       2.545   1.773  18.671  0.00  0.00    +0.000 A 
ATOM     27  C   UNL     1       1.421   2.542  18.961  0.00  0.00    +0.000 A 
ATOM     28  C   UNL     1       1.312   3.834  18.450  0.00  0.00    +0.000 A 
ATOM     29  C   UNL     1       2.325   4.353  17.639  0.00  0.00    +0.000 A 
ENDBRANCH  22  24
ENDBRANCH  19  22
ENDBRANCH   2  16
TORSDOF 4
ENDMDL
MODEL 9
REMARK VINA RESULT:      -7.8      2.512     10.243
REMARK  Name = 
REMARK  8 active torsions:
REMARK  status: ('A' for Active; 'I' for Inactive)
REMARK    1  A    between atoms: C_1  and  C_2
REMARK    2  A    between atoms: C_2  and  C_3
REMARK    3  A    between atoms: C_5  and  N_6
REMARK    4  A    between atoms: C_7  and  C_9
REMARK    5  A    between atoms: C_12  and  N_13
REMARK    6  A    between atoms: N_13  and  C_14
REMARK    7  A    between atoms: C_23  and  C_24
REMARK    8  A    between atoms: C_23  and  C_25
REMARK                            x       y       z     vdW  Elec       q    Type
REMARK                         _______ _______ _______ _____ _____    ______ ____
ROOT
ATOM      1  N   UNL     1      -1.243  11.604  21.760  0.00  0.00    +0.000 N 
ATOM      2  C   UNL     1      -0.374  11.564  20.687  0.00  0.00    +0.000 C 
ATOM      3  O   UNL     1      -0.149  12.520  19.953  0.00  0.00    +0.000 OA
ATOM      4  H   UNL     1      -1.174  10.872  22.455  0.00  0.00    +0.000 HD
ENDROOT
BRANCH   1   9
ATOM      5  C   UNL     1      -1.321  15.329  25.021  0.00  0.00    +0.000 C 
ATOM      6  C   UNL     1      -1.955  14.828  23.703  0.00  0.00    +0.000 C 
ATOM      7  C   UNL     1      -1.772  15.960  22.675  0.00  0.00    +0.000 C 
ATOM      8  C   UNL     1      -1.214  13.550  23.265  0.00  0.00    +0.000 C 
ATOM      9  C   UNL     1      -1.945  12.825  22.135  0.00  0.00    +0.000 C 
ATOM     10  C   UNL     1      -3.364  12.490  22.595  0.00  0.00    +0.000 C 
ATOM     11  C   UNL     1      -4.146  13.739  23.041  0.00  0.00    +0.000 C 
ATOM     12  C   UNL     1      -5.416  13.271  23.789  0.00  0.00    +0.000 C 
ATOM     13  C   UNL     1      -4.632  14.551  21.827  0.00  0.00    +0.000 C 
ATOM     14  N   UNL     1      -3.380  14.568  23.992  0.00  0.00    +0.000 NA
ATOM     15  H   UNL     1      -3.445  14.142  24.917  0.00  0.00    +0.000 HD
ENDBRANCH   1   9
BRANCH   2  16
ATOM     16  C   UNL     1       0.331  10.271  20.481  0.00  0.00    +0.000 A 
ATOM     17  C   UNL     1       0.455   9.333  21.514  0.00  0.00    +0.000 A 
ATOM     18  C   UNL     1       1.178   8.154  21.307  0.00  0.00    +0.000 A 
ATOM     19  C   UNL     1       1.760   7.878  20.064  0.00  0.00    +0.000 A 
ATOM     20  C   UNL     1       1.597   8.807  19.027  0.00  0.00    +0.000 A 
ATOM     21  C   UNL     1       0.882   9.993  19.229  0.00  0.00    +0.000 A 
BRANCH  19  22
ATOM     22  N   UNL     1       2.544   6.718  19.904  0.00  0.00    +0.000 N 
ATOM     23  H   UNL     1       3.349   6.686  20.522  0.00  0.00    +0.000 HD
BRANCH  22  24
ATOM     24  C   UNL     1       2.111   5.409  19.601  0.00  0.00    +0.000 A 
ATOM     25  C   UNL     1       1.629   4.603  20.639  0.00  0.00    +0.000 A 
ATOM     26  C   UNL     1       1.157   3.313  20.383  0.00  0.00    +0.000 A 
ATOM     27  C   UNL     1       1.141   2.826  19.078  0.00  0.00    +0.000 A 
ATOM     28  C   UNL     1       1.597   3.626  18.032  0.00  0.00    +0.000 A 
ATOM     29  C   UNL     1       2.078   4.911  18.293  0.00  0.00    +0.000 A 
ENDBRANCH  22  24
ENDBRANCH  19  22
ENDBRANCH   2  16
TORSDOF 4
ENDMDL
