MODEL 1
REMARK VINA RESULT:      -8.1      0.000      0.000
REMARK  Name = 
REMARK  2 active torsions:
REMARK  status: ('A' for Active; 'I' for Inactive)
REMARK    1  A    between atoms: C_2  and  C_16
REMARK    2  A    between atoms: C_6  and  C_7
REMARK                            x       y       z     vdW  Elec       q    Type
REMARK                         _______ _______ _______ _____ _____    ______ ____
ROOT
ATOM      1  O   UNL     1       1.572   8.869  19.177  0.00  0.00    +0.000 OA
ATOM      2  C   UNL     1       1.321   8.505  20.326  0.00  0.00    +0.000 C 
ATOM      3  N   UNL     1       1.613   7.285  20.886  0.00  0.00    +0.000 N 
ATOM      4  C   UNL     1       2.253   6.326  20.154  0.00  0.00    +0.000 A 
ATOM      5  N   UNL     1       2.920   6.472  19.038  0.00  0.00    +0.000 NA
ATOM      6  C   UNL     1       3.370   5.247  18.588  0.00  0.00    +0.000 A 
ATOM      7  C   UNL     1       2.968   4.176  19.368  0.00  0.00    +0.000 A 
ATOM      8  S   UNL     1       2.145   4.744  20.768  0.00  0.00    +0.000 S 
ATOM      9  H   UNL     1       1.248   7.051  21.800  0.00  0.00    +0.000 HD
ENDROOT
BRANCH   6  10
ATOM     10  C   UNL     1       4.210   5.153  17.397  0.00  0.00    +0.000 A 
ATOM     11  C   UNL     1       4.585   6.329  16.723  0.00  0.00    +0.000 A 
ATOM     12  C   UNL     1       5.426   6.277  15.609  0.00  0.00    +0.000 A 
ATOM     13  C   UNL     1       5.889   5.047  15.161  0.00  0.00    +0.000 A 
ATOM     14  F   UNL     1       6.695   4.992  14.092  0.00  0.00    +0.000 F 
ATOM     15  C   UNL     1       5.527   3.871  15.804  0.00  0.00    +0.000 A 
ATOM     16  C   UNL     1       4.691   3.922  16.920  0.00  0.00    +0.000 A 
ENDBRANCH   6  10
BRANCH   2  17
ATOM     17  C   UNL     1       0.585   9.445  21.205  0.00  0.00    +0.000 A 
ATOM     18  C   UNL     1       0.635   9.257  22.580  0.00  0.00    +0.000 A 
ATOM     19  N   UNL     1      -0.051  10.041  23.447  0.00  0.00    +0.000 NA
ATOM     20  C   UNL     1      -0.806  11.007  22.874  0.00  0.00    +0.000 A 
ATOM     21  C   UNL     1      -0.848  11.199  21.499  0.00  0.00    +0.000 A 
ATOM     22  N   UNL     1      -0.146  10.439  20.622  0.00  0.00    +0.000 NA
ENDBRANCH   2  17
TORSDOF 2
ENDMDL
MODEL 2
REMARK VINA RESULT:      -8.0      0.069      1.056
REMARK  Name = 
REMARK  2 active torsions:
REMARK  status: ('A' for Active; 'I' for Inactive)
REMARK    1  A    between atoms: C_2  and  C_16
REMARK    2  A    between atoms: C_6  and  C_7
REMARK                            x       y       z     vdW  Elec       q    Type
REMARK                         _______ _______ _______ _____ _____    ______ ____
ROOT
ATOM      1  O   UNL     1       1.611   8.882  19.186  0.00  0.00    +0.000 OA
ATOM      2  C   UNL     1       1.345   8.505  20.327  0.00  0.00    +0.000 C 
ATOM      3  N   UNL     1       1.631   7.278  20.877  0.00  0.00    +0.000 N 
ATOM      4  C   UNL     1       2.282   6.329  20.143  0.00  0.00    +0.000 A 
ATOM      5  N   UNL     1       2.964   6.489  19.037  0.00  0.00    +0.000 NA
ATOM      6  C   UNL     1       3.422   5.269  18.579  0.00  0.00    +0.000 A 
ATOM      7  C   UNL     1       3.011   4.189  19.342  0.00  0.00    +0.000 A 
ATOM      8  S   UNL     1       2.168   4.740  20.737  0.00  0.00    +0.000 S 
ATOM      9  H   UNL     1       1.254   7.033  21.783  0.00  0.00    +0.000 HD
ENDROOT
BRANCH   6  10
ATOM     10  C   UNL     1       4.279   5.190  17.399  0.00  0.00    +0.000 A 
ATOM     11  C   UNL     1       4.738   3.935  16.964  0.00  0.00    +0.000 A 
ATOM     12  C   UNL     1       5.522   3.821  15.813  0.00  0.00    +0.000 A 
ATOM     13  C   UNL     1       5.852   4.964  15.096  0.00  0.00    +0.000 A 
ATOM     14  F   UNL     1       6.603   4.860  13.992  0.00  0.00    +0.000 F 
ATOM     15  C   UNL     1       5.416   6.216  15.510  0.00  0.00    +0.000 A 
ATOM     16  C   UNL     1       4.631   6.330  16.657  0.00  0.00    +0.000 A 
ENDBRANCH   6  10
BRANCH   2  17
ATOM     17  C   UNL     1       0.595   9.434  21.206  0.00  0.00    +0.000 A 
ATOM     18  C   UNL     1       0.659   9.253  22.583  0.00  0.00    +0.000 A 
ATOM     19  N   UNL     1      -0.037  10.027  23.450  0.00  0.00    +0.000 NA
ATOM     20  C   UNL     1      -0.816  10.974  22.878  0.00  0.00    +0.000 A 
ATOM     21  C   UNL     1      -0.873  11.159  21.502  0.00  0.00    +0.000 A 
ATOM     22  N   UNL     1      -0.160  10.409  20.624  0.00  0.00    +0.000 NA
ENDBRANCH   2  17
TORSDOF 2
ENDMDL
MODEL 3
REMARK VINA RESULT:      -7.8      0.910      1.082
REMARK  Name = 
REMARK  2 active torsions:
REMARK  status: ('A' for Active; 'I' for Inactive)
REMARK    1  A    between atoms: C_2  and  C_16
REMARK    2  A    between atoms: C_6  and  C_7
REMARK                            x       y       z     vdW  Elec       q    Type
REMARK                         _______ _______ _______ _____ _____    ______ ____
ROOT
ATOM      1  O   UNL     1       2.062   8.516  19.306  0.00  0.00    +0.000 OA
ATOM      2  C   UNL     1       1.603   8.167  20.393  0.00  0.00    +0.000 C 
ATOM      3  N   UNL     1       1.725   6.931  20.981  0.00  0.00    +0.000 N 
ATOM      4  C   UNL     1       2.420   5.935  20.356  0.00  0.00    +0.000 A 
ATOM      5  N   UNL     1       3.271   6.043  19.367  0.00  0.00    +0.000 NA
ATOM      6  C   UNL     1       3.716   4.792  18.985  0.00  0.00    +0.000 A 
ATOM      7  C   UNL     1       3.128   3.748  19.676  0.00  0.00    +0.000 A 
ATOM      8  S   UNL     1       2.118   4.362  20.926  0.00  0.00    +0.000 S 
ATOM      9  H   UNL     1       1.200   6.718  21.819  0.00  0.00    +0.000 HD
ENDROOT
BRANCH   6  10
ATOM     10  C   UNL     1       4.736   4.649  17.949  0.00  0.00    +0.000 A 
ATOM     11  C   UNL     1       4.343   4.385  16.626  0.00  0.00    +0.000 A 
ATOM     12  C   UNL     1       5.291   4.288  15.604  0.00  0.00    +0.000 A 
ATOM     13  C   UNL     1       6.637   4.450  15.905  0.00  0.00    +0.000 A 
ATOM     14  F   UNL     1       7.549   4.358  14.929  0.00  0.00    +0.000 F 
ATOM     15  C   UNL     1       7.051   4.705  17.206  0.00  0.00    +0.000 A 
ATOM     16  C   UNL     1       6.105   4.806  18.226  0.00  0.00    +0.000 A 
ENDBRANCH   6  10
BRANCH   2  17
ATOM     17  C   UNL     1       0.787   9.148  21.147  0.00  0.00    +0.000 A 
ATOM     18  C   UNL     1       0.854   9.151  22.535  0.00  0.00    +0.000 A 
ATOM     19  N   UNL     1       0.102   9.982  23.298  0.00  0.00    +0.000 NA
ATOM     20  C   UNL     1      -0.734  10.793  22.610  0.00  0.00    +0.000 A 
ATOM     21  C   UNL     1      -0.794  10.796  21.222  0.00  0.00    +0.000 A 
ATOM     22  N   UNL     1      -0.027   9.988  20.446  0.00  0.00    +0.000 NA
ENDBRANCH   2  17
TORSDOF 2
ENDMDL
MODEL 4
REMARK VINA RESULT:      -7.7      0.618      1.031
REMARK  Name = 
REMARK  2 active torsions:
REMARK  status: ('A' for Active; 'I' for Inactive)
REMARK    1  A    between atoms: C_2  and  C_16
REMARK    2  A    between atoms: C_6  and  C_7
REMARK                            x       y       z     vdW  Elec       q    Type
REMARK                         _______ _______ _______ _____ _____    ______ ____
ROOT
ATOM      1  O   UNL     1       1.511   8.856  19.175  0.00  0.00    +0.000 OA
ATOM      2  C   UNL     1       1.249   8.490  20.321  0.00  0.00    +0.000 C 
ATOM      3  N   UNL     1       1.548   7.274  20.887  0.00  0.00    +0.000 N 
ATOM      4  C   UNL     1       2.209   6.321  20.165  0.00  0.00    +0.000 A 
ATOM      5  N   UNL     1       2.888   6.474  19.056  0.00  0.00    +0.000 NA
ATOM      6  C   UNL     1       3.357   5.253  18.614  0.00  0.00    +0.000 A 
ATOM      7  C   UNL     1       2.958   4.180  19.390  0.00  0.00    +0.000 A 
ATOM      8  S   UNL     1       2.111   4.739  20.779  0.00  0.00    +0.000 S 
ATOM      9  H   UNL     1       1.174   7.037  21.797  0.00  0.00    +0.000 HD
ENDROOT
BRANCH   6  10
ATOM     10  C   UNL     1       4.214   5.168  17.434  0.00  0.00    +0.000 A 
ATOM     11  C   UNL     1       4.581   6.347  16.761  0.00  0.00    +0.000 A 
ATOM     12  C   UNL     1       5.435   6.304  15.657  0.00  0.00    +0.000 A 
ATOM     13  C   UNL     1       5.923   5.079  15.220  0.00  0.00    +0.000 A 
ATOM     14  F   UNL     1       6.743   5.032  14.162  0.00  0.00    +0.000 F 
ATOM     15  C   UNL     1       5.570   3.900  15.863  0.00  0.00    +0.000 A 
ATOM     16  C   UNL     1       4.720   3.943  16.968  0.00  0.00    +0.000 A 
ENDBRANCH   6  10
BRANCH   2  17
ATOM     17  C   UNL     1       0.491   9.423  21.189  0.00  0.00    +0.000 A 
ATOM     18  C   UNL     1       0.232  10.708  20.728  0.00  0.00    +0.000 A 
ATOM     19  N   UNL     1      -0.409  11.635  21.481  0.00  0.00    +0.000 NA
ATOM     20  C   UNL     1      -0.760  11.225  22.721  0.00  0.00    +0.000 A 
ATOM     21  C   UNL     1      -0.508   9.937  23.178  0.00  0.00    +0.000 A 
ATOM     22  N   UNL     1       0.110   8.991  22.426  0.00  0.00    +0.000 NA
ENDBRANCH   2  17
TORSDOF 2
ENDMDL
MODEL 5
REMARK VINA RESULT:      -7.4      0.846      1.504
REMARK  Name = 
REMARK  2 active torsions:
REMARK  status: ('A' for Active; 'I' for Inactive)
REMARK    1  A    between atoms: C_2  and  C_16
REMARK    2  A    between atoms: C_6  and  C_7
REMARK                            x       y       z     vdW  Elec       q    Type
REMARK                         _______ _______ _______ _____ _____    ______ ____
ROOT
ATOM      1  O   UNL     1       1.830   8.736  19.225  0.00  0.00    +0.000 OA
ATOM      2  C   UNL     1       1.427   8.333  20.316  0.00  0.00    +0.000 C 
ATOM      3  N   UNL     1       1.648   7.095  20.871  0.00  0.00    +0.000 N 
ATOM      4  C   UNL     1       2.390   6.163  20.203  0.00  0.00    +0.000 A 
ATOM      5  N   UNL     1       3.202   6.349  19.194  0.00  0.00    +0.000 NA
ATOM      6  C   UNL     1       3.718   5.140  18.770  0.00  0.00    +0.000 A 
ATOM      7  C   UNL     1       3.221   4.043  19.452  0.00  0.00    +0.000 A 
ATOM      8  S   UNL     1       2.210   4.561  20.744  0.00  0.00    +0.000 S 
ATOM      9  H   UNL     1       1.163   6.830  21.718  0.00  0.00    +0.000 HD
ENDROOT
BRANCH   6  10
ATOM     10  C   UNL     1       4.715   5.089  17.703  0.00  0.00    +0.000 A 
ATOM     11  C   UNL     1       4.559   4.162  16.658  0.00  0.00    +0.000 A 
ATOM     12  C   UNL     1       5.469   4.118  15.599  0.00  0.00    +0.000 A 
ATOM     13  C   UNL     1       6.543   5.000  15.586  0.00  0.00    +0.000 A 
ATOM     14  F   UNL     1       7.418   4.961  14.573  0.00  0.00    +0.000 F 
ATOM     15  C   UNL     1       6.722   5.919  16.610  0.00  0.00    +0.000 A 
ATOM     16  C   UNL     1       5.812   5.966  17.666  0.00  0.00    +0.000 A 
ENDBRANCH   6  10
BRANCH   2  17
ATOM     17  C   UNL     1       0.570   9.241  21.116  0.00  0.00    +0.000 A 
ATOM     18  C   UNL     1       0.035  10.369  20.506  0.00  0.00    +0.000 A 
ATOM     19  N   UNL     1      -0.715  11.274  21.181  0.00  0.00    +0.000 NA
ATOM     20  C   UNL     1      -0.886  11.011  22.497  0.00  0.00    +0.000 A 
ATOM     21  C   UNL     1      -0.357   9.878  23.104  0.00  0.00    +0.000 A 
ATOM     22  N   UNL     1       0.373   8.951  22.434  0.00  0.00    +0.000 NA
ENDBRANCH   2  17
TORSDOF 2
ENDMDL
MODEL 6
REMARK VINA RESULT:      -7.1      1.054      1.533
REMARK  Name = 
REMARK  2 active torsions:
REMARK  status: ('A' for Active; 'I' for Inactive)
REMARK    1  A    between atoms: C_2  and  C_16
REMARK    2  A    between atoms: C_6  and  C_7
REMARK                            x       y       z     vdW  Elec       q    Type
REMARK                         _______ _______ _______ _____ _____    ______ ____
ROOT
ATOM      1  O   UNL     1       1.691   9.252  18.087  0.00  0.00    +0.000 OA
ATOM      2  C   UNL     1       1.382   9.098  19.269  0.00  0.00    +0.000 C 
ATOM      3  N   UNL     1       1.645   8.001  20.053  0.00  0.00    +0.000 N 
ATOM      4  C   UNL     1       2.322   6.932  19.539  0.00  0.00    +0.000 A 
ATOM      5  N   UNL     1       3.044   6.882  18.449  0.00  0.00    +0.000 NA
ATOM      6  C   UNL     1       3.516   5.599  18.250  0.00  0.00    +0.000 A 
ATOM      7  C   UNL     1       3.075   4.683  19.189  0.00  0.00    +0.000 A 
ATOM      8  S   UNL     1       2.182   5.485  20.422  0.00  0.00    +0.000 S 
ATOM      9  H   UNL     1       1.234   7.932  20.975  0.00  0.00    +0.000 HD
ENDROOT
BRANCH   6  10
ATOM     10  C   UNL     1       4.416   5.301  17.139  0.00  0.00    +0.000 A 
ATOM     11  C   UNL     1       4.781   3.967  16.887  0.00  0.00    +0.000 A 
ATOM     12  C   UNL     1       5.603   3.643  15.805  0.00  0.00    +0.000 A 
ATOM     13  C   UNL     1       6.068   4.655  14.975  0.00  0.00    +0.000 A 
ATOM     14  F   UNL     1       6.857   4.349  13.936  0.00  0.00    +0.000 F 
ATOM     15  C   UNL     1       5.728   5.981  15.208  0.00  0.00    +0.000 A 
ATOM     16  C   UNL     1       4.904   6.304  16.286  0.00  0.00    +0.000 A 
ENDBRANCH   6  10
BRANCH   2  17
ATOM     17  C   UNL     1       0.602  10.174  19.926  0.00  0.00    +0.000 A 
ATOM     18  C   UNL     1       0.871  10.483  21.253  0.00  0.00    +0.000 A 
ATOM     19  N   UNL     1       0.168  11.417  21.940  0.00  0.00    +0.000 NA
ATOM     20  C   UNL     1      -0.829  12.011  21.244  0.00  0.00    +0.000 A 
ATOM     21  C   UNL     1      -1.091  11.708  19.914  0.00  0.00    +0.000 A 
ATOM     22  N   UNL     1      -0.378  10.794  19.207  0.00  0.00    +0.000 NA
ENDBRANCH   2  17
TORSDOF 2
ENDMDL
MODEL 7
REMARK VINA RESULT:      -7.0      3.930      8.409
REMARK  Name = 
REMARK  2 active torsions:
REMARK  status: ('A' for Active; 'I' for Inactive)
REMARK    1  A    between atoms: C_2  and  C_16
REMARK    2  A    between atoms: C_6  and  C_7
REMARK                            x       y       z     vdW  Elec       q    Type
REMARK                         _______ _______ _______ _____ _____    ______ ____
ROOT
ATOM      1  O   UNL     1       5.128   6.706  15.465  0.00  0.00    +0.000 OA
ATOM      2  C   UNL     1       5.273   5.486  15.387  0.00  0.00    +0.000 C 
ATOM      3  N   UNL     1       4.846   4.546  16.294  0.00  0.00    +0.000 N 
ATOM      4  C   UNL     1       4.177   4.929  17.421  0.00  0.00    +0.000 A 
ATOM      5  N   UNL     1       3.599   6.078  17.667  0.00  0.00    +0.000 NA
ATOM      6  C   UNL     1       3.080   6.085  18.946  0.00  0.00    +0.000 A 
ATOM      7  C   UNL     1       3.341   4.933  19.668  0.00  0.00    +0.000 A 
ATOM      8  S   UNL     1       4.114   3.771  18.664  0.00  0.00    +0.000 S 
ATOM      9  H   UNL     1       5.130   3.581  16.189  0.00  0.00    +0.000 HD
ENDROOT
BRANCH   6  10
ATOM     10  C   UNL     1       2.313   7.229  19.433  0.00  0.00    +0.000 A 
ATOM     11  C   UNL     1       2.048   8.301  18.563  0.00  0.00    +0.000 A 
ATOM     12  C   UNL     1       1.279   9.389  18.983  0.00  0.00    +0.000 A 
ATOM     13  C   UNL     1       0.777   9.410  20.278  0.00  0.00    +0.000 A 
ATOM     14  F   UNL     1       0.040  10.452  20.686  0.00  0.00    +0.000 F 
ATOM     15  C   UNL     1       1.032   8.367  21.158  0.00  0.00    +0.000 A 
ATOM     16  C   UNL     1       1.796   7.278  20.738  0.00  0.00    +0.000 A 
ENDBRANCH   6  10
BRANCH   2  17
ATOM     17  C   UNL     1       6.026   4.951  14.228  0.00  0.00    +0.000 A 
ATOM     18  C   UNL     1       5.486   3.891  13.509  0.00  0.00    +0.000 A 
ATOM     19  N   UNL     1       6.136   3.313  12.469  0.00  0.00    +0.000 NA
ATOM     20  C   UNL     1       7.356   3.829  12.195  0.00  0.00    +0.000 A 
ATOM     21  C   UNL     1       7.891   4.894  12.909  0.00  0.00    +0.000 A 
ATOM     22  N   UNL     1       7.240   5.500  13.935  0.00  0.00    +0.000 NA
ENDBRANCH   2  17
TORSDOF 2
ENDMDL
MODEL 8
REMARK VINA RESULT:      -7.0      4.280      8.254
REMARK  Name = 
REMARK  2 active torsions:
REMARK  status: ('A' for Active; 'I' for Inactive)
REMARK    1  A    between atoms: C_2  and  C_16
REMARK    2  A    between atoms: C_6  and  C_7
REMARK                            x       y       z     vdW  Elec       q    Type
REMARK                         _______ _______ _______ _____ _____    ______ ____
ROOT
ATOM      1  O   UNL     1       1.326   5.309  20.487  0.00  0.00    +0.000 OA
ATOM      2  C   UNL     1       2.175   5.285  19.596  0.00  0.00    +0.000 C 
ATOM      3  N   UNL     1       2.612   6.349  18.846  0.00  0.00    +0.000 N 
ATOM      4  C   UNL     1       2.102   7.598  19.057  0.00  0.00    +0.000 A 
ATOM      5  N   UNL     1       1.432   8.032  20.095  0.00  0.00    +0.000 NA
ATOM      6  C   UNL     1       1.046   9.343  19.898  0.00  0.00    +0.000 A 
ATOM      7  C   UNL     1       1.394   9.854  18.659  0.00  0.00    +0.000 A 
ATOM      8  S   UNL     1       2.354   8.715  17.800  0.00  0.00    +0.000 S 
ATOM      9  H   UNL     1       3.223   6.190  18.055  0.00  0.00    +0.000 HD
ENDROOT
BRANCH   6  10
ATOM     10  C   UNL     1       0.351  10.081  20.949  0.00  0.00    +0.000 A 
ATOM     11  C   UNL     1       0.094  11.452  20.775  0.00  0.00    +0.000 A 
ATOM     12  C   UNL     1      -0.608  12.177  21.741  0.00  0.00    +0.000 A 
ATOM     13  C   UNL     1      -1.051  11.531  22.888  0.00  0.00    +0.000 A 
ATOM     14  F   UNL     1      -1.725  12.222  23.818  0.00  0.00    +0.000 F 
ATOM     15  C   UNL     1      -0.803  10.180  23.087  0.00  0.00    +0.000 A 
ATOM     16  C   UNL     1      -0.106   9.455  22.121  0.00  0.00    +0.000 A 
ENDBRANCH   6  10
BRANCH   2  17
ATOM     17  C   UNL     1       2.770   3.974  19.242  0.00  0.00    +0.000 A 
ATOM     18  C   UNL     1       2.307   3.310  18.112  0.00  0.00    +0.000 A 
ATOM     19  N   UNL     1       2.763   2.086  17.750  0.00  0.00    +0.000 NA
ATOM     20  C   UNL     1       3.685   1.548  18.581  0.00  0.00    +0.000 A 
ATOM     21  C   UNL     1       4.153   2.216  19.706  0.00  0.00    +0.000 A 
ATOM     22  N   UNL     1       3.725   3.453  20.065  0.00  0.00    +0.000 NA
ENDBRANCH   2  17
TORSDOF 2
ENDMDL
MODEL 9
REMARK VINA RESULT:      -7.0      2.793      3.577
REMARK  Name = 
REMARK  2 active torsions:
REMARK  status: ('A' for Active; 'I' for Inactive)
REMARK    1  A    between atoms: C_2  and  C_16
REMARK    2  A    between atoms: C_6  and  C_7
REMARK                            x       y       z     vdW  Elec       q    Type
REMARK                         _______ _______ _______ _____ _____    ______ ____
ROOT
ATOM      1  O   UNL     1       1.240   9.087  22.326  0.00  0.00    +0.000 OA
ATOM      2  C   UNL     1       0.709   9.866  21.534  0.00  0.00    +0.000 C 
ATOM      3  N   UNL     1       0.782   9.823  20.163  0.00  0.00    +0.000 N 
ATOM      4  C   UNL     1       1.494   8.839  19.539  0.00  0.00    +0.000 A 
ATOM      5  N   UNL     1       1.915   7.706  20.041  0.00  0.00    +0.000 NA
ATOM      6  C   UNL     1       2.647   7.011  19.099  0.00  0.00    +0.000 A 
ATOM      7  C   UNL     1       2.810   7.685  17.901  0.00  0.00    +0.000 A 
ATOM      8  S   UNL     1       1.897   9.143  17.916  0.00  0.00    +0.000 S 
ATOM      9  H   UNL     1       0.409  10.588  19.615  0.00  0.00    +0.000 HD
ENDROOT
BRANCH   6  10
ATOM     10  C   UNL     1       3.162   5.675  19.391  0.00  0.00    +0.000 A 
ATOM     11  C   UNL     1       2.377   4.784  20.142  0.00  0.00    +0.000 A 
ATOM     12  C   UNL     1       2.820   3.484  20.401  0.00  0.00    +0.000 A 
ATOM     13  C   UNL     1       4.054   3.075  19.911  0.00  0.00    +0.000 A 
ATOM     14  F   UNL     1       4.483   1.830  20.156  0.00  0.00    +0.000 F 
ATOM     15  C   UNL     1       4.850   3.939  19.173  0.00  0.00    +0.000 A 
ATOM     16  C   UNL     1       4.407   5.236  18.911  0.00  0.00    +0.000 A 
ENDBRANCH   6  10
BRANCH   2  17
ATOM     17  C   UNL     1      -0.054  11.007  22.093  0.00  0.00    +0.000 A 
ATOM     18  C   UNL     1      -1.138  10.746  22.923  0.00  0.00    +0.000 A 
ATOM     19  N   UNL     1      -1.917  11.732  23.432  0.00  0.00    +0.000 NA
ATOM     20  C   UNL     1      -1.576  12.986  23.056  0.00  0.00    +0.000 A 
ATOM     21  C   UNL     1      -0.487  13.246  22.232  0.00  0.00    +0.000 A 
ATOM     22  N   UNL     1       0.317  12.271  21.738  0.00  0.00    +0.000 NA
ENDBRANCH   2  17
TORSDOF 2
ENDMDL
