MODEL 1
REMARK VINA RESULT:      -6.8      0.000      0.000
REMARK  Name = 
REMARK  6 active torsions:
REMARK  status: ('A' for Active; 'I' for Inactive)
REMARK    1  A    between atoms: C_1  and  C_2
REMARK    2  A    between atoms: C_2  and  C_3
REMARK    3  A    between atoms: C_14  and  C_16
REMARK    4  A    between atoms: C_16  and  N_17
REMARK    5  A    between atoms: N_20  and  C_21
REMARK    6  A    between atoms: C_24  and  C_25
REMARK                            x       y       z     vdW  Elec       q    Type
REMARK                         _______ _______ _______ _____ _____    ______ ____
ROOT
ATOM      1  C   UNL     1       1.336  11.731  18.784  0.00  0.00    +0.000 C 
ATOM      2  N   UNL     1       2.138  12.388  17.999  0.00  0.00    +0.000 NA
ATOM      3  C   UNL     1       2.481  13.731  18.205  0.00  0.00    +0.000 A 
ATOM      4  C   UNL     1       3.809  14.042  17.883  0.00  0.00    +0.000 A 
ATOM      5  C   UNL     1       4.280  15.349  17.936  0.00  0.00    +0.000 A 
ATOM      6  C   UNL     1       3.409  16.373  18.286  0.00  0.00    +0.000 A 
ATOM      7  C   UNL     1       2.080  16.077  18.613  0.00  0.00    +0.000 A 
ATOM      8  C   UNL     1       1.593  14.762  18.613  0.00  0.00    +0.000 A 
ATOM      9  N   UNL     1       0.224  14.592  18.940  0.00  0.00    +0.000 NA
ATOM     10  C   UNL     1      -0.205  13.511  19.520  0.00  0.00    +0.000 C 
ATOM     11  N   UNL     1      -1.566  13.428  19.626  0.00  0.00    +0.000 N 
ATOM     12  C   UNL     1      -2.276  12.244  19.502  0.00  0.00    +0.000 C 
ATOM     13  O   UNL     1      -1.769  11.185  19.161  0.00  0.00    +0.000 OA
ATOM     14  C   UNL     1       0.714  12.377  20.030  0.00  0.00    +0.000 C 
ATOM     15  H   UNL     1      -2.059  14.288  19.430  0.00  0.00    +0.000 HD
ENDROOT
BRANCH  14  16
ATOM     16  C   UNL     1       0.183  11.497  21.186  0.00  0.00    +0.000 A 
ATOM     17  C   UNL     1       0.508  10.138  21.288  0.00  0.00    +0.000 A 
ATOM     18  C   UNL     1      -0.081   9.305  22.242  0.00  0.00    +0.000 A 
ATOM     19  C   UNL     1      -0.949   9.832  23.187  0.00  0.00    +0.000 A 
ATOM     20  C   UNL     1      -1.196  11.199  23.197  0.00  0.00    +0.000 A 
ATOM     21  C   UNL     1      -0.610  12.026  22.230  0.00  0.00    +0.000 A 
ENDBRANCH  14  16
BRANCH   1  23
ATOM     22  C   UNL     1       2.346   9.541  17.950  0.00  0.00    +0.000 C 
ATOM     23  C   UNL     1       1.087  10.280  18.378  0.00  0.00    +0.000 C 
ENDBRANCH   1  23
BRANCH  12  24
ATOM     24  C   UNL     1      -3.777  12.363  19.718  0.00  0.00    +0.000 C 
BRANCH  24  25
ATOM     25  N   UNL     1      -4.117  13.351  20.748  0.00  0.00    +0.000 NA
ATOM     26  C   UNL     1      -4.329  12.757  22.093  0.00  0.00    +0.000 C 
ATOM     27  C   UNL     1      -4.703  13.808  23.166  0.00  0.00    +0.000 C 
ATOM     28  N   UNL     1      -5.791  14.737  22.782  0.00  0.00    +0.000 NA
ATOM     29  C   UNL     1      -7.101  14.082  22.830  0.00  0.00    +0.000 C 
ATOM     30  C   UNL     1      -5.511  15.267  21.434  0.00  0.00    +0.000 C 
ATOM     31  C   UNL     1      -5.272  14.173  20.375  0.00  0.00    +0.000 C 
ENDBRANCH  24  25
ENDBRANCH  12  24
TORSDOF 4
ENDMDL
MODEL 2
REMARK VINA RESULT:      -6.5      2.507      4.806
REMARK  Name = 
REMARK  6 active torsions:
REMARK  status: ('A' for Active; 'I' for Inactive)
REMARK    1  A    between atoms: C_1  and  C_2
REMARK    2  A    between atoms: C_2  and  C_3
REMARK    3  A    between atoms: C_14  and  C_16
REMARK    4  A    between atoms: C_16  and  N_17
REMARK    5  A    between atoms: N_20  and  C_21
REMARK    6  A    between atoms: C_24  and  C_25
REMARK                            x       y       z     vdW  Elec       q    Type
REMARK                         _______ _______ _______ _____ _____    ______ ____
ROOT
ATOM      1  C   UNL     1      -0.134  10.847  19.375  0.00  0.00    +0.000 C 
ATOM      2  N   UNL     1      -0.828  10.007  18.665  0.00  0.00    +0.000 NA
ATOM      3  C   UNL     1      -1.891  10.396  17.840  0.00  0.00    +0.000 A 
ATOM      4  C   UNL     1      -1.984   9.673  16.642  0.00  0.00    +0.000 A 
ATOM      5  C   UNL     1      -3.041   9.868  15.760  0.00  0.00    +0.000 A 
ATOM      6  C   UNL     1      -4.041  10.775  16.084  0.00  0.00    +0.000 A 
ATOM      7  C   UNL     1      -3.959  11.506  17.276  0.00  0.00    +0.000 A 
ATOM      8  C   UNL     1      -2.880  11.363  18.160  0.00  0.00    +0.000 A 
ATOM      9  N   UNL     1      -2.922  12.141  19.345  0.00  0.00    +0.000 NA
ATOM     10  C   UNL     1      -1.834  12.548  19.926  0.00  0.00    +0.000 C 
ATOM     11  N   UNL     1      -2.031  13.149  21.138  0.00  0.00    +0.000 N 
ATOM     12  C   UNL     1      -1.166  13.015  22.214  0.00  0.00    +0.000 C 
ATOM     13  O   UNL     1      -0.214  12.249  22.223  0.00  0.00    +0.000 OA
ATOM     14  C   UNL     1      -0.414  12.357  19.344  0.00  0.00    +0.000 C 
ATOM     15  H   UNL     1      -2.993  13.385  21.343  0.00  0.00    +0.000 HD
ENDROOT
BRANCH  14  16
ATOM     16  C   UNL     1       0.676  13.364  19.779  0.00  0.00    +0.000 A 
ATOM     17  C   UNL     1       1.942  12.944  20.203  0.00  0.00    +0.000 A 
ATOM     18  C   UNL     1       2.879  13.833  20.733  0.00  0.00    +0.000 A 
ATOM     19  C   UNL     1       2.608  15.193  20.769  0.00  0.00    +0.000 A 
ATOM     20  C   UNL     1       1.412  15.662  20.239  0.00  0.00    +0.000 A 
ATOM     21  C   UNL     1       0.473  14.763  19.719  0.00  0.00    +0.000 A 
ENDBRANCH  14  16
BRANCH   1  23
ATOM     22  C   UNL     1       0.514   9.033  21.048  0.00  0.00    +0.000 C 
ATOM     23  C   UNL     1       0.977  10.217  20.212  0.00  0.00    +0.000 C 
ENDBRANCH   1  23
BRANCH  12  24
ATOM     24  C   UNL     1      -1.539  13.821  23.450  0.00  0.00    +0.000 C 
BRANCH  24  25
ATOM     25  N   UNL     1      -2.700  14.688  23.222  0.00  0.00    +0.000 NA
ATOM     26  C   UNL     1      -2.365  16.135  23.200  0.00  0.00    +0.000 C 
ATOM     27  C   UNL     1      -3.601  17.039  22.976  0.00  0.00    +0.000 C 
ATOM     28  N   UNL     1      -4.761  16.744  23.848  0.00  0.00    +0.000 NA
ATOM     29  C   UNL     1      -4.542  17.219  25.217  0.00  0.00    +0.000 C 
ATOM     30  C   UNL     1      -5.015  15.290  23.825  0.00  0.00    +0.000 C 
ATOM     31  C   UNL     1      -3.781  14.438  24.181  0.00  0.00    +0.000 C 
ENDBRANCH  24  25
ENDBRANCH  12  24
TORSDOF 4
ENDMDL
MODEL 3
REMARK VINA RESULT:      -6.5      2.269      4.667
REMARK  Name = 
REMARK  6 active torsions:
REMARK  status: ('A' for Active; 'I' for Inactive)
REMARK    1  A    between atoms: C_1  and  C_2
REMARK    2  A    between atoms: C_2  and  C_3
REMARK    3  A    between atoms: C_14  and  C_16
REMARK    4  A    between atoms: C_16  and  N_17
REMARK    5  A    between atoms: N_20  and  C_21
REMARK    6  A    between atoms: C_24  and  C_25
REMARK                            x       y       z     vdW  Elec       q    Type
REMARK                         _______ _______ _______ _____ _____    ______ ____
ROOT
ATOM      1  C   UNL     1      -0.211  10.939  19.609  0.00  0.00    +0.000 C 
ATOM      2  N   UNL     1      -0.946  10.100  18.942  0.00  0.00    +0.000 NA
ATOM      3  C   UNL     1      -1.977  10.501  18.082  0.00  0.00    +0.000 A 
ATOM      4  C   UNL     1      -2.102   9.715  16.927  0.00  0.00    +0.000 A 
ATOM      5  C   UNL     1      -3.137   9.919  16.022  0.00  0.00    +0.000 A 
ATOM      6  C   UNL     1      -4.084  10.901  16.280  0.00  0.00    +0.000 A 
ATOM      7  C   UNL     1      -3.970  11.696  17.427  0.00  0.00    +0.000 A 
ATOM      8  C   UNL     1      -2.909  11.542  18.332  0.00  0.00    +0.000 A 
ATOM      9  N   UNL     1      -2.915  12.391  19.468  0.00  0.00    +0.000 NA
ATOM     10  C   UNL     1      -1.810  12.766  20.038  0.00  0.00    +0.000 C 
ATOM     11  N   UNL     1      -1.982  13.449  21.210  0.00  0.00    +0.000 N 
ATOM     12  C   UNL     1      -1.137  13.329  22.302  0.00  0.00    +0.000 C 
ATOM     13  O   UNL     1      -0.233  12.510  22.369  0.00  0.00    +0.000 OA
ATOM     14  C   UNL     1      -0.399  12.458  19.486  0.00  0.00    +0.000 C 
ATOM     15  H   UNL     1      -2.930  13.753  21.389  0.00  0.00    +0.000 HD
ENDROOT
BRANCH  14  16
ATOM     16  C   UNL     1       0.744  13.423  19.875  0.00  0.00    +0.000 A 
ATOM     17  C   UNL     1       1.988  12.954  20.318  0.00  0.00    +0.000 A 
ATOM     18  C   UNL     1       2.973  13.815  20.806  0.00  0.00    +0.000 A 
ATOM     19  C   UNL     1       2.775  15.187  20.782  0.00  0.00    +0.000 A 
ATOM     20  C   UNL     1       1.606  15.696  20.231  0.00  0.00    +0.000 A 
ATOM     21  C   UNL     1       0.618  14.826  19.753  0.00  0.00    +0.000 A 
ENDBRANCH  14  16
BRANCH   1  23
ATOM     22  C   UNL     1       0.340   9.113  21.305  0.00  0.00    +0.000 C 
ATOM     23  C   UNL     1       0.853  10.295  20.497  0.00  0.00    +0.000 C 
ENDBRANCH   1  23
BRANCH  12  24
ATOM     24  C   UNL     1      -1.473  14.227  23.484  0.00  0.00    +0.000 C 
BRANCH  24  25
ATOM     25  N   UNL     1      -2.844  14.027  23.965  0.00  0.00    +0.000 NA
ATOM     26  C   UNL     1      -3.285  12.609  23.932  0.00  0.00    +0.000 C 
ATOM     27  C   UNL     1      -4.739  12.415  24.425  0.00  0.00    +0.000 C 
ATOM     28  N   UNL     1      -5.735  13.329  23.817  0.00  0.00    +0.000 NA
ATOM     29  C   UNL     1      -6.050  12.943  22.439  0.00  0.00    +0.000 C 
ATOM     30  C   UNL     1      -5.214  14.708  23.878  0.00  0.00    +0.000 C 
ATOM     31  C   UNL     1      -3.813  14.870  23.256  0.00  0.00    +0.000 C 
ENDBRANCH  24  25
ENDBRANCH  12  24
TORSDOF 4
ENDMDL
MODEL 4
REMARK VINA RESULT:      -6.4      2.240      4.851
REMARK  Name = 
REMARK  6 active torsions:
REMARK  status: ('A' for Active; 'I' for Inactive)
REMARK    1  A    between atoms: C_1  and  C_2
REMARK    2  A    between atoms: C_2  and  C_3
REMARK    3  A    between atoms: C_14  and  C_16
REMARK    4  A    between atoms: C_16  and  N_17
REMARK    5  A    between atoms: N_20  and  C_21
REMARK    6  A    between atoms: C_24  and  C_25
REMARK                            x       y       z     vdW  Elec       q    Type
REMARK                         _______ _______ _______ _____ _____    ______ ____
ROOT
ATOM      1  C   UNL     1       0.013  11.018  18.569  0.00  0.00    +0.000 C 
ATOM      2  N   UNL     1      -0.808  10.174  18.018  0.00  0.00    +0.000 NA
ATOM      3  C   UNL     1      -2.018  10.558  17.426  0.00  0.00    +0.000 A 
ATOM      4  C   UNL     1      -2.352   9.832  16.273  0.00  0.00    +0.000 A 
ATOM      5  C   UNL     1      -3.567  10.022  15.625  0.00  0.00    +0.000 A 
ATOM      6  C   UNL     1      -4.482  10.927  16.145  0.00  0.00    +0.000 A 
ATOM      7  C   UNL     1      -4.162  11.661  17.293  0.00  0.00    +0.000 A 
ATOM      8  C   UNL     1      -2.924  11.523  17.939  0.00  0.00    +0.000 A 
ATOM      9  N   UNL     1      -2.726  12.305  19.105  0.00  0.00    +0.000 NA
ATOM     10  C   UNL     1      -1.544  12.716  19.452  0.00  0.00    +0.000 C 
ATOM     11  N   UNL     1      -1.492  13.320  20.678  0.00  0.00    +0.000 N 
ATOM     12  C   UNL     1      -0.425  13.191  21.554  0.00  0.00    +0.000 C 
ATOM     13  O   UNL     1       0.511  12.428  21.371  0.00  0.00    +0.000 OA
ATOM     14  C   UNL     1      -0.272  12.527  18.593  0.00  0.00    +0.000 C 
ATOM     15  H   UNL     1      -2.392  13.553  21.074  0.00  0.00    +0.000 HD
ENDROOT
BRANCH  14  16
ATOM     16  C   UNL     1       0.880  13.538  18.794  0.00  0.00    +0.000 A 
ATOM     17  C   UNL     1       2.221  13.134  18.822  0.00  0.00    +0.000 A 
ATOM     18  C   UNL     1       3.254  14.015  19.147  0.00  0.00    +0.000 A 
ATOM     19  C   UNL     1       2.983  15.357  19.366  0.00  0.00    +0.000 A 
ATOM     20  C   UNL     1       1.681  15.821  19.221  0.00  0.00    +0.000 A 
ATOM     21  C   UNL     1       0.649  14.929  18.905  0.00  0.00    +0.000 A 
ENDBRANCH  14  16
BRANCH   1  23
ATOM     22  C   UNL     1       1.895   9.319  18.284  0.00  0.00    +0.000 C 
ATOM     23  C   UNL     1       1.273  10.393  19.164  0.00  0.00    +0.000 C 
ENDBRANCH   1  23
BRANCH  12  24
ATOM     24  C   UNL     1      -0.541  13.999  22.839  0.00  0.00    +0.000 C 
BRANCH  24  25
ATOM     25  N   UNL     1      -1.821  13.780  23.522  0.00  0.00    +0.000 NA
ATOM     26  C   UNL     1      -2.368  12.412  23.335  0.00  0.00    +0.000 C 
ATOM     27  C   UNL     1      -3.726  12.201  24.046  0.00  0.00    +0.000 C 
ATOM     28  N   UNL     1      -4.738  13.252  23.791  0.00  0.00    +0.000 NA
ATOM     29  C   UNL     1      -5.315  13.132  22.450  0.00  0.00    +0.000 C 
ATOM     30  C   UNL     1      -4.110  14.574  23.984  0.00  0.00    +0.000 C 
ATOM     31  C   UNL     1      -2.830  14.779  23.152  0.00  0.00    +0.000 C 
ENDBRANCH  24  25
ENDBRANCH  12  24
TORSDOF 4
ENDMDL
MODEL 5
REMARK VINA RESULT:      -6.3      2.791      4.881
REMARK  Name = 
REMARK  6 active torsions:
REMARK  status: ('A' for Active; 'I' for Inactive)
REMARK    1  A    between atoms: C_1  and  C_2
REMARK    2  A    between atoms: C_2  and  C_3
REMARK    3  A    between atoms: C_14  and  C_16
REMARK    4  A    between atoms: C_16  and  N_17
REMARK    5  A    between atoms: N_20  and  C_21
REMARK    6  A    between atoms: C_24  and  C_25
REMARK                            x       y       z     vdW  Elec       q    Type
REMARK                         _______ _______ _______ _____ _____    ______ ____
ROOT
ATOM      1  C   UNL     1      -1.097  10.973  19.516  0.00  0.00    +0.000 C 
ATOM      2  N   UNL     1      -1.465  10.117  18.608  0.00  0.00    +0.000 NA
ATOM      3  C   UNL     1      -2.345  10.438  17.566  0.00  0.00    +0.000 A 
ATOM      4  C   UNL     1      -2.038   9.822  16.344  0.00  0.00    +0.000 A 
ATOM      5  C   UNL     1      -2.868   9.957  15.238  0.00  0.00    +0.000 A 
ATOM      6  C   UNL     1      -4.041  10.692  15.351  0.00  0.00    +0.000 A 
ATOM      7  C   UNL     1      -4.359  11.314  16.565  0.00  0.00    +0.000 A 
ATOM      8  C   UNL     1      -3.515  11.233  17.682  0.00  0.00    +0.000 A 
ATOM      9  N   UNL     1      -3.957  11.887  18.860  0.00  0.00    +0.000 NA
ATOM     10  C   UNL     1      -3.114  12.378  19.718  0.00  0.00    +0.000 C 
ATOM     11  N   UNL     1      -3.685  12.834  20.874  0.00  0.00    +0.000 N 
ATOM     12  C   UNL     1      -3.093  12.717  22.123  0.00  0.00    +0.000 C 
ATOM     13  O   UNL     1      -2.068  12.085  22.327  0.00  0.00    +0.000 OA
ATOM     14  C   UNL     1      -1.584  12.429  19.501  0.00  0.00    +0.000 C 
ATOM     15  H   UNL     1      -4.692  12.921  20.844  0.00  0.00    +0.000 HD
ENDROOT
BRANCH  14  16
ATOM     16  C   UNL     1      -0.794  13.527  20.252  0.00  0.00    +0.000 A 
ATOM     17  C   UNL     1       0.472  13.282  20.798  0.00  0.00    +0.000 A 
ATOM     18  C   UNL     1       1.127  14.220  21.599  0.00  0.00    +0.000 A 
ATOM     19  C   UNL     1       0.570  15.473  21.804  0.00  0.00    +0.000 A 
ATOM     20  C   UNL     1      -0.625  15.797  21.174  0.00  0.00    +0.000 A 
ATOM     21  C   UNL     1      -1.281  14.848  20.381  0.00  0.00    +0.000 A 
ENDBRANCH  14  16
BRANCH   1  23
ATOM     22  C   UNL     1       0.990   9.581  19.986  0.00  0.00    +0.000 C 
ATOM     23  C   UNL     1      -0.138  10.420  20.568  0.00  0.00    +0.000 C 
ENDBRANCH   1  23
BRANCH  12  24
ATOM     24  C   UNL     1      -3.870  13.349  23.269  0.00  0.00    +0.000 C 
BRANCH  24  25
ATOM     25  N   UNL     1      -3.390  14.697  23.592  0.00  0.00    +0.000 NA
ATOM     26  C   UNL     1      -3.228  14.937  25.049  0.00  0.00    +0.000 C 
ATOM     27  C   UNL     1      -2.739  16.368  25.376  0.00  0.00    +0.000 C 
ATOM     28  N   UNL     1      -3.489  17.456  24.707  0.00  0.00    +0.000 NA
ATOM     29  C   UNL     1      -4.803  17.662  25.321  0.00  0.00    +0.000 C 
ATOM     30  C   UNL     1      -3.618  17.132  23.273  0.00  0.00    +0.000 C 
ATOM     31  C   UNL     1      -4.231  15.745  23.002  0.00  0.00    +0.000 C 
ENDBRANCH  24  25
ENDBRANCH  12  24
TORSDOF 4
ENDMDL
MODEL 6
REMARK VINA RESULT:      -6.3      2.771      5.064
REMARK  Name = 
REMARK  6 active torsions:
REMARK  status: ('A' for Active; 'I' for Inactive)
REMARK    1  A    between atoms: C_1  and  C_2
REMARK    2  A    between atoms: C_2  and  C_3
REMARK    3  A    between atoms: C_14  and  C_16
REMARK    4  A    between atoms: C_16  and  N_17
REMARK    5  A    between atoms: N_20  and  C_21
REMARK    6  A    between atoms: C_24  and  C_25
REMARK                            x       y       z     vdW  Elec       q    Type
REMARK                         _______ _______ _______ _____ _____    ______ ____
ROOT
ATOM      1  C   UNL     1      -0.353  10.687  18.520  0.00  0.00    +0.000 C 
ATOM      2  N   UNL     1      -1.059   9.975  17.692  0.00  0.00    +0.000 NA
ATOM      3  C   UNL     1      -2.211  10.458  17.056  0.00  0.00    +0.000 A 
ATOM      4  C   UNL     1      -2.370  10.012  15.736  0.00  0.00    +0.000 A 
ATOM      5  C   UNL     1      -3.509  10.319  15.001  0.00  0.00    +0.000 A 
ATOM      6  C   UNL     1      -4.524  11.057  15.594  0.00  0.00    +0.000 A 
ATOM      7  C   UNL     1      -4.378  11.512  16.911  0.00  0.00    +0.000 A 
ATOM      8  C   UNL     1      -3.219  11.256  17.658  0.00  0.00    +0.000 A 
ATOM      9  N   UNL     1      -3.198  11.750  18.987  0.00  0.00    +0.000 NA
ATOM     10  C   UNL     1      -2.087  12.097  19.563  0.00  0.00    +0.000 C 
ATOM     11  N   UNL     1      -2.209  12.401  20.891  0.00  0.00    +0.000 N 
ATOM     12  C   UNL     1      -1.247  12.096  21.842  0.00  0.00    +0.000 C 
ATOM     13  O   UNL     1      -0.258  11.418  21.608  0.00  0.00    +0.000 OA
ATOM     14  C   UNL     1      -0.716  12.142  18.851  0.00  0.00    +0.000 C 
ATOM     15  H   UNL     1      -3.161  12.515  21.214  0.00  0.00    +0.000 HD
ENDROOT
BRANCH  14  16
ATOM     16  C   UNL     1       0.351  13.105  19.419  0.00  0.00    +0.000 A 
ATOM     17  C   UNL     1       0.052  14.438  19.730  0.00  0.00    +0.000 A 
ATOM     18  C   UNL     1       1.040  15.351  20.106  0.00  0.00    +0.000 A 
ATOM     19  C   UNL     1       2.351  14.931  20.270  0.00  0.00    +0.000 A 
ATOM     20  C   UNL     1       2.663  13.589  20.095  0.00  0.00    +0.000 A 
ATOM     21  C   UNL     1       1.669  12.681  19.708  0.00  0.00    +0.000 A 
ENDBRANCH  14  16
BRANCH   1  23
ATOM     22  C   UNL     1       1.741   9.301  18.065  0.00  0.00    +0.000 C 
ATOM     23  C   UNL     1       0.860   9.970  19.110  0.00  0.00    +0.000 C 
ENDBRANCH   1  23
BRANCH  12  24
ATOM     24  C   UNL     1      -1.554  12.581  23.252  0.00  0.00    +0.000 C 
BRANCH  24  25
ATOM     25  N   UNL     1      -2.040  13.964  23.274  0.00  0.00    +0.000 NA
ATOM     26  C   UNL     1      -0.952  14.975  23.290  0.00  0.00    +0.000 C 
ATOM     27  C   UNL     1      -1.477  16.430  23.331  0.00  0.00    +0.000 C 
ATOM     28  N   UNL     1      -2.508  16.696  24.362  0.00  0.00    +0.000 NA
ATOM     29  C   UNL     1      -1.924  16.769  25.703  0.00  0.00    +0.000 C 
ATOM     30  C   UNL     1      -3.538  15.642  24.287  0.00  0.00    +0.000 C 
ATOM     31  C   UNL     1      -2.970  14.212  24.380  0.00  0.00    +0.000 C 
ENDBRANCH  24  25
ENDBRANCH  12  24
TORSDOF 4
ENDMDL
MODEL 7
REMARK VINA RESULT:      -6.3      2.960      5.085
REMARK  Name = 
REMARK  6 active torsions:
REMARK  status: ('A' for Active; 'I' for Inactive)
REMARK    1  A    between atoms: C_1  and  C_2
REMARK    2  A    between atoms: C_2  and  C_3
REMARK    3  A    between atoms: C_14  and  C_16
REMARK    4  A    between atoms: C_16  and  N_17
REMARK    5  A    between atoms: N_20  and  C_21
REMARK    6  A    between atoms: C_24  and  C_25
REMARK                            x       y       z     vdW  Elec       q    Type
REMARK                         _______ _______ _______ _____ _____    ______ ____
ROOT
ATOM      1  C   UNL     1      -0.197  10.924  19.407  0.00  0.00    +0.000 C 
ATOM      2  N   UNL     1      -0.913  10.113  18.686  0.00  0.00    +0.000 NA
ATOM      3  C   UNL     1      -1.996  10.537  17.905  0.00  0.00    +0.000 A 
ATOM      4  C   UNL     1      -2.125   9.860  16.684  0.00  0.00    +0.000 A 
ATOM      5  C   UNL     1      -3.204  10.092  15.838  0.00  0.00    +0.000 A 
ATOM      6  C   UNL     1      -4.190  10.991  16.223  0.00  0.00    +0.000 A 
ATOM      7  C   UNL     1      -4.073  11.677  17.438  0.00  0.00    +0.000 A 
ATOM      8  C   UNL     1      -2.971  11.496  18.287  0.00  0.00    +0.000 A 
ATOM      9  N   UNL     1      -2.977  12.230  19.500  0.00  0.00    +0.000 NA
ATOM     10  C   UNL     1      -1.872  12.610  20.066  0.00  0.00    +0.000 C 
ATOM     11  N   UNL     1      -2.033  13.167  21.305  0.00  0.00    +0.000 N 
ATOM     12  C   UNL     1      -1.141  12.990  22.351  0.00  0.00    +0.000 C 
ATOM     13  O   UNL     1      -0.193  12.220  22.306  0.00  0.00    +0.000 OA
ATOM     14  C   UNL     1      -0.469  12.435  19.440  0.00  0.00    +0.000 C 
ATOM     15  H   UNL     1      -2.988  13.399  21.544  0.00  0.00    +0.000 HD
ENDROOT
BRANCH  14  16
ATOM     16  C   UNL     1       0.637  13.421  19.882  0.00  0.00    +0.000 A 
ATOM     17  C   UNL     1       1.934  12.987  20.186  0.00  0.00    +0.000 A 
ATOM     18  C   UNL     1       2.895  13.846  20.723  0.00  0.00    +0.000 A 
ATOM     19  C   UNL     1       2.613  15.193  20.888  0.00  0.00    +0.000 A 
ATOM     20  C   UNL     1       1.380  15.685  20.479  0.00  0.00    +0.000 A 
ATOM     21  C   UNL     1       0.417  14.816  19.951  0.00  0.00    +0.000 A 
ENDBRANCH  14  16
BRANCH   1  23
ATOM     22  C   UNL     1       0.489   9.038  20.984  0.00  0.00    +0.000 C 
ATOM     23  C   UNL     1       0.933  10.259  20.191  0.00  0.00    +0.000 C 
ENDBRANCH   1  23
BRANCH  12  24
ATOM     24  C   UNL     1      -1.477  13.750  23.626  0.00  0.00    +0.000 C 
BRANCH  24  25
ATOM     25  N   UNL     1      -1.839  15.147  23.364  0.00  0.00    +0.000 NA
ATOM     26  C   UNL     1      -0.731  16.105  23.614  0.00  0.00    +0.000 C 
ATOM     27  C   UNL     1      -1.131  17.576  23.351  0.00  0.00    +0.000 C 
ATOM     28  N   UNL     1      -2.399  18.005  23.986  0.00  0.00    +0.000 NA
ATOM     29  C   UNL     1      -2.240  18.206  25.428  0.00  0.00    +0.000 C 
ATOM     30  C   UNL     1      -3.438  16.995  23.701  0.00  0.00    +0.000 C 
ATOM     31  C   UNL     1      -3.036  15.562  24.102  0.00  0.00    +0.000 C 
ENDBRANCH  24  25
ENDBRANCH  12  24
TORSDOF 4
ENDMDL
MODEL 8
REMARK VINA RESULT:      -6.3      3.106      7.156
REMARK  Name = 
REMARK  6 active torsions:
REMARK  status: ('A' for Active; 'I' for Inactive)
REMARK    1  A    between atoms: C_1  and  C_2
REMARK    2  A    between atoms: C_2  and  C_3
REMARK    3  A    between atoms: C_14  and  C_16
REMARK    4  A    between atoms: C_16  and  N_17
REMARK    5  A    between atoms: N_20  and  C_21
REMARK    6  A    between atoms: C_24  and  C_25
REMARK                            x       y       z     vdW  Elec       q    Type
REMARK                         _______ _______ _______ _____ _____    ______ ____
ROOT
ATOM      1  C   UNL     1       0.574  12.335  20.763  0.00  0.00    +0.000 C 
ATOM      2  N   UNL     1       1.284  13.247  21.360  0.00  0.00    +0.000 NA
ATOM      3  C   UNL     1       1.947  14.272  20.673  0.00  0.00    +0.000 A 
ATOM      4  C   UNL     1       1.946  15.506  21.339  0.00  0.00    +0.000 A 
ATOM      5  C   UNL     1       2.646  16.598  20.839  0.00  0.00    +0.000 A 
ATOM      6  C   UNL     1       3.385  16.458  19.672  0.00  0.00    +0.000 A 
ATOM      7  C   UNL     1       3.392  15.233  18.994  0.00  0.00    +0.000 A 
ATOM      8  C   UNL     1       2.657  14.129  19.452  0.00  0.00    +0.000 A 
ATOM      9  N   UNL     1       2.763  12.937  18.691  0.00  0.00    +0.000 NA
ATOM     10  C   UNL     1       1.784  12.086  18.628  0.00  0.00    +0.000 C 
ATOM     11  N   UNL     1       2.092  10.916  17.990  0.00  0.00    +0.000 N 
ATOM     12  C   UNL     1       1.599   9.678  18.373  0.00  0.00    +0.000 C 
ATOM     13  O   UNL     1       0.947   9.496  19.389  0.00  0.00    +0.000 OA
ATOM     14  C   UNL     1       0.384  12.324  19.239  0.00  0.00    +0.000 C 
ATOM     15  H   UNL     1       2.962  10.931  17.475  0.00  0.00    +0.000 HD
ENDROOT
BRANCH  14  16
ATOM     16  C   UNL     1      -0.809  11.573  18.604  0.00  0.00    +0.000 A 
ATOM     17  C   UNL     1      -1.471  10.538  19.276  0.00  0.00    +0.000 A 
ATOM     18  C   UNL     1      -2.451   9.759  18.656  0.00  0.00    +0.000 A 
ATOM     19  C   UNL     1      -2.863  10.055  17.366  0.00  0.00    +0.000 A 
ATOM     20  C   UNL     1      -2.319  11.154  16.713  0.00  0.00    +0.000 A 
ATOM     21  C   UNL     1      -1.330  11.923  17.337  0.00  0.00    +0.000 A 
ENDBRANCH  14  16
BRANCH   1  23
ATOM     22  C   UNL     1      -1.030  11.904  22.701  0.00  0.00    +0.000 C 
ATOM     23  C   UNL     1      -0.059  11.303  21.694  0.00  0.00    +0.000 C 
ENDBRANCH   1  23
BRANCH  12  24
ATOM     24  C   UNL     1       2.016   8.512  17.487  0.00  0.00    +0.000 C 
BRANCH  24  25
ATOM     25  N   UNL     1       3.011   7.649  18.132  0.00  0.00    +0.000 NA
ATOM     26  C   UNL     1       4.082   7.187  17.212  0.00  0.00    +0.000 C 
ATOM     27  C   UNL     1       5.115   6.263  17.900  0.00  0.00    +0.000 C 
ATOM     28  N   UNL     1       4.535   5.153  18.691  0.00  0.00    +0.000 NA
ATOM     29  C   UNL     1       4.017   4.089  17.827  0.00  0.00    +0.000 C 
ATOM     30  C   UNL     1       3.473   5.694  19.563  0.00  0.00    +0.000 C 
ATOM     31  C   UNL     1       2.399   6.499  18.806  0.00  0.00    +0.000 C 
ENDBRANCH  24  25
ENDBRANCH  12  24
TORSDOF 4
ENDMDL
MODEL 9
REMARK VINA RESULT:      -6.2      3.261      5.417
REMARK  Name = 
REMARK  6 active torsions:
REMARK  status: ('A' for Active; 'I' for Inactive)
REMARK    1  A    between atoms: C_1  and  C_2
REMARK    2  A    between atoms: C_2  and  C_3
REMARK    3  A    between atoms: C_14  and  C_16
REMARK    4  A    between atoms: C_16  and  N_17
REMARK    5  A    between atoms: N_20  and  C_21
REMARK    6  A    between atoms: C_24  and  C_25
REMARK                            x       y       z     vdW  Elec       q    Type
REMARK                         _______ _______ _______ _____ _____    ______ ____
ROOT
ATOM      1  C   UNL     1      -0.540  11.169  19.767  0.00  0.00    +0.000 C 
ATOM      2  N   UNL     1      -1.075  10.274  18.991  0.00  0.00    +0.000 NA
ATOM      3  C   UNL     1      -2.063  10.573  18.043  0.00  0.00    +0.000 A 
ATOM      4  C   UNL     1      -1.957   9.844  16.850  0.00  0.00    +0.000 A 
ATOM      5  C   UNL     1      -2.916   9.951  15.850  0.00  0.00    +0.000 A 
ATOM      6  C   UNL     1      -4.017  10.773  16.046  0.00  0.00    +0.000 A 
ATOM      7  C   UNL     1      -4.135  11.510  17.231  0.00  0.00    +0.000 A 
ATOM      8  C   UNL     1      -3.158  11.456  18.236  0.00  0.00    +0.000 A 
ATOM      9  N   UNL     1      -3.401  12.230  19.400  0.00  0.00    +0.000 NA
ATOM     10  C   UNL     1      -2.425  12.725  20.099  0.00  0.00    +0.000 C 
ATOM     11  N   UNL     1      -2.810  13.310  21.274  0.00  0.00    +0.000 N 
ATOM     12  C   UNL     1      -2.069  13.249  22.443  0.00  0.00    +0.000 C 
ATOM     13  O   UNL     1      -1.066  12.563  22.571  0.00  0.00    +0.000 OA
ATOM     14  C   UNL     1      -0.936  12.651  19.688  0.00  0.00    +0.000 C 
ATOM     15  H   UNL     1      -3.806  13.466  21.363  0.00  0.00    +0.000 HD
ENDROOT
BRANCH  14  16
ATOM     16  C   UNL     1       0.010  13.745  20.235  0.00  0.00    +0.000 A 
ATOM     17  C   UNL     1      -0.264  15.108  20.069  0.00  0.00    +0.000 A 
ATOM     18  C   UNL     1       0.652  16.098  20.431  0.00  0.00    +0.000 A 
ATOM     19  C   UNL     1       1.840  15.753  21.057  0.00  0.00    +0.000 A 
ATOM     20  C   UNL     1       2.090  14.419  21.354  0.00  0.00    +0.000 A 
ATOM     21  C   UNL     1       1.171  13.431  20.979  0.00  0.00    +0.000 A 
ENDBRANCH  14  16
BRANCH   1  23
ATOM     22  C   UNL     1       0.090   9.361  21.454  0.00  0.00    +0.000 C 
ATOM     23  C   UNL     1       0.513  10.634  20.735  0.00  0.00    +0.000 C 
ENDBRANCH   1  23
BRANCH  12  24
ATOM     24  C   UNL     1      -2.648  14.022  23.619  0.00  0.00    +0.000 C 
BRANCH  24  25
ATOM     25  N   UNL     1      -1.634  14.815  24.321  0.00  0.00    +0.000 NA
ATOM     26  C   UNL     1      -2.040  15.222  25.690  0.00  0.00    +0.000 C 
ATOM     27  C   UNL     1      -0.968  16.073  26.412  0.00  0.00    +0.000 C 
ATOM     28  N   UNL     1      -0.432  17.207  25.624  0.00  0.00    +0.000 NA
ATOM     29  C   UNL     1      -1.392  18.311  25.545  0.00  0.00    +0.000 C 
ATOM     30  C   UNL     1      -0.068  16.721  24.279  0.00  0.00    +0.000 C 
ATOM     31  C   UNL     1      -1.215  15.992  23.552  0.00  0.00    +0.000 C 
ENDBRANCH  24  25
ENDBRANCH  12  24
TORSDOF 4
ENDMDL
