MODEL 1
REMARK VINA RESULT:      -8.0      0.000      0.000
REMARK  Name = 
REMARK  6 active torsions:
REMARK  status: ('A' for Active; 'I' for Inactive)
REMARK    1  A    between atoms: C_1  and  N_2
REMARK    2  A    between atoms: N_5  and  C_6
REMARK    3  A    between atoms: C_6  and  C_7
REMARK    4  A    between atoms: C_7  and  N_8
REMARK    5  A    between atoms: N_11  and  C_12
REMARK    6  A    between atoms: C_17  and  C_18
REMARK                            x       y       z     vdW  Elec       q    Type
REMARK                         _______ _______ _______ _____ _____    ______ ____
ROOT
ATOM      1  N   UNL     1       2.907   6.473  20.130  0.00  0.00    +0.000 N 
ATOM      2  C   UNL     1       1.756   7.088  20.593  0.00  0.00    +0.000 C 
ATOM      3  O   UNL     1       0.701   6.498  20.765  0.00  0.00    +0.000 OA
ATOM      4  N   UNL     1       1.961   8.448  20.765  0.00  0.00    +0.000 N 
ATOM      5  H   UNL     1       3.775   6.826  20.511  0.00  0.00    +0.000 HD
ATOM      6  H   UNL     1       2.604   8.835  20.087  0.00  0.00    +0.000 HD
ENDROOT
BRANCH   4   7
ATOM      7  C   UNL     1       0.929   9.285  21.258  0.00  0.00    +0.000 A 
ATOM      8  C   UNL     1       0.549   9.123  22.599  0.00  0.00    +0.000 A 
ATOM      9  C   UNL     1      -0.413   9.947  23.180  0.00  0.00    +0.000 A 
ATOM     10  C   UNL     1      -1.014  10.944  22.422  0.00  0.00    +0.000 A 
ATOM     11  C   UNL     1      -0.653  11.110  21.084  0.00  0.00    +0.000 A 
ATOM     12  C   UNL     1       0.320  10.283  20.481  0.00  0.00    +0.000 A 
BRANCH  12  13
ATOM     13  C   UNL     1       0.552  10.459  18.998  0.00  0.00    +0.000 C 
ATOM     14  F   UNL     1       1.864  10.624  18.653  0.00  0.00    +0.000 F 
ATOM     15  F   UNL     1       0.106   9.388  18.274  0.00  0.00    +0.000 F 
ATOM     16  F   UNL     1      -0.092  11.537  18.489  0.00  0.00    +0.000 F 
ENDBRANCH  12  13
ENDBRANCH   4   7
BRANCH   1  17
ATOM     17  C   UNL     1       2.876   5.046  19.838  0.00  0.00    +0.000 C 
BRANCH  17  18
ATOM     18  C   UNL     1       3.909   4.562  18.743  0.00  0.00    +0.000 C 
ATOM     19  C   UNL     1       3.122   4.211  17.450  0.00  0.00    +0.000 C 
ATOM     20  C   UNL     1       2.574   2.802  17.629  0.00  0.00    +0.000 C 
ATOM     21  C   UNL     1       3.488   2.111  18.625  0.00  0.00    +0.000 C 
ATOM     22  C   UNL     1       4.432   3.173  19.190  0.00  0.00    +0.000 C 
BRANCH  18  27
ATOM     23  C   UNL     1       6.880   4.591  14.792  0.00  0.00    +0.000 C 
ATOM     24  N   UNL     1       6.603   5.368  15.999  0.00  0.00    +0.000 NA
ATOM     25  C   UNL     1       6.838   4.553  17.203  0.00  0.00    +0.000 C 
ATOM     26  C   UNL     1       6.345   5.223  18.504  0.00  0.00    +0.000 C 
ATOM     27  N   UNL     1       4.924   5.641  18.504  0.00  0.00    +0.000 NA
ATOM     28  C   UNL     1       4.758   6.511  17.313  0.00  0.00    +0.000 C 
ATOM     29  C   UNL     1       5.249   5.946  15.956  0.00  0.00    +0.000 C 
ENDBRANCH  18  27
ENDBRANCH  17  18
ENDBRANCH   1  17
TORSDOF 5
ENDMDL
MODEL 2
REMARK VINA RESULT:      -7.8      2.873      8.447
REMARK  Name = 
REMARK  6 active torsions:
REMARK  status: ('A' for Active; 'I' for Inactive)
REMARK    1  A    between atoms: C_1  and  N_2
REMARK    2  A    between atoms: N_5  and  C_6
REMARK    3  A    between atoms: C_6  and  C_7
REMARK    4  A    between atoms: C_7  and  N_8
REMARK    5  A    between atoms: N_11  and  C_12
REMARK    6  A    between atoms: C_17  and  C_18
REMARK                            x       y       z     vdW  Elec       q    Type
REMARK                         _______ _______ _______ _____ _____    ______ ____
ROOT
ATOM      1  N   UNL     1       1.640   8.935  18.885  0.00  0.00    +0.000 N 
ATOM      2  C   UNL     1       2.438   8.177  18.047  0.00  0.00    +0.000 C 
ATOM      3  O   UNL     1       2.812   8.557  16.948  0.00  0.00    +0.000 OA
ATOM      4  N   UNL     1       2.689   6.931  18.601  0.00  0.00    +0.000 N 
ATOM      5  H   UNL     1       1.822   8.832  19.875  0.00  0.00    +0.000 HD
ATOM      6  H   UNL     1       1.913   6.584  19.149  0.00  0.00    +0.000 HD
ENDROOT
BRANCH   4   7
ATOM      7  C   UNL     1       3.509   5.987  17.934  0.00  0.00    +0.000 A 
ATOM      8  C   UNL     1       4.790   6.405  17.541  0.00  0.00    +0.000 A 
ATOM      9  C   UNL     1       5.682   5.522  16.936  0.00  0.00    +0.000 A 
ATOM     10  C   UNL     1       5.301   4.205  16.710  0.00  0.00    +0.000 A 
ATOM     11  C   UNL     1       4.026   3.778  17.086  0.00  0.00    +0.000 A 
ATOM     12  C   UNL     1       3.110   4.662  17.700  0.00  0.00    +0.000 A 
BRANCH  12  13
ATOM     13  C   UNL     1       1.715   4.141  17.956  0.00  0.00    +0.000 C 
ATOM     14  F   UNL     1       1.580   2.793  17.777  0.00  0.00    +0.000 F 
ATOM     15  F   UNL     1       1.294   4.394  19.231  0.00  0.00    +0.000 F 
ATOM     16  F   UNL     1       0.786   4.705  17.147  0.00  0.00    +0.000 F 
ENDBRANCH  12  13
ENDBRANCH   4   7
BRANCH   1  17
ATOM     17  C   UNL     1       1.223  10.264  18.453  0.00  0.00    +0.000 C 
BRANCH  17  18
ATOM     18  C   UNL     1       0.173  10.978  19.396  0.00  0.00    +0.000 C 
ATOM     19  C   UNL     1      -1.068  10.053  19.534  0.00  0.00    +0.000 C 
ATOM     20  C   UNL     1      -1.937  10.284  18.306  0.00  0.00    +0.000 C 
ATOM     21  C   UNL     1      -1.611  11.681  17.809  0.00  0.00    +0.000 C 
ATOM     22  C   UNL     1      -0.406  12.179  18.606  0.00  0.00    +0.000 C 
BRANCH  18  27
ATOM     23  C   UNL     1      -2.467  12.077  23.427  0.00  0.00    +0.000 C 
ATOM     24  N   UNL     1      -1.078  11.918  22.999  0.00  0.00    +0.000 NA
ATOM     25  C   UNL     1      -0.752  12.884  21.937  0.00  0.00    +0.000 C 
ATOM     26  C   UNL     1       0.617  12.626  21.271  0.00  0.00    +0.000 C 
ATOM     27  N   UNL     1       0.809  11.262  20.724  0.00  0.00    +0.000 NA
ATOM     28  C   UNL     1       0.535  10.333  21.848  0.00  0.00    +0.000 C 
ATOM     29  C   UNL     1      -0.802  10.525  22.609  0.00  0.00    +0.000 C 
ENDBRANCH  18  27
ENDBRANCH  17  18
ENDBRANCH   1  17
TORSDOF 5
ENDMDL
MODEL 3
REMARK VINA RESULT:      -7.7      2.287      4.060
REMARK  Name = 
REMARK  6 active torsions:
REMARK  status: ('A' for Active; 'I' for Inactive)
REMARK    1  A    between atoms: C_1  and  N_2
REMARK    2  A    between atoms: N_5  and  C_6
REMARK    3  A    between atoms: C_6  and  C_7
REMARK    4  A    between atoms: C_7  and  N_8
REMARK    5  A    between atoms: N_11  and  C_12
REMARK    6  A    between atoms: C_17  and  C_18
REMARK                            x       y       z     vdW  Elec       q    Type
REMARK                         _______ _______ _______ _____ _____    ______ ____
ROOT
ATOM      1  N   UNL     1       2.915   6.884  18.671  0.00  0.00    +0.000 N 
ATOM      2  C   UNL     1       2.211   8.062  18.493  0.00  0.00    +0.000 C 
ATOM      3  O   UNL     1       2.064   8.600  17.407  0.00  0.00    +0.000 OA
ATOM      4  N   UNL     1       1.766   8.556  19.709  0.00  0.00    +0.000 N 
ATOM      5  H   UNL     1       2.559   6.264  19.387  0.00  0.00    +0.000 HD
ATOM      6  H   UNL     1       2.405   8.360  20.468  0.00  0.00    +0.000 HD
ENDROOT
BRANCH   4   7
ATOM      7  C   UNL     1       0.996   9.744  19.776  0.00  0.00    +0.000 A 
ATOM      8  C   UNL     1       1.208  10.709  18.780  0.00  0.00    +0.000 A 
ATOM      9  C   UNL     1       0.450  11.878  18.736  0.00  0.00    +0.000 A 
ATOM     10  C   UNL     1      -0.532  12.099  19.694  0.00  0.00    +0.000 A 
ATOM     11  C   UNL     1      -0.747  11.152  20.697  0.00  0.00    +0.000 A 
ATOM     12  C   UNL     1       0.014   9.963  20.756  0.00  0.00    +0.000 A 
BRANCH  12  13
ATOM     13  C   UNL     1      -0.206   9.060  21.947  0.00  0.00    +0.000 C 
ATOM     14  F   UNL     1      -0.735   7.839  21.634  0.00  0.00    +0.000 F 
ATOM     15  F   UNL     1       0.953   8.804  22.624  0.00  0.00    +0.000 F 
ATOM     16  F   UNL     1      -1.052   9.593  22.861  0.00  0.00    +0.000 F 
ENDBRANCH  12  13
ENDBRANCH   4   7
BRANCH   1  17
ATOM     17  C   UNL     1       3.510   6.234  17.509  0.00  0.00    +0.000 C 
BRANCH  17  18
ATOM     18  C   UNL     1       4.069   4.777  17.767  0.00  0.00    +0.000 C 
ATOM     19  C   UNL     1       4.606   4.710  19.223  0.00  0.00    +0.000 C 
ATOM     20  C   UNL     1       6.009   5.301  19.210  0.00  0.00    +0.000 C 
ATOM     21  C   UNL     1       6.533   5.123  17.796  0.00  0.00    +0.000 C 
ATOM     22  C   UNL     1       5.369   4.633  16.937  0.00  0.00    +0.000 C 
BRANCH  18  27
ATOM     23  C   UNL     1       1.550   2.657  21.454  0.00  0.00    +0.000 C 
ATOM     24  N   UNL     1       1.632   2.646  19.995  0.00  0.00    +0.000 NA
ATOM     25  C   UNL     1       2.972   2.219  19.557  0.00  0.00    +0.000 C 
ATOM     26  C   UNL     1       3.212   2.406  18.043  0.00  0.00    +0.000 C 
ATOM     27  N   UNL     1       2.978   3.776  17.528  0.00  0.00    +0.000 NA
ATOM     28  C   UNL     1       1.596   4.130  17.937  0.00  0.00    +0.000 C 
ATOM     29  C   UNL     1       1.237   3.950  19.434  0.00  0.00    +0.000 C 
ENDBRANCH  18  27
ENDBRANCH  17  18
ENDBRANCH   1  17
TORSDOF 5
ENDMDL
MODEL 4
REMARK VINA RESULT:      -7.7      2.318      2.845
REMARK  Name = 
REMARK  6 active torsions:
REMARK  status: ('A' for Active; 'I' for Inactive)
REMARK    1  A    between atoms: C_1  and  N_2
REMARK    2  A    between atoms: N_5  and  C_6
REMARK    3  A    between atoms: C_6  and  C_7
REMARK    4  A    between atoms: C_7  and  N_8
REMARK    5  A    between atoms: N_11  and  C_12
REMARK    6  A    between atoms: C_17  and  C_18
REMARK                            x       y       z     vdW  Elec       q    Type
REMARK                         _______ _______ _______ _____ _____    ______ ____
ROOT
ATOM      1  N   UNL     1       1.998   7.826  18.770  0.00  0.00    +0.000 N 
ATOM      2  C   UNL     1       1.746   9.125  18.364  0.00  0.00    +0.000 C 
ATOM      3  O   UNL     1       2.080   9.566  17.276  0.00  0.00    +0.000 OA
ATOM      4  N   UNL     1       1.131   9.846  19.376  0.00  0.00    +0.000 N 
ATOM      5  H   UNL     1       1.288   7.404  19.354  0.00  0.00    +0.000 HD
ATOM      6  H   UNL     1       1.440   9.566  20.298  0.00  0.00    +0.000 HD
ENDROOT
BRANCH   4   7
ATOM      7  C   UNL     1       0.751  11.197  19.182  0.00  0.00    +0.000 A 
ATOM      8  C   UNL     1       1.641  12.189  19.624  0.00  0.00    +0.000 A 
ATOM      9  C   UNL     1       1.373  13.541  19.416  0.00  0.00    +0.000 A 
ATOM     10  C   UNL     1       0.206  13.920  18.765  0.00  0.00    +0.000 A 
ATOM     11  C   UNL     1      -0.693  12.944  18.330  0.00  0.00    +0.000 A 
ATOM     12  C   UNL     1      -0.437  11.570  18.534  0.00  0.00    +0.000 A 
BRANCH  12  13
ATOM     13  C   UNL     1      -1.525  10.599  18.139  0.00  0.00    +0.000 C 
ATOM     14  F   UNL     1      -1.885   9.730  19.130  0.00  0.00    +0.000 F 
ATOM     15  F   UNL     1      -2.674  11.235  17.761  0.00  0.00    +0.000 F 
ATOM     16  F   UNL     1      -1.177   9.819  17.087  0.00  0.00    +0.000 F 
ENDBRANCH  12  13
ENDBRANCH   4   7
BRANCH   1  17
ATOM     17  C   UNL     1       2.689   6.922  17.859  0.00  0.00    +0.000 C 
BRANCH  17  18
ATOM     18  C   UNL     1       3.396   5.686  18.547  0.00  0.00    +0.000 C 
ATOM     19  C   UNL     1       2.831   4.385  17.913  0.00  0.00    +0.000 C 
ATOM     20  C   UNL     1       1.511   4.085  18.610  0.00  0.00    +0.000 C 
ATOM     21  C   UNL     1       1.592   4.740  19.977  0.00  0.00    +0.000 C 
ATOM     22  C   UNL     1       2.855   5.599  19.997  0.00  0.00    +0.000 C 
BRANCH  18  27
ATOM     23  C   UNL     1       5.673   4.323  14.377  0.00  0.00    +0.000 C 
ATOM     24  N   UNL     1       5.976   4.865  15.700  0.00  0.00    +0.000 NA
ATOM     25  C   UNL     1       5.549   3.928  16.753  0.00  0.00    +0.000 C 
ATOM     26  C   UNL     1       5.620   4.527  18.174  0.00  0.00    +0.000 C 
ATOM     27  N   UNL     1       4.881   5.797  18.365  0.00  0.00    +0.000 NA
ATOM     28  C   UNL     1       5.395   6.724  17.327  0.00  0.00    +0.000 C 
ATOM     29  C   UNL     1       5.398   6.210  15.865  0.00  0.00    +0.000 C 
ENDBRANCH  18  27
ENDBRANCH  17  18
ENDBRANCH   1  17
TORSDOF 5
ENDMDL
MODEL 5
REMARK VINA RESULT:      -7.6      1.647      2.397
REMARK  Name = 
REMARK  6 active torsions:
REMARK  status: ('A' for Active; 'I' for Inactive)
REMARK    1  A    between atoms: C_1  and  N_2
REMARK    2  A    between atoms: N_5  and  C_6
REMARK    3  A    between atoms: C_6  and  C_7
REMARK    4  A    between atoms: C_7  and  N_8
REMARK    5  A    between atoms: N_11  and  C_12
REMARK    6  A    between atoms: C_17  and  C_18
REMARK                            x       y       z     vdW  Elec       q    Type
REMARK                         _______ _______ _______ _____ _____    ______ ____
ROOT
ATOM      1  N   UNL     1       0.936   6.547  20.773  0.00  0.00    +0.000 N 
ATOM      2  C   UNL     1       0.947   7.901  21.062  0.00  0.00    +0.000 C 
ATOM      3  O   UNL     1       1.970   8.538  21.258  0.00  0.00    +0.000 OA
ATOM      4  N   UNL     1      -0.345   8.395  21.153  0.00  0.00    +0.000 N 
ATOM      5  H   UNL     1       0.214   6.242  20.133  0.00  0.00    +0.000 HD
ATOM      6  H   UNL     1      -0.996   7.717  21.528  0.00  0.00    +0.000 HD
ENDROOT
BRANCH   4   7
ATOM      7  C   UNL     1      -0.585   9.766  21.416  0.00  0.00    +0.000 A 
ATOM      8  C   UNL     1      -0.748  10.149  22.756  0.00  0.00    +0.000 A 
ATOM      9  C   UNL     1      -0.925  11.487  23.106  0.00  0.00    +0.000 A 
ATOM     10  C   UNL     1      -0.947  12.461  22.117  0.00  0.00    +0.000 A 
ATOM     11  C   UNL     1      -0.797  12.093  20.778  0.00  0.00    +0.000 A 
ATOM     12  C   UNL     1      -0.617  10.742  20.407  0.00  0.00    +0.000 A 
BRANCH  12  13
ATOM     13  C   UNL     1      -0.588  10.431  18.929  0.00  0.00    +0.000 C 
ATOM     14  F   UNL     1      -1.621   9.643  18.503  0.00  0.00    +0.000 F 
ATOM     15  F   UNL     1      -0.636  11.560  18.160  0.00  0.00    +0.000 F 
ATOM     16  F   UNL     1       0.539   9.780  18.550  0.00  0.00    +0.000 F 
ENDBRANCH  12  13
ENDBRANCH   4   7
BRANCH   1  17
ATOM     17  C   UNL     1       2.203   5.833  20.686  0.00  0.00    +0.000 C 
BRANCH  17  18
ATOM     18  C   UNL     1       2.183   4.537  19.779  0.00  0.00    +0.000 C 
ATOM     19  C   UNL     1       0.905   3.723  20.118  0.00  0.00    +0.000 C 
ATOM     20  C   UNL     1       1.213   2.907  21.366  0.00  0.00    +0.000 C 
ATOM     21  C   UNL     1       2.719   2.720  21.393  0.00  0.00    +0.000 C 
ATOM     22  C   UNL     1       3.308   3.603  20.293  0.00  0.00    +0.000 C 
BRANCH  18  27
ATOM     23  C   UNL     1       6.361   4.565  17.138  0.00  0.00    +0.000 C 
ATOM     24  N   UNL     1       4.938   4.866  16.997  0.00  0.00    +0.000 NA
ATOM     25  C   UNL     1       4.542   5.936  17.928  0.00  0.00    +0.000 C 
ATOM     26  C   UNL     1       3.014   6.148  18.007  0.00  0.00    +0.000 C 
ATOM     27  N   UNL     1       2.222   4.940  18.334  0.00  0.00    +0.000 NA
ATOM     28  C   UNL     1       2.608   3.919  17.330  0.00  0.00    +0.000 C 
ATOM     29  C   UNL     1       4.123   3.649  17.147  0.00  0.00    +0.000 C 
ENDBRANCH  18  27
ENDBRANCH  17  18
ENDBRANCH   1  17
TORSDOF 5
ENDMDL
MODEL 6
REMARK VINA RESULT:      -7.6      0.929      1.228
REMARK  Name = 
REMARK  6 active torsions:
REMARK  status: ('A' for Active; 'I' for Inactive)
REMARK    1  A    between atoms: C_1  and  N_2
REMARK    2  A    between atoms: N_5  and  C_6
REMARK    3  A    between atoms: C_6  and  C_7
REMARK    4  A    between atoms: C_7  and  N_8
REMARK    5  A    between atoms: N_11  and  C_12
REMARK    6  A    between atoms: C_17  and  C_18
REMARK                            x       y       z     vdW  Elec       q    Type
REMARK                         _______ _______ _______ _____ _____    ______ ____
ROOT
ATOM      1  N   UNL     1       2.280   7.037  20.539  0.00  0.00    +0.000 N 
ATOM      2  C   UNL     1       1.144   7.742  20.899  0.00  0.00    +0.000 C 
ATOM      3  O   UNL     1       0.059   7.216  21.089  0.00  0.00    +0.000 OA
ATOM      4  N   UNL     1       1.405   9.102  20.949  0.00  0.00    +0.000 N 
ATOM      5  H   UNL     1       3.151   7.388  20.916  0.00  0.00    +0.000 HD
ATOM      6  H   UNL     1       2.086   9.395  20.261  0.00  0.00    +0.000 HD
ENDROOT
BRANCH   4   7
ATOM      7  C   UNL     1       0.397  10.025  21.323  0.00  0.00    +0.000 A 
ATOM      8  C   UNL     1      -0.075   9.969  22.643  0.00  0.00    +0.000 A 
ATOM      9  C   UNL     1      -1.020  10.881  23.110  0.00  0.00    +0.000 A 
ATOM     10  C   UNL     1      -1.512  11.861  22.257  0.00  0.00    +0.000 A 
ATOM     11  C   UNL     1      -1.059  11.922  20.937  0.00  0.00    +0.000 A 
ATOM     12  C   UNL     1      -0.102  11.005  20.449  0.00  0.00    +0.000 A 
BRANCH  12  13
ATOM     13  C   UNL     1       0.231  11.073  18.977  0.00  0.00    +0.000 C 
ATOM     14  F   UNL     1      -0.456  12.036  18.292  0.00  0.00    +0.000 F 
ATOM     15  F   UNL     1       1.556  11.330  18.758  0.00  0.00    +0.000 F 
ATOM     16  F   UNL     1      -0.028   9.914  18.325  0.00  0.00    +0.000 F 
ENDBRANCH  12  13
ENDBRANCH   4   7
BRANCH   1  17
ATOM     17  C   UNL     1       2.194   5.590  20.383  0.00  0.00    +0.000 C 
BRANCH  17  18
ATOM     18  C   UNL     1       3.089   4.986  19.228  0.00  0.00    +0.000 C 
ATOM     19  C   UNL     1       2.189   4.753  17.983  0.00  0.00    +0.000 C 
ATOM     20  C   UNL     1       1.471   3.426  18.193  0.00  0.00    +0.000 C 
ATOM     21  C   UNL     1       2.343   2.613  19.132  0.00  0.00    +0.000 C 
ATOM     22  C   UNL     1       3.449   3.536  19.641  0.00  0.00    +0.000 C 
BRANCH  18  27
ATOM     23  C   UNL     1       6.435   4.086  15.703  0.00  0.00    +0.000 C 
ATOM     24  N   UNL     1       6.113   5.084  16.721  0.00  0.00    +0.000 NA
ATOM     25  C   UNL     1       6.145   4.479  18.064  0.00  0.00    +0.000 C 
ATOM     26  C   UNL     1       5.588   5.406  19.167  0.00  0.00    +0.000 C 
ATOM     27  N   UNL     1       4.221   5.924  18.931  0.00  0.00    +0.000 NA
ATOM     28  C   UNL     1       4.261   6.579  17.600  0.00  0.00    +0.000 C 
ATOM     29  C   UNL     1       4.831   5.747  16.423  0.00  0.00    +0.000 C 
ENDBRANCH  18  27
ENDBRANCH  17  18
ENDBRANCH   1  17
TORSDOF 5
ENDMDL
MODEL 7
REMARK VINA RESULT:      -7.6      1.760      2.382
REMARK  Name = 
REMARK  6 active torsions:
REMARK  status: ('A' for Active; 'I' for Inactive)
REMARK    1  A    between atoms: C_1  and  N_2
REMARK    2  A    between atoms: N_5  and  C_6
REMARK    3  A    between atoms: C_6  and  C_7
REMARK    4  A    between atoms: C_7  and  N_8
REMARK    5  A    between atoms: N_11  and  C_12
REMARK    6  A    between atoms: C_17  and  C_18
REMARK                            x       y       z     vdW  Elec       q    Type
REMARK                         _______ _______ _______ _____ _____    ______ ____
ROOT
ATOM      1  N   UNL     1       2.614   5.724  20.785  0.00  0.00    +0.000 N 
ATOM      2  C   UNL     1       1.839   6.649  20.108  0.00  0.00    +0.000 C 
ATOM      3  O   UNL     1       1.224   6.391  19.085  0.00  0.00    +0.000 OA
ATOM      4  N   UNL     1       1.916   7.893  20.716  0.00  0.00    +0.000 N 
ATOM      5  H   UNL     1       2.623   5.812  21.793  0.00  0.00    +0.000 HD
ATOM      6  H   UNL     1       2.824   8.071  21.125  0.00  0.00    +0.000 HD
ENDROOT
BRANCH   4   7
ATOM      7  C   UNL     1       1.182   8.996  20.214  0.00  0.00    +0.000 A 
ATOM      8  C   UNL     1       1.468   9.423  18.908  0.00  0.00    +0.000 A 
ATOM      9  C   UNL     1       0.750  10.461  18.316  0.00  0.00    +0.000 A 
ATOM     10  C   UNL     1      -0.264  11.090  19.027  0.00  0.00    +0.000 A 
ATOM     11  C   UNL     1      -0.552  10.683  20.331  0.00  0.00    +0.000 A 
ATOM     12  C   UNL     1       0.168   9.634  20.945  0.00  0.00    +0.000 A 
BRANCH  12  13
ATOM     13  C   UNL     1      -0.133   9.349  22.398  0.00  0.00    +0.000 C 
ATOM     14  F   UNL     1      -0.927  10.285  22.999  0.00  0.00    +0.000 F 
ATOM     15  F   UNL     1      -0.768   8.152  22.571  0.00  0.00    +0.000 F 
ATOM     16  F   UNL     1       0.984   9.283  23.163  0.00  0.00    +0.000 F 
ENDBRANCH  12  13
ENDBRANCH   4   7
BRANCH   1  17
ATOM     17  C   UNL     1       2.704   4.363  20.268  0.00  0.00    +0.000 C 
BRANCH  17  18
ATOM     18  C   UNL     1       3.751   4.156  19.101  0.00  0.00    +0.000 C 
ATOM     19  C   UNL     1       2.971   3.856  17.792  0.00  0.00    +0.000 C 
ATOM     20  C   UNL     1       2.620   2.375  17.810  0.00  0.00    +0.000 C 
ATOM     21  C   UNL     1       3.652   1.702  18.696  0.00  0.00    +0.000 C 
ATOM     22  C   UNL     1       4.468   2.807  19.366  0.00  0.00    +0.000 C 
BRANCH  18  27
ATOM     23  C   UNL     1       7.060   4.729  15.474  0.00  0.00    +0.000 C 
ATOM     24  N   UNL     1       6.548   5.427  16.651  0.00  0.00    +0.000 NA
ATOM     25  C   UNL     1       6.785   4.630  17.867  0.00  0.00    +0.000 C 
ATOM     26  C   UNL     1       6.067   5.187  19.116  0.00  0.00    +0.000 C 
ATOM     27  N   UNL     1       4.606   5.382  18.975  0.00  0.00    +0.000 NA
ATOM     28  C   UNL     1       4.427   6.243  17.779  0.00  0.00    +0.000 C 
ATOM     29  C   UNL     1       5.132   5.792  16.475  0.00  0.00    +0.000 C 
ENDBRANCH  18  27
ENDBRANCH  17  18
ENDBRANCH   1  17
TORSDOF 5
ENDMDL
MODEL 8
REMARK VINA RESULT:      -7.5      2.200      2.713
REMARK  Name = 
REMARK  6 active torsions:
REMARK  status: ('A' for Active; 'I' for Inactive)
REMARK    1  A    between atoms: C_1  and  N_2
REMARK    2  A    between atoms: N_5  and  C_6
REMARK    3  A    between atoms: C_6  and  C_7
REMARK    4  A    between atoms: C_7  and  N_8
REMARK    5  A    between atoms: N_11  and  C_12
REMARK    6  A    between atoms: C_17  and  C_18
REMARK                            x       y       z     vdW  Elec       q    Type
REMARK                         _______ _______ _______ _____ _____    ______ ____
ROOT
ATOM      1  N   UNL     1       2.229   7.520  19.500  0.00  0.00    +0.000 N 
ATOM      2  C   UNL     1       1.576   8.734  19.386  0.00  0.00    +0.000 C 
ATOM      3  O   UNL     1       1.238   9.218  18.317  0.00  0.00    +0.000 OA
ATOM      4  N   UNL     1       1.424   9.330  20.628  0.00  0.00    +0.000 N 
ATOM      5  H   UNL     1       1.993   6.970  20.317  0.00  0.00    +0.000 HD
ATOM      6  H   UNL     1       2.195   9.132  21.253  0.00  0.00    +0.000 HD
ENDROOT
BRANCH   4   7
ATOM      7  C   UNL     1       0.757  10.573  20.765  0.00  0.00    +0.000 A 
ATOM      8  C   UNL     1       1.086  11.587  19.852  0.00  0.00    +0.000 A 
ATOM      9  C   UNL     1       0.433  12.818  19.877  0.00  0.00    +0.000 A 
ATOM     10  C   UNL     1      -0.557  13.053  20.823  0.00  0.00    +0.000 A 
ATOM     11  C   UNL     1      -0.887  12.058  21.744  0.00  0.00    +0.000 A 
ATOM     12  C   UNL     1      -0.234  10.805  21.732  0.00  0.00    +0.000 A 
BRANCH  12  13
ATOM     13  C   UNL     1      -0.571   9.840  22.844  0.00  0.00    +0.000 C 
ATOM     14  F   UNL     1      -1.014   8.621  22.412  0.00  0.00    +0.000 F 
ATOM     15  F   UNL     1       0.502   9.584  23.652  0.00  0.00    +0.000 F 
ATOM     16  F   UNL     1      -1.543  10.304  23.666  0.00  0.00    +0.000 F 
ENDBRANCH  12  13
ENDBRANCH   4   7
BRANCH   1  17
ATOM     17  C   UNL     1       2.529   6.761  18.292  0.00  0.00    +0.000 C 
BRANCH  17  18
ATOM     18  C   UNL     1       3.323   5.414  18.524  0.00  0.00    +0.000 C 
ATOM     19  C   UNL     1       2.781   4.350  17.529  0.00  0.00    +0.000 C 
ATOM     20  C   UNL     1       1.514   3.770  18.142  0.00  0.00    +0.000 C 
ATOM     21  C   UNL     1       1.638   3.962  19.643  0.00  0.00    +0.000 C 
ATOM     22  C   UNL     1       2.863   4.842  19.889  0.00  0.00    +0.000 C 
BRANCH  18  27
ATOM     23  C   UNL     1       5.669   4.368  14.301  0.00  0.00    +0.000 C 
ATOM     24  N   UNL     1       5.936   4.901  15.636  0.00  0.00    +0.000 NA
ATOM     25  C   UNL     1       5.605   3.901  16.666  0.00  0.00    +0.000 C 
ATOM     26  C   UNL     1       5.637   4.467  18.103  0.00  0.00    +0.000 C 
ATOM     27  N   UNL     1       4.790   5.661  18.334  0.00  0.00    +0.000 NA
ATOM     28  C   UNL     1       5.209   6.657  17.317  0.00  0.00    +0.000 C 
ATOM     29  C   UNL     1       5.243   6.184  15.841  0.00  0.00    +0.000 C 
ENDBRANCH  18  27
ENDBRANCH  17  18
ENDBRANCH   1  17
TORSDOF 5
ENDMDL
MODEL 9
REMARK VINA RESULT:      -7.5      1.910      2.463
REMARK  Name = 
REMARK  6 active torsions:
REMARK  status: ('A' for Active; 'I' for Inactive)
REMARK    1  A    between atoms: C_1  and  N_2
REMARK    2  A    between atoms: N_5  and  C_6
REMARK    3  A    between atoms: C_6  and  C_7
REMARK    4  A    between atoms: C_7  and  N_8
REMARK    5  A    between atoms: N_11  and  C_12
REMARK    6  A    between atoms: C_17  and  C_18
REMARK                            x       y       z     vdW  Elec       q    Type
REMARK                         _______ _______ _______ _____ _____    ______ ____
ROOT
ATOM      1  N   UNL     1       2.547   6.543  19.154  0.00  0.00    +0.000 N 
ATOM      2  C   UNL     1       1.899   7.733  18.875  0.00  0.00    +0.000 C 
ATOM      3  O   UNL     1       1.621   8.098  17.744  0.00  0.00    +0.000 OA
ATOM      4  N   UNL     1       1.678   8.456  20.037  0.00  0.00    +0.000 N 
ATOM      5  H   UNL     1       2.267   6.081  20.010  0.00  0.00    +0.000 HD
ATOM      6  H   UNL     1       2.413   8.331  20.721  0.00  0.00    +0.000 HD
ENDROOT
BRANCH   4   7
ATOM      7  C   UNL     1       1.003   9.702  20.004  0.00  0.00    +0.000 A 
ATOM      8  C   UNL     1       1.299  10.570  18.941  0.00  0.00    +0.000 A 
ATOM      9  C   UNL     1       0.635  11.787  18.799  0.00  0.00    +0.000 A 
ATOM     10  C   UNL     1      -0.334  12.155  19.724  0.00  0.00    +0.000 A 
ATOM     11  C   UNL     1      -0.631  11.306  20.792  0.00  0.00    +0.000 A 
ATOM     12  C   UNL     1       0.034  10.070  20.950  0.00  0.00    +0.000 A 
BRANCH  12  13
ATOM     13  C   UNL     1      -0.267   9.280  22.202  0.00  0.00    +0.000 C 
ATOM     14  F   UNL     1       0.830   9.010  22.971  0.00  0.00    +0.000 F 
ATOM     15  F   UNL     1      -1.149   9.926  23.023  0.00  0.00    +0.000 F 
ATOM     16  F   UNL     1      -0.828   8.075  21.942  0.00  0.00    +0.000 F 
ENDBRANCH  12  13
ENDBRANCH   4   7
BRANCH   1  17
ATOM     17  C   UNL     1       2.915   5.662  18.051  0.00  0.00    +0.000 C 
BRANCH  17  18
ATOM     18  C   UNL     1       4.241   4.829  18.270  0.00  0.00    +0.000 C 
ATOM     19  C   UNL     1       4.256   3.658  17.250  0.00  0.00    +0.000 C 
ATOM     20  C   UNL     1       3.399   2.544  17.836  0.00  0.00    +0.000 C 
ATOM     21  C   UNL     1       3.415   2.740  19.341  0.00  0.00    +0.000 C 
ATOM     22  C   UNL     1       4.093   4.081  19.619  0.00  0.00    +0.000 C 
BRANCH  18  27
ATOM     23  C   UNL     1       7.043   4.811  14.198  0.00  0.00    +0.000 C 
ATOM     24  N   UNL     1       6.951   5.471  15.499  0.00  0.00    +0.000 NA
ATOM     25  C   UNL     1       7.069   4.486  16.587  0.00  0.00    +0.000 C 
ATOM     26  C   UNL     1       6.748   5.069  17.981  0.00  0.00    +0.000 C 
ATOM     27  N   UNL     1       5.428   5.731  18.104  0.00  0.00    +0.000 NA
ATOM     28  C   UNL     1       5.388   6.755  17.031  0.00  0.00    +0.000 C 
ATOM     29  C   UNL     1       5.725   6.283  15.594  0.00  0.00    +0.000 C 
ENDBRANCH  18  27
ENDBRANCH  17  18
ENDBRANCH   1  17
TORSDOF 5
ENDMDL
