MODEL 1
REMARK VINA RESULT:      -8.1      0.000      0.000
REMARK  Name = 
REMARK  3 active torsions:
REMARK  status: ('A' for Active; 'I' for Inactive)
REMARK    1  A    between atoms: N_3  and  C_4
REMARK    2  A    between atoms: N_14  and  S_15
REMARK    3  A    between atoms: S_15  and  C_18
REMARK                            x       y       z     vdW  Elec       q    Type
REMARK                         _______ _______ _______ _____ _____    ______ ____
ROOT
ATOM      1  O   UNL     1       5.532   5.581  18.510  0.00  0.00    +0.000 OA
ATOM      2  C   UNL     1       4.809   5.579  17.527  0.00  0.00    +0.000 C 
ATOM      3  N   UNL     1       3.438   5.661  17.533  0.00  0.00    +0.000 N 
ATOM      4  N   UNL     1       5.343   5.415  16.256  0.00  0.00    +0.000 N 
ATOM      5  H   UNL     1       2.963   5.529  16.654  0.00  0.00    +0.000 HD
ATOM      6  H   UNL     1       4.775   5.342  15.422  0.00  0.00    +0.000 HD
ENDROOT
BRANCH   3   7
ATOM      7  C   UNL     1       2.615   5.745  18.684  0.00  0.00    +0.000 A 
ATOM      8  C   UNL     1       2.374   6.955  19.357  0.00  0.00    +0.000 A 
ATOM      9  C   UNL     1       1.619   6.994  20.526  0.00  0.00    +0.000 A 
ATOM     10 BR   UNL     1       1.350   8.654  21.398  0.00  0.00    +0.000 Br
ATOM     11  C   UNL     1       1.066   5.841  21.075  0.00  0.00    +0.000 A 
ATOM     12  C   UNL     1       1.278   4.642  20.387  0.00  0.00    +0.000 A 
ATOM     13  N   UNL     1       0.856   3.370  20.703  0.00  0.00    +0.000 N 
ATOM     14  C   UNL     1       1.283   2.483  19.755  0.00  0.00    +0.000 A 
ATOM     15  C   UNL     1       1.999   3.186  18.813  0.00  0.00    +0.000 A 
ATOM     16  C   UNL     1       2.019   4.563  19.202  0.00  0.00    +0.000 A 
ATOM     17  H   UNL     1       0.317   3.134  21.525  0.00  0.00    +0.000 HD
ENDBRANCH   3   7
BRANCH   4  18
ATOM     18  S   UNL     1       6.968   5.183  15.969  0.00  0.00    +0.000 S 
ATOM     19  O   UNL     1       7.579   6.485  16.159  0.00  0.00    +0.000 OA
ATOM     20  O   UNL     1       7.421   4.036  16.722  0.00  0.00    +0.000 OA
BRANCH  18  21
ATOM     21  C   UNL     1       7.062   4.829  14.231  0.00  0.00    +0.000 A 
ATOM     22  C   UNL     1       7.898   5.586  13.404  0.00  0.00    +0.000 A 
ATOM     23  C   UNL     1       7.948   5.307  12.034  0.00  0.00    +0.000 A 
ATOM     24  C   UNL     1       7.167   4.278  11.503  0.00  0.00    +0.000 A 
ATOM     25  C   UNL     1       6.336   3.533  12.340  0.00  0.00    +0.000 A 
ATOM     26 CL   UNL     1       5.376   2.266  11.680  0.00  0.00    +0.000 Cl
ATOM     27  C   UNL     1       6.273   3.805  13.705  0.00  0.00    +0.000 A 
ENDBRANCH  18  21
ENDBRANCH   4  18
TORSDOF 3
ENDMDL
MODEL 2
REMARK VINA RESULT:      -7.9      5.690      9.032
REMARK  Name = 
REMARK  3 active torsions:
REMARK  status: ('A' for Active; 'I' for Inactive)
REMARK    1  A    between atoms: N_3  and  C_4
REMARK    2  A    between atoms: N_14  and  S_15
REMARK    3  A    between atoms: S_15  and  C_18
REMARK                            x       y       z     vdW  Elec       q    Type
REMARK                         _______ _______ _______ _____ _____    ______ ____
ROOT
ATOM      1  O   UNL     1       2.124   8.473  17.500  0.00  0.00    +0.000 OA
ATOM      2  C   UNL     1       2.062   8.119  18.667  0.00  0.00    +0.000 C 
ATOM      3  N   UNL     1       2.566   6.951  19.185  0.00  0.00    +0.000 N 
ATOM      4  N   UNL     1       1.378   8.883  19.603  0.00  0.00    +0.000 N 
ATOM      5  H   UNL     1       2.341   6.734  20.142  0.00  0.00    +0.000 HD
ATOM      6  H   UNL     1       1.247   8.596  20.563  0.00  0.00    +0.000 HD
ENDROOT
BRANCH   3   7
ATOM      7  C   UNL     1       3.234   5.938  18.453  0.00  0.00    +0.000 A 
ATOM      8  C   UNL     1       4.460   6.156  17.801  0.00  0.00    +0.000 A 
ATOM      9  C   UNL     1       5.057   5.161  17.031  0.00  0.00    +0.000 A 
ATOM     10 BR   UNL     1       6.699   5.525  16.160  0.00  0.00    +0.000 Br
ATOM     11  C   UNL     1       4.470   3.909  16.877  0.00  0.00    +0.000 A 
ATOM     12  C   UNL     1       3.267   3.681  17.553  0.00  0.00    +0.000 A 
ATOM     13  N   UNL     1       2.479   2.551  17.574  0.00  0.00    +0.000 N 
ATOM     14  C   UNL     1       1.384   2.755  18.366  0.00  0.00    +0.000 A 
ATOM     15  C   UNL     1       1.457   4.036  18.862  0.00  0.00    +0.000 A 
ATOM     16  C   UNL     1       2.642   4.650  18.348  0.00  0.00    +0.000 A 
ATOM     17  H   UNL     1       2.684   1.702  17.064  0.00  0.00    +0.000 HD
ENDBRANCH   3   7
BRANCH   4  18
ATOM     18  S   UNL     1       0.577  10.295  19.222  0.00  0.00    +0.000 S 
ATOM     19  O   UNL     1       1.620  11.282  19.016  0.00  0.00    +0.000 OA
ATOM     20  O   UNL     1      -0.397  10.020  18.191  0.00  0.00    +0.000 OA
BRANCH  18  21
ATOM     21  C   UNL     1      -0.257  10.746  20.724  0.00  0.00    +0.000 A 
ATOM     22  C   UNL     1      -0.074   9.988  21.884  0.00  0.00    +0.000 A 
ATOM     23  C   UNL     1      -0.751  10.345  23.055  0.00  0.00    +0.000 A 
ATOM     24  C   UNL     1      -1.602  11.452  23.058  0.00  0.00    +0.000 A 
ATOM     25  C   UNL     1      -1.778  12.198  21.891  0.00  0.00    +0.000 A 
ATOM     26 CL   UNL     1      -2.828  13.562  21.901  0.00  0.00    +0.000 Cl
ATOM     27  C   UNL     1      -1.113  11.849  20.718  0.00  0.00    +0.000 A 
ENDBRANCH  18  21
ENDBRANCH   4  18
TORSDOF 3
ENDMDL
MODEL 3
REMARK VINA RESULT:      -7.7      6.427      8.357
REMARK  Name = 
REMARK  3 active torsions:
REMARK  status: ('A' for Active; 'I' for Inactive)
REMARK    1  A    between atoms: N_3  and  C_4
REMARK    2  A    between atoms: N_14  and  S_15
REMARK    3  A    between atoms: S_15  and  C_18
REMARK                            x       y       z     vdW  Elec       q    Type
REMARK                         _______ _______ _______ _____ _____    ______ ____
ROOT
ATOM      1  O   UNL     1       7.894   8.869  17.396  0.00  0.00    +0.000 OA
ATOM      2  C   UNL     1       8.322   8.402  18.439  0.00  0.00    +0.000 C 
ATOM      3  N   UNL     1       9.039   9.082  19.394  0.00  0.00    +0.000 N 
ATOM      4  N   UNL     1       8.168   7.053  18.727  0.00  0.00    +0.000 N 
ATOM      5  H   UNL     1       9.430   8.543  20.150  0.00  0.00    +0.000 HD
ATOM      6  H   UNL     1       8.563   6.613  19.547  0.00  0.00    +0.000 HD
ENDROOT
BRANCH   3   7
ATOM      7  C   UNL     1       9.425  10.444  19.331  0.00  0.00    +0.000 A 
ATOM      8  C   UNL     1      10.018  11.012  18.190  0.00  0.00    +0.000 A 
ATOM      9  C   UNL     1      10.451  12.335  18.183  0.00  0.00    +0.000 A 
ATOM     10 BR   UNL     1      11.263  13.034  16.621  0.00  0.00    +0.000 Br
ATOM     11  C   UNL     1      10.311  13.154  19.299  0.00  0.00    +0.000 A 
ATOM     12  C   UNL     1       9.691  12.598  20.424  0.00  0.00    +0.000 A 
ATOM     13  N   UNL     1       9.431  13.172  21.648  0.00  0.00    +0.000 N 
ATOM     14  C   UNL     1       8.804  12.274  22.466  0.00  0.00    +0.000 A 
ATOM     15  C   UNL     1       8.660  11.098  21.766  0.00  0.00    +0.000 A 
ATOM     16  C   UNL     1       9.229  11.277  20.466  0.00  0.00    +0.000 A 
ATOM     17  H   UNL     1       9.681  14.119  21.900  0.00  0.00    +0.000 HD
ENDBRANCH   3   7
BRANCH   4  18
ATOM     18  S   UNL     1       7.433   5.975  17.690  0.00  0.00    +0.000 S 
ATOM     19  O   UNL     1       7.671   6.502  16.360  0.00  0.00    +0.000 OA
ATOM     20  O   UNL     1       7.840   4.633  18.039  0.00  0.00    +0.000 OA
BRANCH  18  21
ATOM     21  C   UNL     1       5.697   6.172  18.009  0.00  0.00    +0.000 A 
ATOM     22  C   UNL     1       4.947   7.094  17.272  0.00  0.00    +0.000 A 
ATOM     23  C   UNL     1       3.585   7.251  17.546  0.00  0.00    +0.000 A 
ATOM     24  C   UNL     1       2.983   6.489  18.550  0.00  0.00    +0.000 A 
ATOM     25  C   UNL     1       3.744   5.574  19.280  0.00  0.00    +0.000 A 
ATOM     26 CL   UNL     1       2.997   4.637  20.515  0.00  0.00    +0.000 Cl
ATOM     27  C   UNL     1       5.103   5.413  19.019  0.00  0.00    +0.000 A 
ENDBRANCH  18  21
ENDBRANCH   4  18
TORSDOF 3
ENDMDL
MODEL 4
REMARK VINA RESULT:      -7.7      5.277      8.104
REMARK  Name = 
REMARK  3 active torsions:
REMARK  status: ('A' for Active; 'I' for Inactive)
REMARK    1  A    between atoms: N_3  and  C_4
REMARK    2  A    between atoms: N_14  and  S_15
REMARK    3  A    between atoms: S_15  and  C_18
REMARK                            x       y       z     vdW  Elec       q    Type
REMARK                         _______ _______ _______ _____ _____    ______ ____
ROOT
ATOM      1  O   UNL     1       2.126   7.765  20.064  0.00  0.00    +0.000 OA
ATOM      2  C   UNL     1       1.988   8.013  18.877  0.00  0.00    +0.000 C 
ATOM      3  N   UNL     1       2.572   7.331  17.837  0.00  0.00    +0.000 N 
ATOM      4  N   UNL     1       1.241   9.108  18.464  0.00  0.00    +0.000 N 
ATOM      5  H   UNL     1       2.464   7.717  16.913  0.00  0.00    +0.000 HD
ATOM      6  H   UNL     1       1.156   9.386  17.496  0.00  0.00    +0.000 HD
ENDROOT
BRANCH   3   7
ATOM      7  C   UNL     1       3.454   6.228  17.957  0.00  0.00    +0.000 A 
ATOM      8  C   UNL     1       4.850   6.377  18.020  0.00  0.00    +0.000 A 
ATOM      9  C   UNL     1       5.694   5.271  18.066  0.00  0.00    +0.000 A 
ATOM     10 BR   UNL     1       7.568   5.539  18.127  0.00  0.00    +0.000 Br
ATOM     11  C   UNL     1       5.194   3.972  18.058  0.00  0.00    +0.000 A 
ATOM     12  C   UNL     1       3.803   3.825  18.028  0.00  0.00    +0.000 A 
ATOM     13  N   UNL     1       3.049   2.673  18.009  0.00  0.00    +0.000 N 
ATOM     14  C   UNL     1       1.718   2.981  17.984  0.00  0.00    +0.000 A 
ATOM     15  C   UNL     1       1.604   4.352  17.980  0.00  0.00    +0.000 A 
ATOM     16  C   UNL     1       2.921   4.911  17.996  0.00  0.00    +0.000 A 
ATOM     17  H   UNL     1       3.435   1.737  18.004  0.00  0.00    +0.000 HD
ENDBRANCH   3   7
BRANCH   4  18
ATOM     18  S   UNL     1       0.513  10.169  19.522  0.00  0.00    +0.000 S 
ATOM     19  O   UNL     1       0.153   9.370  20.678  0.00  0.00    +0.000 OA
ATOM     20  O   UNL     1       1.346  11.341  19.663  0.00  0.00    +0.000 OA
BRANCH  18  21
ATOM     21  C   UNL     1      -1.009  10.614  18.721  0.00  0.00    +0.000 A 
ATOM     22  C   UNL     1      -1.898  11.497  19.342  0.00  0.00    +0.000 A 
ATOM     23  C   UNL     1      -3.100  11.824  18.706  0.00  0.00    +0.000 A 
ATOM     24  C   UNL     1      -3.404  11.271  17.461  0.00  0.00    +0.000 A 
ATOM     25  C   UNL     1      -2.508  10.389  16.854  0.00  0.00    +0.000 A 
ATOM     26 CL   UNL     1      -2.888   9.710  15.319  0.00  0.00    +0.000 Cl
ATOM     27  C   UNL     1      -1.310  10.051  17.480  0.00  0.00    +0.000 A 
ENDBRANCH  18  21
ENDBRANCH   4  18
TORSDOF 3
ENDMDL
MODEL 5
REMARK VINA RESULT:      -7.6      5.874      9.041
REMARK  Name = 
REMARK  3 active torsions:
REMARK  status: ('A' for Active; 'I' for Inactive)
REMARK    1  A    between atoms: N_3  and  C_4
REMARK    2  A    between atoms: N_14  and  S_15
REMARK    3  A    between atoms: S_15  and  C_18
REMARK                            x       y       z     vdW  Elec       q    Type
REMARK                         _______ _______ _______ _____ _____    ______ ____
ROOT
ATOM      1  O   UNL     1       2.140   8.166  18.209  0.00  0.00    +0.000 OA
ATOM      2  C   UNL     1       1.911   8.017  19.399  0.00  0.00    +0.000 C 
ATOM      3  N   UNL     1       2.270   6.932  20.160  0.00  0.00    +0.000 N 
ATOM      4  N   UNL     1       1.167   8.956  20.099  0.00  0.00    +0.000 N 
ATOM      5  H   UNL     1       1.913   6.889  21.102  0.00  0.00    +0.000 HD
ATOM      6  H   UNL     1       0.899   8.840  21.067  0.00  0.00    +0.000 HD
ENDROOT
BRANCH   3   7
ATOM      7  C   UNL     1       2.956   5.781  19.697  0.00  0.00    +0.000 A 
ATOM      8  C   UNL     1       4.274   5.829  19.210  0.00  0.00    +0.000 A 
ATOM      9  C   UNL     1       4.896   4.695  18.696  0.00  0.00    +0.000 A 
ATOM     10 BR   UNL     1       6.666   4.831  18.034  0.00  0.00    +0.000 Br
ATOM     11  C   UNL     1       4.246   3.466  18.646  0.00  0.00    +0.000 A 
ATOM     12  C   UNL     1       2.947   3.411  19.162  0.00  0.00    +0.000 A 
ATOM     13  N   UNL     1       2.083   2.342  19.234  0.00  0.00    +0.000 N 
ATOM     14  C   UNL     1       0.906   2.725  19.815  0.00  0.00    +0.000 A 
ATOM     15  C   UNL     1       1.004   4.064  20.118  0.00  0.00    +0.000 A 
ATOM     16  C   UNL     1       2.291   4.525  19.700  0.00  0.00    +0.000 A 
ATOM     17  H   UNL     1       2.293   1.412  18.895  0.00  0.00    +0.000 HD
ENDBRANCH   3   7
BRANCH   4  18
ATOM     18  S   UNL     1       0.513  10.317  19.393  0.00  0.00    +0.000 S 
ATOM     19  O   UNL     1       1.629  11.225  19.209  0.00  0.00    +0.000 OA
ATOM     20  O   UNL     1      -0.310   9.918  18.274  0.00  0.00    +0.000 OA
BRANCH  18  21
ATOM     21  C   UNL     1      -0.510  11.023  20.662  0.00  0.00    +0.000 A 
ATOM     22  C   UNL     1      -0.327  10.654  21.998  0.00  0.00    +0.000 A 
ATOM     23  C   UNL     1      -1.152  11.205  22.984  0.00  0.00    +0.000 A 
ATOM     24  C   UNL     1      -2.147  12.118  22.630  0.00  0.00    +0.000 A 
ATOM     25  C   UNL     1      -2.320  12.476  21.293  0.00  0.00    +0.000 A 
ATOM     26 CL   UNL     1      -3.549  13.601  20.863  0.00  0.00    +0.000 Cl
ATOM     27  C   UNL     1      -1.509  11.929  20.300  0.00  0.00    +0.000 A 
ENDBRANCH  18  21
ENDBRANCH   4  18
TORSDOF 3
ENDMDL
MODEL 6
REMARK VINA RESULT:      -7.6      6.369      8.373
REMARK  Name = 
REMARK  3 active torsions:
REMARK  status: ('A' for Active; 'I' for Inactive)
REMARK    1  A    between atoms: N_3  and  C_4
REMARK    2  A    between atoms: N_14  and  S_15
REMARK    3  A    between atoms: S_15  and  C_18
REMARK                            x       y       z     vdW  Elec       q    Type
REMARK                         _______ _______ _______ _____ _____    ______ ____
ROOT
ATOM      1  O   UNL     1       7.796   8.922  17.398  0.00  0.00    +0.000 OA
ATOM      2  C   UNL     1       8.312   8.420  18.384  0.00  0.00    +0.000 C 
ATOM      3  N   UNL     1       9.088   9.074  19.310  0.00  0.00    +0.000 N 
ATOM      4  N   UNL     1       8.205   7.057  18.623  0.00  0.00    +0.000 N 
ATOM      5  H   UNL     1       9.546   8.512  20.010  0.00  0.00    +0.000 HD
ATOM      6  H   UNL     1       8.671   6.591  19.390  0.00  0.00    +0.000 HD
ENDROOT
BRANCH   3   7
ATOM      7  C   UNL     1       9.443  10.446  19.278  0.00  0.00    +0.000 A 
ATOM      8  C   UNL     1      10.027  11.052  18.152  0.00  0.00    +0.000 A 
ATOM      9  C   UNL     1      10.429  12.384  18.175  0.00  0.00    +0.000 A 
ATOM     10 BR   UNL     1      11.231  13.135  16.631  0.00  0.00    +0.000 Br
ATOM     11  C   UNL     1      10.267  13.175  19.308  0.00  0.00    +0.000 A 
ATOM     12  C   UNL     1       9.656  12.581  20.418  0.00  0.00    +0.000 A 
ATOM     13  N   UNL     1       9.379  13.122  21.654  0.00  0.00    +0.000 N 
ATOM     14  C   UNL     1       8.770  12.192  22.449  0.00  0.00    +0.000 A 
ATOM     15  C   UNL     1       8.656  11.028  21.724  0.00  0.00    +0.000 A 
ATOM     16  C   UNL     1       9.225  11.249  20.430  0.00  0.00    +0.000 A 
ATOM     17  H   UNL     1       9.607  14.069  21.928  0.00  0.00    +0.000 HD
ENDBRANCH   3   7
BRANCH   4  18
ATOM     18  S   UNL     1       7.412   6.008  17.598  0.00  0.00    +0.000 S 
ATOM     19  O   UNL     1       7.430   6.656  16.301  0.00  0.00    +0.000 OA
ATOM     20  O   UNL     1       7.954   4.680  17.771  0.00  0.00    +0.000 OA
BRANCH  18  21
ATOM     21  C   UNL     1       5.726   6.040  18.157  0.00  0.00    +0.000 A 
ATOM     22  C   UNL     1       5.276   5.099  19.087  0.00  0.00    +0.000 A 
ATOM     23  C   UNL     1       3.941   5.126  19.504  0.00  0.00    +0.000 A 
ATOM     24  C   UNL     1       3.070   6.088  18.991  0.00  0.00    +0.000 A 
ATOM     25  C   UNL     1       3.531   7.020  18.060  0.00  0.00    +0.000 A 
ATOM     26 CL   UNL     1       2.452   8.204  17.431  0.00  0.00    +0.000 Cl
ATOM     27  C   UNL     1       4.858   7.000  17.633  0.00  0.00    +0.000 A 
ENDBRANCH  18  21
ENDBRANCH   4  18
TORSDOF 3
ENDMDL
MODEL 7
REMARK VINA RESULT:      -7.4      5.105      8.059
REMARK  Name = 
REMARK  3 active torsions:
REMARK  status: ('A' for Active; 'I' for Inactive)
REMARK    1  A    between atoms: N_3  and  C_4
REMARK    2  A    between atoms: N_14  and  S_15
REMARK    3  A    between atoms: S_15  and  C_18
REMARK                            x       y       z     vdW  Elec       q    Type
REMARK                         _______ _______ _______ _____ _____    ______ ____
ROOT
ATOM      1  O   UNL     1       2.000   8.027  20.367  0.00  0.00    +0.000 OA
ATOM      2  C   UNL     1       1.912   7.963  19.151  0.00  0.00    +0.000 C 
ATOM      3  N   UNL     1       2.282   6.896  18.370  0.00  0.00    +0.000 N 
ATOM      4  N   UNL     1       1.470   9.054  18.415  0.00  0.00    +0.000 N 
ATOM      5  H   UNL     1       2.264   7.025  17.371  0.00  0.00    +0.000 HD
ATOM      6  H   UNL     1       1.444   9.066  17.405  0.00  0.00    +0.000 HD
ENDROOT
BRANCH   3   7
ATOM      7  C   UNL     1       2.849   5.682  18.834  0.00  0.00    +0.000 A 
ATOM      8  C   UNL     1       2.178   4.822  19.720  0.00  0.00    +0.000 A 
ATOM      9  C   UNL     1       2.789   3.673  20.214  0.00  0.00    +0.000 A 
ATOM     10 BR   UNL     1       1.839   2.567  21.423  0.00  0.00    +0.000 Br
ATOM     11  C   UNL     1       4.085   3.322  19.849  0.00  0.00    +0.000 A 
ATOM     12  C   UNL     1       4.741   4.161  18.941  0.00  0.00    +0.000 A 
ATOM     13  N   UNL     1       6.011   4.057  18.419  0.00  0.00    +0.000 N 
ATOM     14  C   UNL     1       6.254   5.093  17.562  0.00  0.00    +0.000 A 
ATOM     15  C   UNL     1       5.129   5.886  17.530  0.00  0.00    +0.000 A 
ATOM     16  C   UNL     1       4.156   5.318  18.411  0.00  0.00    +0.000 A 
ATOM     17  H   UNL     1       6.666   3.322  18.651  0.00  0.00    +0.000 HD
ENDBRANCH   3   7
BRANCH   4  18
ATOM     18  S   UNL     1       1.059  10.516  19.104  0.00  0.00    +0.000 S 
ATOM     19  O   UNL     1       1.012  10.266  20.531  0.00  0.00    +0.000 OA
ATOM     20  O   UNL     1       1.912  11.548  18.560  0.00  0.00    +0.000 OA
BRANCH  18  21
ATOM     21  C   UNL     1      -0.616  10.792  18.583  0.00  0.00    +0.000 A 
ATOM     22  C   UNL     1      -1.456  11.623  19.330  0.00  0.00    +0.000 A 
ATOM     23  C   UNL     1      -2.779  11.817  18.917  0.00  0.00    +0.000 A 
ATOM     24  C   UNL     1      -3.250  11.183  17.766  0.00  0.00    +0.000 A 
ATOM     25  C   UNL     1      -2.401  10.353  17.031  0.00  0.00    +0.000 A 
ATOM     26 CL   UNL     1      -2.988   9.574  15.614  0.00  0.00    +0.000 Cl
ATOM     27  C   UNL     1      -1.084  10.148  17.436  0.00  0.00    +0.000 A 
ENDBRANCH  18  21
ENDBRANCH   4  18
TORSDOF 3
ENDMDL
MODEL 8
REMARK VINA RESULT:      -7.4      5.566      8.378
REMARK  Name = 
REMARK  3 active torsions:
REMARK  status: ('A' for Active; 'I' for Inactive)
REMARK    1  A    between atoms: N_3  and  C_4
REMARK    2  A    between atoms: N_14  and  S_15
REMARK    3  A    between atoms: S_15  and  C_18
REMARK                            x       y       z     vdW  Elec       q    Type
REMARK                         _______ _______ _______ _____ _____    ______ ____
ROOT
ATOM      1  O   UNL     1       1.807   8.047  20.335  0.00  0.00    +0.000 OA
ATOM      2  C   UNL     1       1.920   8.049  19.120  0.00  0.00    +0.000 C 
ATOM      3  N   UNL     1       2.422   7.025  18.354  0.00  0.00    +0.000 N 
ATOM      4  N   UNL     1       1.595   9.178  18.381  0.00  0.00    +0.000 N 
ATOM      5  H   UNL     1       2.566   7.209  17.374  0.00  0.00    +0.000 HD
ATOM      6  H   UNL     1       1.735   9.245  17.382  0.00  0.00    +0.000 HD
ENDROOT
BRANCH   3   7
ATOM      7  C   UNL     1       2.915   5.788  18.839  0.00  0.00    +0.000 A 
ATOM      8  C   UNL     1       2.171   4.959  19.696  0.00  0.00    +0.000 A 
ATOM      9  C   UNL     1       2.710   3.784  20.213  0.00  0.00    +0.000 A 
ATOM     10 BR   UNL     1       1.663   2.721  21.380  0.00  0.00    +0.000 Br
ATOM     11  C   UNL     1       4.004   3.377  19.901  0.00  0.00    +0.000 A 
ATOM     12  C   UNL     1       4.732   4.185  19.022  0.00  0.00    +0.000 A 
ATOM     13  N   UNL     1       6.017   4.026  18.553  0.00  0.00    +0.000 N 
ATOM     14  C   UNL     1       6.341   5.050  17.708  0.00  0.00    +0.000 A 
ATOM     15  C   UNL     1       5.254   5.891  17.631  0.00  0.00    +0.000 A 
ATOM     16  C   UNL     1       4.222   5.366  18.470  0.00  0.00    +0.000 A 
ATOM     17  H   UNL     1       6.629   3.263  18.811  0.00  0.00    +0.000 HD
ENDBRANCH   3   7
BRANCH   4  18
ATOM     18  S   UNL     1       1.065  10.601  19.069  0.00  0.00    +0.000 S 
ATOM     19  O   UNL     1       1.101  10.369  20.500  0.00  0.00    +0.000 OA
ATOM     20  O   UNL     1       1.785  11.706  18.480  0.00  0.00    +0.000 OA
BRANCH  18  21
ATOM     21  C   UNL     1      -0.650  10.697  18.615  0.00  0.00    +0.000 A 
ATOM     22  C   UNL     1      -1.137   9.941  17.545  0.00  0.00    +0.000 A 
ATOM     23  C   UNL     1      -2.486  10.040  17.188  0.00  0.00    +0.000 A 
ATOM     24  C   UNL     1      -3.334  10.890  17.900  0.00  0.00    +0.000 A 
ATOM     25  C   UNL     1      -2.834  11.642  18.965  0.00  0.00    +0.000 A 
ATOM     26 CL   UNL     1      -3.885  12.687  19.838  0.00  0.00    +0.000 Cl
ATOM     27  C   UNL     1      -1.491  11.555  19.326  0.00  0.00    +0.000 A 
ENDBRANCH  18  21
ENDBRANCH   4  18
TORSDOF 3
ENDMDL
MODEL 9
REMARK VINA RESULT:      -7.4      5.830      8.410
REMARK  Name = 
REMARK  3 active torsions:
REMARK  status: ('A' for Active; 'I' for Inactive)
REMARK    1  A    between atoms: N_3  and  C_4
REMARK    2  A    between atoms: N_14  and  S_15
REMARK    3  A    between atoms: S_15  and  C_18
REMARK                            x       y       z     vdW  Elec       q    Type
REMARK                         _______ _______ _______ _____ _____    ______ ____
ROOT
ATOM      1  O   UNL     1       1.921   8.129  19.758  0.00  0.00    +0.000 OA
ATOM      2  C   UNL     1       1.880   8.314  18.552  0.00  0.00    +0.000 C 
ATOM      3  N   UNL     1       2.559   7.592  17.601  0.00  0.00    +0.000 N 
ATOM      4  N   UNL     1       1.155   9.373  18.022  0.00  0.00    +0.000 N 
ATOM      5  H   UNL     1       2.524   7.929  16.652  0.00  0.00    +0.000 HD
ATOM      6  H   UNL     1       1.147   9.601  17.037  0.00  0.00    +0.000 HD
ENDROOT
BRANCH   3   7
ATOM      7  C   UNL     1       3.443   6.513  17.850  0.00  0.00    +0.000 A 
ATOM      8  C   UNL     1       4.831   6.687  17.990  0.00  0.00    +0.000 A 
ATOM      9  C   UNL     1       5.682   5.599  18.164  0.00  0.00    +0.000 A 
ATOM     10 BR   UNL     1       7.546   5.898  18.323  0.00  0.00    +0.000 Br
ATOM     11  C   UNL     1       5.198   4.295  18.213  0.00  0.00    +0.000 A 
ATOM     12  C   UNL     1       3.813   4.125  18.107  0.00  0.00    +0.000 A 
ATOM     13  N   UNL     1       3.074   2.963  18.120  0.00  0.00    +0.000 N 
ATOM     14  C   UNL     1       1.744   3.249  17.991  0.00  0.00    +0.000 A 
ATOM     15  C   UNL     1       1.616   4.615  17.886  0.00  0.00    +0.000 A 
ATOM     16  C   UNL     1       2.923   5.194  17.946  0.00  0.00    +0.000 A 
ATOM     17  H   UNL     1       3.469   2.035  18.203  0.00  0.00    +0.000 HD
ENDBRANCH   3   7
BRANCH   4  18
ATOM     18  S   UNL     1       0.325  10.473  18.960  0.00  0.00    +0.000 S 
ATOM     19  O   UNL     1       0.165   9.830  20.250  0.00  0.00    +0.000 OA
ATOM     20  O   UNL     1       0.964  11.764  18.849  0.00  0.00    +0.000 OA
BRANCH  18  21
ATOM     21  C   UNL     1      -1.292  10.544  18.227  0.00  0.00    +0.000 A 
ATOM     22  C   UNL     1      -1.560   9.842  17.049  0.00  0.00    +0.000 A 
ATOM     23  C   UNL     1      -2.833   9.922  16.474  0.00  0.00    +0.000 A 
ATOM     24  C   UNL     1      -3.824  10.697  17.079  0.00  0.00    +0.000 A 
ATOM     25  C   UNL     1      -3.541  11.395  18.254  0.00  0.00    +0.000 A 
ATOM     26 CL   UNL     1      -4.767  12.349  18.995  0.00  0.00    +0.000 Cl
ATOM     27  C   UNL     1      -2.276  11.328  18.833  0.00  0.00    +0.000 A 
ENDBRANCH  18  21
ENDBRANCH   4  18
TORSDOF 3
ENDMDL
