MODEL 1
REMARK VINA RESULT:      -6.9      0.000      0.000
REMARK  Name = 
REMARK  5 active torsions:
REMARK  status: ('A' for Active; 'I' for Inactive)
REMARK    1  A    between atoms: C_1  and  C_2
REMARK    2  A    between atoms: C_8  and  C_9
REMARK    3  A    between atoms: C_21  and  C_22
REMARK    4  A    between atoms: C_21  and  C_23
REMARK    5  A    between atoms: C_24  and  O_25
REMARK                            x       y       z     vdW  Elec       q    Type
REMARK                         _______ _______ _______ _____ _____    ______ ____
ROOT
ATOM      1  C   UNL     1       1.599   5.241  17.347  0.00  0.00    +0.000 C 
ATOM      2  C   UNL     1       2.634   5.690  18.393  0.00  0.00    +0.000 C 
ATOM      3  C   UNL     1       2.071   6.731  19.369  0.00  0.00    +0.000 A 
ATOM      4  C   UNL     1       1.840   6.373  20.708  0.00  0.00    +0.000 A 
ATOM      5  C   UNL     1       1.264   7.313  21.559  0.00  0.00    +0.000 A 
ATOM      6  C   UNL     1       0.812   8.556  21.085  0.00  0.00    +0.000 A 
ATOM      7 CL   UNL     1      -0.099   9.461  22.258  0.00  0.00    +0.000 Cl
ATOM      8  C   UNL     1       1.071   8.998  19.764  0.00  0.00    +0.000 A 
ATOM      9  C   UNL     1       1.781   8.065  18.949  0.00  0.00    +0.000 A 
ATOM     10 CL   UNL     1       2.495   8.581  17.436  0.00  0.00    +0.000 Cl
ATOM     11  N   UNL     1       2.297   5.167  21.267  0.00  0.00    +0.000 N 
ATOM     12  C   UNL     1       2.421   4.020  20.351  0.00  0.00    +0.000 C 
ATOM     13  C   UNL     1       1.014   3.482  20.029  0.00  0.00    +0.000 C 
ATOM     14  C   UNL     1       3.192   2.899  21.080  0.00  0.00    +0.000 C 
ATOM     15  C   UNL     1       3.247   4.484  19.129  0.00  0.00    +0.000 C 
ATOM     16  H   UNL     1       1.831   4.929  22.142  0.00  0.00    +0.000 HD
ENDROOT
BRANCH   8  17
ATOM     17  C   UNL     1       0.672  10.365  19.287  0.00  0.00    +0.000 A 
ATOM     18  C   UNL     1       1.563  11.467  19.338  0.00  0.00    +0.000 A 
ATOM     19  C   UNL     1       1.224  12.756  18.926  0.00  0.00    +0.000 A 
ATOM     20  C   UNL     1      -0.015  13.004  18.348  0.00  0.00    +0.000 A 
ATOM     21  C   UNL     1      -0.927  11.945  18.216  0.00  0.00    +0.000 A 
ATOM     22  C   UNL     1      -2.200  11.850  17.586  0.00  0.00    +0.000 A 
ATOM     23  C   UNL     1      -2.637  10.558  17.730  0.00  0.00    +0.000 A 
ATOM     24  N   UNL     1      -1.717   9.897  18.497  0.00  0.00    +0.000 N 
ATOM     25  C   UNL     1      -0.596  10.680  18.720  0.00  0.00    +0.000 A 
ATOM     26  H   UNL     1      -1.766   8.913  18.719  0.00  0.00    +0.000 HD
ENDBRANCH   8  17
BRANCH  15  27
ATOM     27  O   UNL     1       4.557   4.891  19.592  0.00  0.00    +0.000 OA
ATOM     28  H   UNL     1       5.069   5.054  18.780  0.00  0.00    +0.000 HD
ENDBRANCH  15  27
TORSDOF 2
ENDMDL
MODEL 2
REMARK VINA RESULT:      -6.6      2.349      3.736
REMARK  Name = 
REMARK  5 active torsions:
REMARK  status: ('A' for Active; 'I' for Inactive)
REMARK    1  A    between atoms: C_1  and  C_2
REMARK    2  A    between atoms: C_8  and  C_9
REMARK    3  A    between atoms: C_21  and  C_22
REMARK    4  A    between atoms: C_21  and  C_23
REMARK    5  A    between atoms: C_24  and  O_25
REMARK                            x       y       z     vdW  Elec       q    Type
REMARK                         _______ _______ _______ _____ _____    ______ ____
ROOT
ATOM      1  C   UNL     1       4.441   4.235  20.194  0.00  0.00    +0.000 C 
ATOM      2  C   UNL     1       3.554   4.375  18.945  0.00  0.00    +0.000 C 
ATOM      3  C   UNL     1       3.180   5.832  18.647  0.00  0.00    +0.000 A 
ATOM      4  C   UNL     1       3.732   6.475  17.526  0.00  0.00    +0.000 A 
ATOM      5  C   UNL     1       3.433   7.819  17.316  0.00  0.00    +0.000 A 
ATOM      6  C   UNL     1       2.693   8.564  18.248  0.00  0.00    +0.000 A 
ATOM      7 CL   UNL     1       2.659  10.271  17.910  0.00  0.00    +0.000 Cl
ATOM      8  C   UNL     1       2.061   7.960  19.363  0.00  0.00    +0.000 A 
ATOM      9  C   UNL     1       2.274   6.554  19.484  0.00  0.00    +0.000 A 
ATOM     10 CL   UNL     1       1.285   5.601  20.570  0.00  0.00    +0.000 Cl
ATOM     11  N   UNL     1       4.449   5.792  16.528  0.00  0.00    +0.000 N 
ATOM     12  C   UNL     1       5.182   4.586  16.950  0.00  0.00    +0.000 C 
ATOM     13  C   UNL     1       6.437   5.012  17.735  0.00  0.00    +0.000 C 
ATOM     14  C   UNL     1       5.654   3.839  15.685  0.00  0.00    +0.000 C 
ATOM     15  C   UNL     1       4.191   3.683  17.725  0.00  0.00    +0.000 C 
ATOM     16  H   UNL     1       5.006   6.411  15.941  0.00  0.00    +0.000 HD
ENDROOT
BRANCH   8  17
ATOM     17  C   UNL     1       1.190   8.740  20.307  0.00  0.00    +0.000 A 
ATOM     18  C   UNL     1       1.354   8.666  21.714  0.00  0.00    +0.000 A 
ATOM     19  C   UNL     1       0.553   9.356  22.623  0.00  0.00    +0.000 A 
ATOM     20  C   UNL     1      -0.416  10.243  22.171  0.00  0.00    +0.000 A 
ATOM     21  C   UNL     1      -0.596  10.408  20.789  0.00  0.00    +0.000 A 
ATOM     22  C   UNL     1      -1.406  11.295  20.026  0.00  0.00    +0.000 A 
ATOM     23  C   UNL     1      -1.160  11.043  18.700  0.00  0.00    +0.000 A 
ATOM     24  N   UNL     1      -0.300   9.981  18.637  0.00  0.00    +0.000 N 
ATOM     25  C   UNL     1       0.161   9.635  19.896  0.00  0.00    +0.000 A 
ATOM     26  H   UNL     1       0.087   9.615  17.779  0.00  0.00    +0.000 HD
ENDBRANCH   8  17
BRANCH  15  27
ATOM     27  O   UNL     1       3.112   3.320  16.832  0.00  0.00    +0.000 OA
ATOM     28  H   UNL     1       3.112   2.346  16.824  0.00  0.00    +0.000 HD
ENDBRANCH  15  27
TORSDOF 2
ENDMDL
MODEL 3
REMARK VINA RESULT:      -6.4      4.904      8.316
REMARK  Name = 
REMARK  5 active torsions:
REMARK  status: ('A' for Active; 'I' for Inactive)
REMARK    1  A    between atoms: C_1  and  C_2
REMARK    2  A    between atoms: C_8  and  C_9
REMARK    3  A    between atoms: C_21  and  C_22
REMARK    4  A    between atoms: C_21  and  C_23
REMARK    5  A    between atoms: C_24  and  O_25
REMARK                            x       y       z     vdW  Elec       q    Type
REMARK                         _______ _______ _______ _____ _____    ______ ____
ROOT
ATOM      1  C   UNL     1      -6.113  13.823  19.169  0.00  0.00    +0.000 C 
ATOM      2  C   UNL     1      -5.799  12.557  19.985  0.00  0.00    +0.000 C 
ATOM      3  C   UNL     1      -4.435  12.630  20.683  0.00  0.00    +0.000 A 
ATOM      4  C   UNL     1      -4.378  12.755  22.082  0.00  0.00    +0.000 A 
ATOM      5  C   UNL     1      -3.131  12.891  22.687  0.00  0.00    +0.000 A 
ATOM      6  C   UNL     1      -1.954  13.016  21.931  0.00  0.00    +0.000 A 
ATOM      7 CL   UNL     1      -0.554  13.429  22.878  0.00  0.00    +0.000 Cl
ATOM      8  C   UNL     1      -1.939  12.837  20.525  0.00  0.00    +0.000 A 
ATOM      9  C   UNL     1      -3.215  12.568  19.943  0.00  0.00    +0.000 A 
ATOM     10 CL   UNL     1      -3.327  11.966  18.302  0.00  0.00    +0.000 Cl
ATOM     11  N   UNL     1      -5.503  12.602  22.910  0.00  0.00    +0.000 N 
ATOM     12  C   UNL     1      -6.806  12.965  22.328  0.00  0.00    +0.000 C 
ATOM     13  C   UNL     1      -6.912  14.500  22.257  0.00  0.00    +0.000 C 
ATOM     14  C   UNL     1      -7.917  12.464  23.276  0.00  0.00    +0.000 C 
ATOM     15  C   UNL     1      -6.934  12.230  20.973  0.00  0.00    +0.000 C 
ATOM     16  H   UNL     1      -5.366  12.982  23.847  0.00  0.00    +0.000 HD
ENDROOT
BRANCH   8  17
ATOM     17  C   UNL     1      -0.667  12.875  19.728  0.00  0.00    +0.000 A 
ATOM     18  C   UNL     1      -0.038  14.097  19.377  0.00  0.00    +0.000 A 
ATOM     19  C   UNL     1       1.131  14.176  18.620  0.00  0.00    +0.000 A 
ATOM     20  C   UNL     1       1.798  13.018  18.239  0.00  0.00    +0.000 A 
ATOM     21  C   UNL     1       1.261  11.774  18.601  0.00  0.00    +0.000 A 
ATOM     22  C   UNL     1       1.747  10.443  18.462  0.00  0.00    +0.000 A 
ATOM     23  C   UNL     1       0.821   9.604  19.028  0.00  0.00    +0.000 A 
ATOM     24  N   UNL     1      -0.241  10.371  19.423  0.00  0.00    +0.000 N 
ATOM     25  C   UNL     1       0.038  11.720  19.283  0.00  0.00    +0.000 A 
ATOM     26  H   UNL     1      -1.046  10.013  19.916  0.00  0.00    +0.000 HD
ENDBRANCH   8  17
BRANCH  15  27
ATOM     27  O   UNL     1      -6.882  10.805  21.221  0.00  0.00    +0.000 OA
ATOM     28  H   UNL     1      -7.252  10.694  22.115  0.00  0.00    +0.000 HD
ENDBRANCH  15  27
TORSDOF 2
ENDMDL
MODEL 4
REMARK VINA RESULT:      -6.4      1.215      2.139
REMARK  Name = 
REMARK  5 active torsions:
REMARK  status: ('A' for Active; 'I' for Inactive)
REMARK    1  A    between atoms: C_1  and  C_2
REMARK    2  A    between atoms: C_8  and  C_9
REMARK    3  A    between atoms: C_21  and  C_22
REMARK    4  A    between atoms: C_21  and  C_23
REMARK    5  A    between atoms: C_24  and  O_25
REMARK                            x       y       z     vdW  Elec       q    Type
REMARK                         _______ _______ _______ _____ _____    ______ ____
ROOT
ATOM      1  C   UNL     1       1.540   5.619  17.379  0.00  0.00    +0.000 C 
ATOM      2  C   UNL     1       2.543   6.112  18.436  0.00  0.00    +0.000 C 
ATOM      3  C   UNL     1       1.924   7.127  19.405  0.00  0.00    +0.000 A 
ATOM      4  C   UNL     1       1.694   6.759  20.742  0.00  0.00    +0.000 A 
ATOM      5  C   UNL     1       1.067   7.673  21.585  0.00  0.00    +0.000 A 
ATOM      6  C   UNL     1       0.566   8.895  21.106  0.00  0.00    +0.000 A 
ATOM      7 CL   UNL     1      -0.398   9.759  22.269  0.00  0.00    +0.000 Cl
ATOM      8  C   UNL     1       0.820   9.348  19.788  0.00  0.00    +0.000 A 
ATOM      9  C   UNL     1       1.580   8.448  18.982  0.00  0.00    +0.000 A 
ATOM     10 CL   UNL     1       2.287   8.995  17.476  0.00  0.00    +0.000 Cl
ATOM     11  N   UNL     1       2.197   5.574  21.306  0.00  0.00    +0.000 N 
ATOM     12  C   UNL     1       2.381   4.434  20.392  0.00  0.00    +0.000 C 
ATOM     13  C   UNL     1       1.003   3.835  20.054  0.00  0.00    +0.000 C 
ATOM     14  C   UNL     1       3.194   3.348  21.130  0.00  0.00    +0.000 C 
ATOM     15  C   UNL     1       3.201   4.935  19.179  0.00  0.00    +0.000 C 
ATOM     16  H   UNL     1       1.732   5.316  22.176  0.00  0.00    +0.000 HD
ENDROOT
BRANCH   8  17
ATOM     17  C   UNL     1       0.366  10.696  19.306  0.00  0.00    +0.000 A 
ATOM     18  C   UNL     1      -0.745  10.848  18.437  0.00  0.00    +0.000 A 
ATOM     19  C   UNL     1      -1.183  12.079  17.950  0.00  0.00    +0.000 A 
ATOM     20  C   UNL     1      -0.583  13.256  18.379  0.00  0.00    +0.000 A 
ATOM     21  C   UNL     1       0.489  13.183  19.283  0.00  0.00    +0.000 A 
ATOM     22  C   UNL     1       1.226  14.183  19.978  0.00  0.00    +0.000 A 
ATOM     23  C   UNL     1       2.148  13.542  20.766  0.00  0.00    +0.000 A 
ATOM     24  N   UNL     1       2.051  12.203  20.505  0.00  0.00    +0.000 N 
ATOM     25  C   UNL     1       0.968  11.929  19.687  0.00  0.00    +0.000 A 
ATOM     26  H   UNL     1       2.584  11.492  20.986  0.00  0.00    +0.000 HD
ENDBRANCH   8  17
BRANCH  15  27
ATOM     27  O   UNL     1       4.485   5.399  19.657  0.00  0.00    +0.000 OA
ATOM     28  H   UNL     1       5.117   5.142  18.962  0.00  0.00    +0.000 HD
ENDBRANCH  15  27
TORSDOF 2
ENDMDL
MODEL 5
REMARK VINA RESULT:      -6.4      2.302      7.075
REMARK  Name = 
REMARK  5 active torsions:
REMARK  status: ('A' for Active; 'I' for Inactive)
REMARK    1  A    between atoms: C_1  and  C_2
REMARK    2  A    between atoms: C_8  and  C_9
REMARK    3  A    between atoms: C_21  and  C_22
REMARK    4  A    between atoms: C_21  and  C_23
REMARK    5  A    between atoms: C_24  and  O_25
REMARK                            x       y       z     vdW  Elec       q    Type
REMARK                         _______ _______ _______ _____ _____    ______ ____
ROOT
ATOM      1  C   UNL     1      -0.972   8.545  20.767  0.00  0.00    +0.000 C 
ATOM      2  C   UNL     1       0.350   9.333  20.789  0.00  0.00    +0.000 C 
ATOM      3  C   UNL     1       1.358   8.821  19.752  0.00  0.00    +0.000 A 
ATOM      4  C   UNL     1       1.662   9.613  18.631  0.00  0.00    +0.000 A 
ATOM      5  C   UNL     1       2.526   9.098  17.668  0.00  0.00    +0.000 A 
ATOM      6  C   UNL     1       3.004   7.779  17.737  0.00  0.00    +0.000 A 
ATOM      7 CL   UNL     1       3.855   7.269  16.307  0.00  0.00    +0.000 Cl
ATOM      8  C   UNL     1       2.783   6.955  18.868  0.00  0.00    +0.000 A 
ATOM      9  C   UNL     1       2.003   7.555  19.902  0.00  0.00    +0.000 A 
ATOM     10 CL   UNL     1       1.944   6.832  21.495  0.00  0.00    +0.000 Cl
ATOM     11  N   UNL     1       1.256  10.953  18.508  0.00  0.00    +0.000 N 
ATOM     12  C   UNL     1       0.004  11.328  19.186  0.00  0.00    +0.000 C 
ATOM     13  C   UNL     1      -1.186  10.764  18.387  0.00  0.00    +0.000 C 
ATOM     14  C   UNL     1      -0.113  12.867  19.172  0.00  0.00    +0.000 C 
ATOM     15  C   UNL     1       0.103  10.847  20.653  0.00  0.00    +0.000 C 
ATOM     16  H   UNL     1       1.311  11.301  17.552  0.00  0.00    +0.000 HD
ENDROOT
BRANCH   8  17
ATOM     17  C   UNL     1       3.375   5.579  18.982  0.00  0.00    +0.000 A 
ATOM     18  C   UNL     1       4.761   5.375  19.208  0.00  0.00    +0.000 A 
ATOM     19  C   UNL     1       5.352   4.115  19.298  0.00  0.00    +0.000 A 
ATOM     20  C   UNL     1       4.569   2.969  19.254  0.00  0.00    +0.000 A 
ATOM     21  C   UNL     1       3.181   3.099  19.088  0.00  0.00    +0.000 A 
ATOM     22  C   UNL     1       2.120   2.151  19.112  0.00  0.00    +0.000 A 
ATOM     23  C   UNL     1       0.947   2.839  18.926  0.00  0.00    +0.000 A 
ATOM     24  N   UNL     1       1.272   4.150  18.705  0.00  0.00    +0.000 N 
ATOM     25  C   UNL     1       2.623   4.372  18.909  0.00  0.00    +0.000 A 
ATOM     26  H   UNL     1       0.593   4.889  18.586  0.00  0.00    +0.000 HD
ENDBRANCH   8  17
BRANCH  15  27
ATOM     27  O   UNL     1       1.224  11.517  21.277  0.00  0.00    +0.000 OA
ATOM     28  H   UNL     1       1.017  12.466  21.208  0.00  0.00    +0.000 HD
ENDBRANCH  15  27
TORSDOF 2
ENDMDL
MODEL 6
REMARK VINA RESULT:      -6.3      4.449      8.527
REMARK  Name = 
REMARK  5 active torsions:
REMARK  status: ('A' for Active; 'I' for Inactive)
REMARK    1  A    between atoms: C_1  and  C_2
REMARK    2  A    between atoms: C_8  and  C_9
REMARK    3  A    between atoms: C_21  and  C_22
REMARK    4  A    between atoms: C_21  and  C_23
REMARK    5  A    between atoms: C_24  and  O_25
REMARK                            x       y       z     vdW  Elec       q    Type
REMARK                         _______ _______ _______ _____ _____    ______ ____
ROOT
ATOM      1  C   UNL     1      -3.867  13.106  22.657  0.00  0.00    +0.000 C 
ATOM      2  C   UNL     1      -3.703  13.790  21.288  0.00  0.00    +0.000 C 
ATOM      3  C   UNL     1      -3.413  12.791  20.161  0.00  0.00    +0.000 A 
ATOM      4  C   UNL     1      -4.394  12.541  19.187  0.00  0.00    +0.000 A 
ATOM      5  C   UNL     1      -4.136  11.578  18.214  0.00  0.00    +0.000 A 
ATOM      6  C   UNL     1      -2.978  10.784  18.252  0.00  0.00    +0.000 A 
ATOM      7 CL   UNL     1      -2.984   9.484  17.096  0.00  0.00    +0.000 Cl
ATOM      8  C   UNL     1      -1.927  11.029  19.170  0.00  0.00    +0.000 A 
ATOM      9  C   UNL     1      -2.160  12.109  20.074  0.00  0.00    +0.000 A 
ATOM     10 CL   UNL     1      -0.841  12.774  21.013  0.00  0.00    +0.000 Cl
ATOM     11  N   UNL     1      -5.559  13.317  19.058  0.00  0.00    +0.000 N 
ATOM     12  C   UNL     1      -6.079  13.937  20.288  0.00  0.00    +0.000 C 
ATOM     13  C   UNL     1      -6.748  12.852  21.152  0.00  0.00    +0.000 C 
ATOM     14  C   UNL     1      -7.168  14.957  19.894  0.00  0.00    +0.000 C 
ATOM     15  C   UNL     1      -4.908  14.691  20.963  0.00  0.00    +0.000 C 
ATOM     16  H   UNL     1      -6.284  12.862  18.505  0.00  0.00    +0.000 HD
ENDROOT
BRANCH   8  17
ATOM     17  C   UNL     1      -0.648  10.241  19.148  0.00  0.00    +0.000 A 
ATOM     18  C   UNL     1       0.138  10.120  17.974  0.00  0.00    +0.000 A 
ATOM     19  C   UNL     1       1.318   9.380  17.907  0.00  0.00    +0.000 A 
ATOM     20  C   UNL     1       1.837   8.781  19.049  0.00  0.00    +0.000 A 
ATOM     21  C   UNL     1       1.137   8.907  20.259  0.00  0.00    +0.000 A 
ATOM     22  C   UNL     1       1.449   8.515  21.591  0.00  0.00    +0.000 A 
ATOM     23  C   UNL     1       0.414   8.922  22.395  0.00  0.00    +0.000 A 
ATOM     24  N   UNL     1      -0.545   9.465  21.584  0.00  0.00    +0.000 N 
ATOM     25  C   UNL     1      -0.093   9.579  20.280  0.00  0.00    +0.000 A 
ATOM     26  H   UNL     1      -1.397   9.889  21.921  0.00  0.00    +0.000 HD
ENDBRANCH   8  17
BRANCH  15  27
ATOM     27  O   UNL     1      -4.440  15.714  20.053  0.00  0.00    +0.000 OA
ATOM     28  H   UNL     1      -4.080  15.224  19.292  0.00  0.00    +0.000 HD
ENDBRANCH  15  27
TORSDOF 2
ENDMDL
MODEL 7
REMARK VINA RESULT:      -6.3      2.356      7.374
REMARK  Name = 
REMARK  5 active torsions:
REMARK  status: ('A' for Active; 'I' for Inactive)
REMARK    1  A    between atoms: C_1  and  C_2
REMARK    2  A    between atoms: C_8  and  C_9
REMARK    3  A    between atoms: C_21  and  C_22
REMARK    4  A    between atoms: C_21  and  C_23
REMARK    5  A    between atoms: C_24  and  O_25
REMARK                            x       y       z     vdW  Elec       q    Type
REMARK                         _______ _______ _______ _____ _____    ______ ____
ROOT
ATOM      1  C   UNL     1      -1.107  10.457  21.062  0.00  0.00    +0.000 C 
ATOM      2  C   UNL     1       0.374  10.852  20.934  0.00  0.00    +0.000 C 
ATOM      3  C   UNL     1       1.154   9.917  20.001  0.00  0.00    +0.000 A 
ATOM      4  C   UNL     1       1.595  10.393  18.754  0.00  0.00    +0.000 A 
ATOM      5  C   UNL     1       2.239   9.506  17.894  0.00  0.00    +0.000 A 
ATOM      6  C   UNL     1       2.357   8.140  18.197  0.00  0.00    +0.000 A 
ATOM      7 CL   UNL     1       2.965   7.182  16.878  0.00  0.00    +0.000 Cl
ATOM      8  C   UNL     1       1.988   7.614  19.460  0.00  0.00    +0.000 A 
ATOM      9  C   UNL     1       1.450   8.570  20.373  0.00  0.00    +0.000 A 
ATOM     10 CL   UNL     1       1.289   8.175  22.071  0.00  0.00    +0.000 Cl
ATOM     11  N   UNL     1       1.550  11.750  18.393  0.00  0.00    +0.000 N 
ATOM     12  C   UNL     1       0.479  12.559  18.999  0.00  0.00    +0.000 C 
ATOM     13  C   UNL     1      -0.859  12.206  18.323  0.00  0.00    +0.000 C 
ATOM     14  C   UNL     1       0.771  14.047  18.708  0.00  0.00    +0.000 C 
ATOM     15  C   UNL     1       0.527  12.330  20.529  0.00  0.00    +0.000 C 
ATOM     16  H   UNL     1       1.642  11.901  17.389  0.00  0.00    +0.000 HD
ENDROOT
BRANCH   8  17
ATOM     17  C   UNL     1       2.203   6.171  19.817  0.00  0.00    +0.000 A 
ATOM     18  C   UNL     1       1.162   5.367  20.348  0.00  0.00    +0.000 A 
ATOM     19  C   UNL     1       1.327   4.031  20.713  0.00  0.00    +0.000 A 
ATOM     20  C   UNL     1       2.535   3.385  20.483  0.00  0.00    +0.000 A 
ATOM     21  C   UNL     1       3.593   4.106  19.909  0.00  0.00    +0.000 A 
ATOM     22  C   UNL     1       4.885   3.717  19.457  0.00  0.00    +0.000 A 
ATOM     23  C   UNL     1       5.498   4.833  18.945  0.00  0.00    +0.000 A 
ATOM     24  N   UNL     1       4.657   5.892  19.150  0.00  0.00    +0.000 N 
ATOM     25  C   UNL     1       3.430   5.472  19.635  0.00  0.00    +0.000 A 
ATOM     26  H   UNL     1       4.839   6.831  18.825  0.00  0.00    +0.000 HD
ENDBRANCH   8  17
BRANCH  15  27
ATOM     27  O   UNL     1       1.817  12.771  21.015  0.00  0.00    +0.000 OA
ATOM     28  H   UNL     1       2.266  11.957  21.304  0.00  0.00    +0.000 HD
ENDBRANCH  15  27
TORSDOF 2
ENDMDL
MODEL 8
REMARK VINA RESULT:      -6.2      5.563      8.954
REMARK  Name = 
REMARK  5 active torsions:
REMARK  status: ('A' for Active; 'I' for Inactive)
REMARK    1  A    between atoms: C_1  and  C_2
REMARK    2  A    between atoms: C_8  and  C_9
REMARK    3  A    between atoms: C_21  and  C_22
REMARK    4  A    between atoms: C_21  and  C_23
REMARK    5  A    between atoms: C_24  and  O_25
REMARK                            x       y       z     vdW  Elec       q    Type
REMARK                         _______ _______ _______ _____ _____    ______ ____
ROOT
ATOM      1  C   UNL     1      -4.308  13.330  24.023  0.00  0.00    +0.000 C 
ATOM      2  C   UNL     1      -2.899  13.892  24.275  0.00  0.00    +0.000 C 
ATOM      3  C   UNL     1      -2.125  14.145  22.974  0.00  0.00    +0.000 A 
ATOM      4  C   UNL     1      -1.869  15.465  22.566  0.00  0.00    +0.000 A 
ATOM      5  C   UNL     1      -1.227  15.671  21.347  0.00  0.00    +0.000 A 
ATOM      6  C   UNL     1      -0.935  14.606  20.478  0.00  0.00    +0.000 A 
ATOM      7 CL   UNL     1      -0.370  15.116  18.913  0.00  0.00    +0.000 Cl
ATOM      8  C   UNL     1      -1.113  13.253  20.858  0.00  0.00    +0.000 A 
ATOM      9  C   UNL     1      -1.651  13.065  22.167  0.00  0.00    +0.000 A 
ATOM     10 CL   UNL     1      -1.592  11.489  22.927  0.00  0.00    +0.000 Cl
ATOM     11  N   UNL     1      -2.094  16.579  23.392  0.00  0.00    +0.000 N 
ATOM     12  C   UNL     1      -3.176  16.457  24.384  0.00  0.00    +0.000 C 
ATOM     13  C   UNL     1      -4.532  16.562  23.661  0.00  0.00    +0.000 C 
ATOM     14  C   UNL     1      -3.075  17.648  25.361  0.00  0.00    +0.000 C 
ATOM     15  C   UNL     1      -2.945  15.144  25.170  0.00  0.00    +0.000 C 
ATOM     16  H   UNL     1      -2.123  17.459  22.878  0.00  0.00    +0.000 HD
ENDROOT
BRANCH   8  17
ATOM     17  C   UNL     1      -0.711  12.114  19.966  0.00  0.00    +0.000 A 
ATOM     18  C   UNL     1       0.517  11.425  20.136  0.00  0.00    +0.000 A 
ATOM     19  C   UNL     1       0.936  10.378  19.316  0.00  0.00    +0.000 A 
ATOM     20  C   UNL     1       0.100   9.892  18.318  0.00  0.00    +0.000 A 
ATOM     21  C   UNL     1      -1.154  10.491  18.130  0.00  0.00    +0.000 A 
ATOM     22  C   UNL     1      -2.256  10.165  17.289  0.00  0.00    +0.000 A 
ATOM     23  C   UNL     1      -3.250  11.077  17.540  0.00  0.00    +0.000 A 
ATOM     24  N   UNL     1      -2.756  11.988  18.433  0.00  0.00    +0.000 N 
ATOM     25  C   UNL     1      -1.514  11.601  18.908  0.00  0.00    +0.000 A 
ATOM     26  H   UNL     1      -3.296  12.744  18.829  0.00  0.00    +0.000 HD
ENDBRANCH   8  17
BRANCH  15  27
ATOM     27  O   UNL     1      -1.666  15.234  25.840  0.00  0.00    +0.000 OA
ATOM     28  H   UNL     1      -1.884  15.275  26.789  0.00  0.00    +0.000 HD
ENDBRANCH  15  27
TORSDOF 2
ENDMDL
MODEL 9
REMARK VINA RESULT:      -6.1      9.394     11.418
REMARK  Name = 
REMARK  5 active torsions:
REMARK  status: ('A' for Active; 'I' for Inactive)
REMARK    1  A    between atoms: C_1  and  C_2
REMARK    2  A    between atoms: C_8  and  C_9
REMARK    3  A    between atoms: C_21  and  C_22
REMARK    4  A    between atoms: C_21  and  C_23
REMARK    5  A    between atoms: C_24  and  O_25
REMARK                            x       y       z     vdW  Elec       q    Type
REMARK                         _______ _______ _______ _____ _____    ______ ____
ROOT
ATOM      1  C   UNL     1       5.897  13.240  24.446  0.00  0.00    +0.000 C 
ATOM      2  C   UNL     1       7.328  13.221  25.010  0.00  0.00    +0.000 C 
ATOM      3  C   UNL     1       8.352  13.818  24.038  0.00  0.00    +0.000 A 
ATOM      4  C   UNL     1       8.951  15.055  24.335  0.00  0.00    +0.000 A 
ATOM      5  C   UNL     1       9.825  15.611  23.404  0.00  0.00    +0.000 A 
ATOM      6  C   UNL     1      10.031  15.025  22.144  0.00  0.00    +0.000 A 
ATOM      7 CL   UNL     1      10.956  16.018  21.055  0.00  0.00    +0.000 Cl
ATOM      8  C   UNL     1       9.505  13.752  21.810  0.00  0.00    +0.000 A 
ATOM      9  C   UNL     1       8.720  13.142  22.834  0.00  0.00    +0.000 A 
ATOM     10 CL   UNL     1       8.308  11.443  22.736  0.00  0.00    +0.000 Cl
ATOM     11  N   UNL     1       8.827  15.684  25.585  0.00  0.00    +0.000 N 
ATOM     12  C   UNL     1       7.587  15.421  26.336  0.00  0.00    +0.000 C 
ATOM     13  C   UNL     1       6.432  16.206  25.687  0.00  0.00    +0.000 C 
ATOM     14  C   UNL     1       7.768  15.959  27.772  0.00  0.00    +0.000 C 
ATOM     15  C   UNL     1       7.393  13.887  26.397  0.00  0.00    +0.000 C 
ATOM     16  H   UNL     1       9.076  16.672  25.563  0.00  0.00    +0.000 HD
ENDROOT
BRANCH   8  17
ATOM     17  C   UNL     1       9.805  13.084  20.499  0.00  0.00    +0.000 A 
ATOM     18  C   UNL     1      10.871  12.159  20.355  0.00  0.00    +0.000 A 
ATOM     19  C   UNL     1      11.196  11.535  19.151  0.00  0.00    +0.000 A 
ATOM     20  C   UNL     1      10.407  11.733  18.024  0.00  0.00    +0.000 A 
ATOM     21  C   UNL     1       9.302  12.593  18.110  0.00  0.00    +0.000 A 
ATOM     22  C   UNL     1       8.263  12.913  17.192  0.00  0.00    +0.000 A 
ATOM     23  C   UNL     1       7.417  13.794  17.817  0.00  0.00    +0.000 A 
ATOM     24  N   UNL     1       7.955  14.082  19.041  0.00  0.00    +0.000 N 
ATOM     25  C   UNL     1       9.051  13.279  19.307  0.00  0.00    +0.000 A 
ATOM     26  H   UNL     1       7.510  14.670  19.732  0.00  0.00    +0.000 HD
ENDBRANCH   8  17
BRANCH  15  27
ATOM     27  O   UNL     1       8.525  13.312  27.091  0.00  0.00    +0.000 OA
ATOM     28  H   UNL     1       8.345  13.472  28.035  0.00  0.00    +0.000 HD
ENDBRANCH  15  27
TORSDOF 2
ENDMDL
