MODEL 1
REMARK VINA RESULT:      -6.3      0.000      0.000
REMARK  Name = 
REMARK  8 active torsions:
REMARK  status: ('A' for Active; 'I' for Inactive)
REMARK    1  A    between atoms: C_1  and  C_2
REMARK    2  A    between atoms: C_2  and  C_3
REMARK    3  A    between atoms: C_3  and  C_10
REMARK    4  A    between atoms: N_4  and  N_5
REMARK    5  A    between atoms: N_5  and  C_6
REMARK    6  A    between atoms: C_6  and  N_8
REMARK    7  A    between atoms: N_8  and  C_9
REMARK    8  A    between atoms: C_13  and  C_14
REMARK                            x       y       z     vdW  Elec       q    Type
REMARK                         _______ _______ _______ _____ _____    ______ ____
ROOT
ATOM      1  C   UNL     1       5.155   4.910  16.735  0.00  0.00    +0.000 C 
ATOM      2  N   UNL     1       5.282   6.159  17.103  0.00  0.00    +0.000 NA
ENDROOT
BRANCH   1   3
ATOM      3  C   UNL     1       3.953   4.186  17.266  0.00  0.00    +0.000 A 
ATOM      4  C   UNL     1       2.846   4.947  17.667  0.00  0.00    +0.000 A 
ATOM      5  C   UNL     1       1.706   4.330  18.194  0.00  0.00    +0.000 A 
ATOM      6  C   UNL     1       1.658   2.940  18.336  0.00  0.00    +0.000 A 
ATOM      7  C   UNL     1       0.463   2.259  18.936  0.00  0.00    +0.000 C 
ATOM      8  C   UNL     1       2.748   2.178  17.901  0.00  0.00    +0.000 A 
ATOM      9  C   UNL     1       3.873   2.796  17.342  0.00  0.00    +0.000 A 
ENDBRANCH   1   3
BRANCH   1  11
ATOM     10  C   UNL     1       5.959   4.003  14.371  0.00  0.00    +0.000 C 
ATOM     11  C   UNL     1       6.201   4.209  15.853  0.00  0.00    +0.000 C 
ENDBRANCH   1  11
BRANCH   2  12
ATOM     12  N   UNL     1       6.350   6.905  16.702  0.00  0.00    +0.000 N 
ATOM     13  H   UNL     1       6.410   7.215  15.747  0.00  0.00    +0.000 HD
BRANCH  12  14
ATOM     14  C   UNL     1       7.349   7.273  17.608  0.00  0.00    +0.000 C 
ATOM     15  S   UNL     1       7.955   6.273  18.811  0.00  0.00    +0.000 S 
BRANCH  14  16
ATOM     16  N   UNL     1       7.773   8.576  17.379  0.00  0.00    +0.000 N 
ATOM     17  C   UNL     1       8.544   9.420  18.277  0.00  0.00    +0.000 C 
ATOM     18  H   UNL     1       7.522   8.995  16.499  0.00  0.00    +0.000 HD
ENDBRANCH  14  16
ENDBRANCH  12  14
ENDBRANCH   2  12
TORSDOF 5
ENDMDL
MODEL 2
REMARK VINA RESULT:      -6.1      4.156      5.960
REMARK  Name = 
REMARK  8 active torsions:
REMARK  status: ('A' for Active; 'I' for Inactive)
REMARK    1  A    between atoms: C_1  and  C_2
REMARK    2  A    between atoms: C_2  and  C_3
REMARK    3  A    between atoms: C_3  and  C_10
REMARK    4  A    between atoms: N_4  and  N_5
REMARK    5  A    between atoms: N_5  and  C_6
REMARK    6  A    between atoms: C_6  and  N_8
REMARK    7  A    between atoms: N_8  and  C_9
REMARK    8  A    between atoms: C_13  and  C_14
REMARK                            x       y       z     vdW  Elec       q    Type
REMARK                         _______ _______ _______ _____ _____    ______ ____
ROOT
ATOM      1  C   UNL     1       2.714   5.816  19.639  0.00  0.00    +0.000 C 
ATOM      2  N   UNL     1       2.376   7.063  19.845  0.00  0.00    +0.000 NA
ENDROOT
BRANCH   1   3
ATOM      3  C   UNL     1       3.529   5.550  18.409  0.00  0.00    +0.000 A 
ATOM      4  C   UNL     1       4.088   6.645  17.735  0.00  0.00    +0.000 A 
ATOM      5  C   UNL     1       4.837   6.462  16.568  0.00  0.00    +0.000 A 
ATOM      6  C   UNL     1       5.034   5.179  16.049  0.00  0.00    +0.000 A 
ATOM      7  C   UNL     1       5.799   4.961  14.777  0.00  0.00    +0.000 C 
ATOM      8  C   UNL     1       4.509   4.082  16.742  0.00  0.00    +0.000 A 
ATOM      9  C   UNL     1       3.789   4.267  17.929  0.00  0.00    +0.000 A 
ENDBRANCH   1   3
BRANCH   1  11
ATOM     10  C   UNL     1       0.957   3.946  20.329  0.00  0.00    +0.000 C 
ATOM     11  C   UNL     1       2.260   4.683  20.573  0.00  0.00    +0.000 C 
ENDBRANCH   1  11
BRANCH   2  12
ATOM     12  N   UNL     1       1.612   7.417  20.917  0.00  0.00    +0.000 N 
ATOM     13  H   UNL     1       1.418   6.739  21.635  0.00  0.00    +0.000 HD
BRANCH  12  14
ATOM     14  C   UNL     1       1.119   8.718  21.049  0.00  0.00    +0.000 C 
ATOM     15  S   UNL     1       0.741   9.725  19.762  0.00  0.00    +0.000 S 
BRANCH  14  16
ATOM     16  N   UNL     1       0.983   9.065  22.387  0.00  0.00    +0.000 N 
ATOM     17  C   UNL     1      -0.160   9.707  23.017  0.00  0.00    +0.000 C 
ATOM     18  H   UNL     1       1.755   8.858  22.999  0.00  0.00    +0.000 HD
ENDBRANCH  14  16
ENDBRANCH  12  14
ENDBRANCH   2  12
TORSDOF 5
ENDMDL
MODEL 3
REMARK VINA RESULT:      -6.1      4.203      6.090
REMARK  Name = 
REMARK  8 active torsions:
REMARK  status: ('A' for Active; 'I' for Inactive)
REMARK    1  A    between atoms: C_1  and  C_2
REMARK    2  A    between atoms: C_2  and  C_3
REMARK    3  A    between atoms: C_3  and  C_10
REMARK    4  A    between atoms: N_4  and  N_5
REMARK    5  A    between atoms: N_5  and  C_6
REMARK    6  A    between atoms: C_6  and  N_8
REMARK    7  A    between atoms: N_8  and  C_9
REMARK    8  A    between atoms: C_13  and  C_14
REMARK                            x       y       z     vdW  Elec       q    Type
REMARK                         _______ _______ _______ _____ _____    ______ ____
ROOT
ATOM      1  C   UNL     1       2.726   5.925  19.630  0.00  0.00    +0.000 C 
ATOM      2  N   UNL     1       2.360   7.160  19.860  0.00  0.00    +0.000 NA
ENDROOT
BRANCH   1   3
ATOM      3  C   UNL     1       3.517   5.695  18.377  0.00  0.00    +0.000 A 
ATOM      4  C   UNL     1       3.682   4.376  17.930  0.00  0.00    +0.000 A 
ATOM      5  C   UNL     1       4.431   4.097  16.783  0.00  0.00    +0.000 A 
ATOM      6  C   UNL     1       5.036   5.132  16.066  0.00  0.00    +0.000 A 
ATOM      7  C   UNL     1       5.878   4.854  14.855  0.00  0.00    +0.000 C 
ATOM      8  C   UNL     1       4.841   6.452  16.489  0.00  0.00    +0.000 A 
ATOM      9  C   UNL     1       4.062   6.730  17.619  0.00  0.00    +0.000 A 
ENDBRANCH   1   3
BRANCH   1  11
ATOM     10  C   UNL     1       1.004   4.045  20.380  0.00  0.00    +0.000 C 
ATOM     11  C   UNL     1       2.324   4.769  20.561  0.00  0.00    +0.000 C 
ENDBRANCH   1  11
BRANCH   2  12
ATOM     12  N   UNL     1       1.614   7.481  20.955  0.00  0.00    +0.000 N 
ATOM     13  H   UNL     1       1.473   6.797  21.678  0.00  0.00    +0.000 HD
BRANCH  12  14
ATOM     14  C   UNL     1       1.067   8.759  21.100  0.00  0.00    +0.000 C 
ATOM     15  S   UNL     1       0.709   9.789  19.827  0.00  0.00    +0.000 S 
BRANCH  14  16
ATOM     16  N   UNL     1       0.858   9.060  22.440  0.00  0.00    +0.000 N 
ATOM     17  C   UNL     1      -0.252   9.806  23.011  0.00  0.00    +0.000 C 
ATOM     18  H   UNL     1       1.546   8.736  23.099  0.00  0.00    +0.000 HD
ENDBRANCH  14  16
ENDBRANCH  12  14
ENDBRANCH   2  12
TORSDOF 5
ENDMDL
MODEL 4
REMARK VINA RESULT:      -6.1      3.131      4.293
REMARK  Name = 
REMARK  8 active torsions:
REMARK  status: ('A' for Active; 'I' for Inactive)
REMARK    1  A    between atoms: C_1  and  C_2
REMARK    2  A    between atoms: C_2  and  C_3
REMARK    3  A    between atoms: C_3  and  C_10
REMARK    4  A    between atoms: N_4  and  N_5
REMARK    5  A    between atoms: N_5  and  C_6
REMARK    6  A    between atoms: C_6  and  N_8
REMARK    7  A    between atoms: N_8  and  C_9
REMARK    8  A    between atoms: C_13  and  C_14
REMARK                            x       y       z     vdW  Elec       q    Type
REMARK                         _______ _______ _______ _____ _____    ______ ____
ROOT
ATOM      1  C   UNL     1       3.540   6.449  17.753  0.00  0.00    +0.000 C 
ATOM      2  N   UNL     1       4.609   6.974  17.210  0.00  0.00    +0.000 NA
ENDROOT
BRANCH   1   3
ATOM      3  C   UNL     1       2.649   7.395  18.500  0.00  0.00    +0.000 A 
ATOM      4  C   UNL     1       2.129   8.500  17.810  0.00  0.00    +0.000 A 
ATOM      5  C   UNL     1       1.312   9.431  18.460  0.00  0.00    +0.000 A 
ATOM      6  C   UNL     1       1.007   9.278  19.815  0.00  0.00    +0.000 A 
ATOM      7  C   UNL     1       0.166  10.285  20.544  0.00  0.00    +0.000 C 
ATOM      8  C   UNL     1       1.494   8.155  20.495  0.00  0.00    +0.000 A 
ATOM      9  C   UNL     1       2.283   7.207  19.832  0.00  0.00    +0.000 A 
ENDBRANCH   1   3
BRANCH   1  11
ATOM     10  C   UNL     1       1.817   4.428  17.689  0.00  0.00    +0.000 C 
ATOM     11  C   UNL     1       3.242   4.943  17.675  0.00  0.00    +0.000 C 
ENDBRANCH   1  11
BRANCH   2  12
ATOM     12  N   UNL     1       5.504   6.202  16.531  0.00  0.00    +0.000 N 
ATOM     13  H   UNL     1       5.223   5.748  15.678  0.00  0.00    +0.000 HD
BRANCH  12  14
ATOM     14  C   UNL     1       6.817   6.057  16.986  0.00  0.00    +0.000 C 
ATOM     15  S   UNL     1       7.417   4.680  17.732  0.00  0.00    +0.000 S 
BRANCH  14  16
ATOM     16  N   UNL     1       7.559   7.206  16.739  0.00  0.00    +0.000 N 
ATOM     17  C   UNL     1       7.894   8.257  17.686  0.00  0.00    +0.000 C 
ATOM     18  H   UNL     1       7.906   7.338  15.803  0.00  0.00    +0.000 HD
ENDBRANCH  14  16
ENDBRANCH  12  14
ENDBRANCH   2  12
TORSDOF 5
ENDMDL
MODEL 5
REMARK VINA RESULT:      -6.1      0.458      1.281
REMARK  Name = 
REMARK  8 active torsions:
REMARK  status: ('A' for Active; 'I' for Inactive)
REMARK    1  A    between atoms: C_1  and  C_2
REMARK    2  A    between atoms: C_2  and  C_3
REMARK    3  A    between atoms: C_3  and  C_10
REMARK    4  A    between atoms: N_4  and  N_5
REMARK    5  A    between atoms: N_5  and  C_6
REMARK    6  A    between atoms: C_6  and  N_8
REMARK    7  A    between atoms: N_8  and  C_9
REMARK    8  A    between atoms: C_13  and  C_14
REMARK                            x       y       z     vdW  Elec       q    Type
REMARK                         _______ _______ _______ _____ _____    ______ ____
ROOT
ATOM      1  C   UNL     1       4.781   5.286  16.564  0.00  0.00    +0.000 C 
ATOM      2  N   UNL     1       5.312   6.235  17.292  0.00  0.00    +0.000 NA
ENDROOT
BRANCH   1   3
ATOM      3  C   UNL     1       3.675   4.503  17.206  0.00  0.00    +0.000 A 
ATOM      4  C   UNL     1       3.768   3.104  17.206  0.00  0.00    +0.000 A 
ATOM      5  C   UNL     1       2.755   2.320  17.768  0.00  0.00    +0.000 A 
ATOM      6  C   UNL     1       1.626   2.922  18.331  0.00  0.00    +0.000 A 
ATOM      7  C   UNL     1       0.508   2.100  18.903  0.00  0.00    +0.000 C 
ATOM      8  C   UNL     1       1.551   4.319  18.365  0.00  0.00    +0.000 A 
ATOM      9  C   UNL     1       2.583   5.101  17.833  0.00  0.00    +0.000 A 
ENDBRANCH   1   3
BRANCH   1  11
ATOM     10  C   UNL     1       6.378   3.917  14.940  0.00  0.00    +0.000 C 
ATOM     11  C   UNL     1       5.297   4.958  15.153  0.00  0.00    +0.000 C 
ENDBRANCH   1  11
BRANCH   2  12
ATOM     12  N   UNL     1       6.342   6.992  16.820  0.00  0.00    +0.000 N 
ATOM     13  H   UNL     1       6.324   7.320  15.870  0.00  0.00    +0.000 HD
BRANCH  12  14
ATOM     14  C   UNL     1       7.411   7.345  17.649  0.00  0.00    +0.000 C 
ATOM     15  S   UNL     1       8.050   6.359  18.846  0.00  0.00    +0.000 S 
BRANCH  14  16
ATOM     16  N   UNL     1       7.875   8.619  17.347  0.00  0.00    +0.000 N 
ATOM     17  C   UNL     1       8.544   9.547  18.245  0.00  0.00    +0.000 C 
ATOM     18  H   UNL     1       7.735   8.950  16.407  0.00  0.00    +0.000 HD
ENDBRANCH  14  16
ENDBRANCH  12  14
ENDBRANCH   2  12
TORSDOF 5
ENDMDL
MODEL 6
REMARK VINA RESULT:      -6.0      3.840      6.061
REMARK  Name = 
REMARK  8 active torsions:
REMARK  status: ('A' for Active; 'I' for Inactive)
REMARK    1  A    between atoms: C_1  and  C_2
REMARK    2  A    between atoms: C_2  and  C_3
REMARK    3  A    between atoms: C_3  and  C_10
REMARK    4  A    between atoms: N_4  and  N_5
REMARK    5  A    between atoms: N_5  and  C_6
REMARK    6  A    between atoms: C_6  and  N_8
REMARK    7  A    between atoms: N_8  and  C_9
REMARK    8  A    between atoms: C_13  and  C_14
REMARK                            x       y       z     vdW  Elec       q    Type
REMARK                         _______ _______ _______ _____ _____    ______ ____
ROOT
ATOM      1  C   UNL     1       2.843   6.116  19.693  0.00  0.00    +0.000 C 
ATOM      2  N   UNL     1       3.987   5.926  19.086  0.00  0.00    +0.000 NA
ENDROOT
BRANCH   1   3
ATOM      3  C   UNL     1       2.171   7.431  19.433  0.00  0.00    +0.000 A 
ATOM      4  C   UNL     1       1.509   8.058  20.499  0.00  0.00    +0.000 A 
ATOM      5  C   UNL     1       0.843   9.274  20.312  0.00  0.00    +0.000 A 
ATOM      6  C   UNL     1       0.820   9.880  19.053  0.00  0.00    +0.000 A 
ATOM      7  C   UNL     1       0.077  11.163  18.818  0.00  0.00    +0.000 C 
ATOM      8  C   UNL     1       1.512   9.274  17.998  0.00  0.00    +0.000 A 
ATOM      9  C   UNL     1       2.208   8.075  18.197  0.00  0.00    +0.000 A 
ENDBRANCH   1   3
BRANCH   1  11
ATOM     10  C   UNL     1       1.145   4.138  20.205  0.00  0.00    +0.000 C 
ATOM     11  C   UNL     1       2.248   5.076  20.655  0.00  0.00    +0.000 C 
ENDBRANCH   1  11
BRANCH   2  12
ATOM     12  N   UNL     1       4.699   4.779  19.271  0.00  0.00    +0.000 N 
ATOM     13  H   UNL     1       5.220   4.647  20.121  0.00  0.00    +0.000 HD
BRANCH  12  14
ATOM     14  C   UNL     1       4.691   3.767  18.306  0.00  0.00    +0.000 C 
ATOM     15  S   UNL     1       4.949   4.015  16.668  0.00  0.00    +0.000 S 
BRANCH  14  16
ATOM     16  N   UNL     1       4.443   2.529  18.886  0.00  0.00    +0.000 N 
ATOM     17  C   UNL     1       3.469   1.538  18.458  0.00  0.00    +0.000 C 
ATOM     18  H   UNL     1       4.987   2.281  19.695  0.00  0.00    +0.000 HD
ENDBRANCH  14  16
ENDBRANCH  12  14
ENDBRANCH   2  12
TORSDOF 5
ENDMDL
MODEL 7
REMARK VINA RESULT:      -6.0      3.869      5.665
REMARK  Name = 
REMARK  8 active torsions:
REMARK  status: ('A' for Active; 'I' for Inactive)
REMARK    1  A    between atoms: C_1  and  C_2
REMARK    2  A    between atoms: C_2  and  C_3
REMARK    3  A    between atoms: C_3  and  C_10
REMARK    4  A    between atoms: N_4  and  N_5
REMARK    5  A    between atoms: N_5  and  C_6
REMARK    6  A    between atoms: C_6  and  N_8
REMARK    7  A    between atoms: N_8  and  C_9
REMARK    8  A    between atoms: C_13  and  C_14
REMARK                            x       y       z     vdW  Elec       q    Type
REMARK                         _______ _______ _______ _____ _____    ______ ____
ROOT
ATOM      1  C   UNL     1       2.859   6.045  19.685  0.00  0.00    +0.000 C 
ATOM      2  N   UNL     1       3.980   5.829  19.046  0.00  0.00    +0.000 NA
ENDROOT
BRANCH   1   3
ATOM      3  C   UNL     1       2.200   7.368  19.430  0.00  0.00    +0.000 A 
ATOM      4  C   UNL     1       1.554   8.004  20.500  0.00  0.00    +0.000 A 
ATOM      5  C   UNL     1       0.900   9.227  20.317  0.00  0.00    +0.000 A 
ATOM      6  C   UNL     1       0.874   9.832  19.057  0.00  0.00    +0.000 A 
ATOM      7  C   UNL     1       0.145  11.123  18.827  0.00  0.00    +0.000 C 
ATOM      8  C   UNL     1       1.551   9.217  17.998  0.00  0.00    +0.000 A 
ATOM      9  C   UNL     1       2.234   8.010  18.193  0.00  0.00    +0.000 A 
ENDBRANCH   1   3
BRANCH   1  11
ATOM     10  C   UNL     1       1.061   4.195  20.321  0.00  0.00    +0.000 C 
ATOM     11  C   UNL     1       2.277   5.026  20.679  0.00  0.00    +0.000 C 
ENDBRANCH   1  11
BRANCH   2  12
ATOM     12  N   UNL     1       4.679   4.672  19.223  0.00  0.00    +0.000 N 
ATOM     13  H   UNL     1       5.139   4.498  20.100  0.00  0.00    +0.000 HD
BRANCH  12  14
ATOM     14  C   UNL     1       4.740   3.709  18.212  0.00  0.00    +0.000 C 
ATOM     15  S   UNL     1       3.604   2.497  17.985  0.00  0.00    +0.000 S 
BRANCH  14  16
ATOM     16  N   UNL     1       5.867   3.891  17.420  0.00  0.00    +0.000 N 
ATOM     17  C   UNL     1       7.072   4.629  17.763  0.00  0.00    +0.000 C 
ATOM     18  H   UNL     1       5.859   3.475  16.504  0.00  0.00    +0.000 HD
ENDBRANCH  14  16
ENDBRANCH  12  14
ENDBRANCH   2  12
TORSDOF 5
ENDMDL
MODEL 8
REMARK VINA RESULT:      -6.0      3.900      5.663
REMARK  Name = 
REMARK  8 active torsions:
REMARK  status: ('A' for Active; 'I' for Inactive)
REMARK    1  A    between atoms: C_1  and  C_2
REMARK    2  A    between atoms: C_2  and  C_3
REMARK    3  A    between atoms: C_3  and  C_10
REMARK    4  A    between atoms: N_4  and  N_5
REMARK    5  A    between atoms: N_5  and  C_6
REMARK    6  A    between atoms: C_6  and  N_8
REMARK    7  A    between atoms: N_8  and  C_9
REMARK    8  A    between atoms: C_13  and  C_14
REMARK                            x       y       z     vdW  Elec       q    Type
REMARK                         _______ _______ _______ _____ _____    ______ ____
ROOT
ATOM      1  C   UNL     1       2.800   5.755  19.562  0.00  0.00    +0.000 C 
ATOM      2  N   UNL     1       2.478   7.008  19.763  0.00  0.00    +0.000 NA
ENDROOT
BRANCH   1   3
ATOM      3  C   UNL     1       3.617   5.474  18.337  0.00  0.00    +0.000 A 
ATOM      4  C   UNL     1       4.168   6.561  17.643  0.00  0.00    +0.000 A 
ATOM      5  C   UNL     1       4.918   6.363  16.480  0.00  0.00    +0.000 A 
ATOM      6  C   UNL     1       5.125   5.073  15.984  0.00  0.00    +0.000 A 
ATOM      7  C   UNL     1       5.892   4.838  14.716  0.00  0.00    +0.000 C 
ATOM      8  C   UNL     1       4.608   3.985  16.696  0.00  0.00    +0.000 A 
ATOM      9  C   UNL     1       3.886   4.185  17.879  0.00  0.00    +0.000 A 
ENDBRANCH   1   3
BRANCH   1  11
ATOM     10  C   UNL     1       0.988   3.950  20.280  0.00  0.00    +0.000 C 
ATOM     11  C   UNL     1       2.324   4.632  20.497  0.00  0.00    +0.000 C 
ENDBRANCH   1  11
BRANCH   2  12
ATOM     12  N   UNL     1       1.715   7.375  20.830  0.00  0.00    +0.000 N 
ATOM     13  H   UNL     1       1.563   6.724  21.582  0.00  0.00    +0.000 HD
BRANCH  12  14
ATOM     14  C   UNL     1       1.163   8.657  20.910  0.00  0.00    +0.000 C 
ATOM     15  S   UNL     1       0.683   9.398  22.336  0.00  0.00    +0.000 S 
BRANCH  14  16
ATOM     16  N   UNL     1       1.067   9.236  19.651  0.00  0.00    +0.000 N 
ATOM     17  C   UNL     1       0.957  10.653  19.341  0.00  0.00    +0.000 C 
ATOM     18  H   UNL     1       1.068   8.618  18.857  0.00  0.00    +0.000 HD
ENDBRANCH  14  16
ENDBRANCH  12  14
ENDBRANCH   2  12
TORSDOF 5
ENDMDL
MODEL 9
REMARK VINA RESULT:      -6.0      3.964      5.811
REMARK  Name = 
REMARK  8 active torsions:
REMARK  status: ('A' for Active; 'I' for Inactive)
REMARK    1  A    between atoms: C_1  and  C_2
REMARK    2  A    between atoms: C_2  and  C_3
REMARK    3  A    between atoms: C_3  and  C_10
REMARK    4  A    between atoms: N_4  and  N_5
REMARK    5  A    between atoms: N_5  and  C_6
REMARK    6  A    between atoms: C_6  and  N_8
REMARK    7  A    between atoms: N_8  and  C_9
REMARK    8  A    between atoms: C_13  and  C_14
REMARK                            x       y       z     vdW  Elec       q    Type
REMARK                         _______ _______ _______ _____ _____    ______ ____
ROOT
ATOM      1  C   UNL     1       2.758   5.897  19.525  0.00  0.00    +0.000 C 
ATOM      2  N   UNL     1       2.400   7.135  19.757  0.00  0.00    +0.000 NA
ENDROOT
BRANCH   1   3
ATOM      3  C   UNL     1       3.556   5.666  18.277  0.00  0.00    +0.000 A 
ATOM      4  C   UNL     1       3.696   4.349  17.815  0.00  0.00    +0.000 A 
ATOM      5  C   UNL     1       4.449   4.068  16.671  0.00  0.00    +0.000 A 
ATOM      6  C   UNL     1       5.084   5.099  15.973  0.00  0.00    +0.000 A 
ATOM      7  C   UNL     1       5.931   4.817  14.766  0.00  0.00    +0.000 C 
ATOM      8  C   UNL     1       4.913   6.417  16.411  0.00  0.00    +0.000 A 
ATOM      9  C   UNL     1       4.130   6.698  17.537  0.00  0.00    +0.000 A 
ENDBRANCH   1   3
BRANCH   1  11
ATOM     10  C   UNL     1       0.990   4.071  20.298  0.00  0.00    +0.000 C 
ATOM     11  C   UNL     1       2.341   4.742  20.450  0.00  0.00    +0.000 C 
ENDBRANCH   1  11
BRANCH   2  12
ATOM     12  N   UNL     1       1.649   7.457  20.848  0.00  0.00    +0.000 N 
ATOM     13  H   UNL     1       1.554   6.796  21.600  0.00  0.00    +0.000 HD
BRANCH  12  14
ATOM     14  C   UNL     1       1.033   8.708  20.950  0.00  0.00    +0.000 C 
ATOM     15  S   UNL     1       0.532   9.404  22.391  0.00  0.00    +0.000 S 
BRANCH  14  16
ATOM     16  N   UNL     1       0.893   9.297  19.700  0.00  0.00    +0.000 N 
ATOM     17  C   UNL     1       1.030  10.707  19.372  0.00  0.00    +0.000 C 
ATOM     18  H   UNL     1       0.668   8.693  18.928  0.00  0.00    +0.000 HD
ENDBRANCH  14  16
ENDBRANCH  12  14
ENDBRANCH   2  12
TORSDOF 5
ENDMDL
