MODEL 1
REMARK VINA RESULT:      -8.3      0.000      0.000
REMARK  Name = 
REMARK  6 active torsions:
REMARK  status: ('A' for Active; 'I' for Inactive)
REMARK    1  A    between atoms: C_1  and  O_2
REMARK    2  A    between atoms: O_2  and  C_3
REMARK    3  A    between atoms: C_9  and  C_10
REMARK    4  A    between atoms: C_10  and  C_11
REMARK    5  A    between atoms: C_24  and  O_25
REMARK    6  A    between atoms: O_25  and  C_26
REMARK                            x       y       z     vdW  Elec       q    Type
REMARK                         _______ _______ _______ _____ _____    ______ ____
ROOT
ATOM      1  C   UNL     1       6.313   4.757  16.549  0.00  0.00    +0.000 A 
ATOM      2  C   UNL     1       5.159   3.988  16.346  0.00  0.00    +0.000 A 
ATOM      3  C   UNL     1       4.036   4.123  17.184  0.00  0.00    +0.000 A 
ATOM      4  C   UNL     1       2.846   3.436  16.926  0.00  0.00    +0.000 A 
ATOM      5  N   UNL     1       1.709   3.583  17.638  0.00  0.00    +0.000 NA
ATOM      6  C   UNL     1       1.744   4.471  18.654  0.00  0.00    +0.000 A 
ATOM      7  C   UNL     1       2.875   5.194  19.029  0.00  0.00    +0.000 A 
ATOM      8  C   UNL     1       4.064   4.993  18.285  0.00  0.00    +0.000 A 
ATOM      9  C   UNL     1       5.293   5.633  18.554  0.00  0.00    +0.000 A 
ATOM     10  C   UNL     1       6.406   5.546  17.699  0.00  0.00    +0.000 A 
ENDROOT
BRANCH   1  12
ATOM     11  C   UNL     1       6.962   4.809  14.272  0.00  0.00    +0.000 C 
ATOM     12  O   UNL     1       7.347   4.732  15.648  0.00  0.00    +0.000 OA
ENDBRANCH   1  12
BRANCH  10  13
ATOM     13  O   UNL     1       7.430   6.327  18.159  0.00  0.00    +0.000 OA
ATOM     14  C   UNL     1       7.633   7.626  17.633  0.00  0.00    +0.000 C 
ENDBRANCH  10  13
BRANCH   7  15
ATOM     15  C   UNL     1       2.741   6.238  20.125  0.00  0.00    +0.000 C 
BRANCH  15  16
ATOM     16  C   UNL     1       2.129   7.516  19.621  0.00  0.00    +0.000 A 
ATOM     17  C   UNL     1       2.213   7.962  18.359  0.00  0.00    +0.000 A 
ATOM     18  O   UNL     1       1.630   9.098  17.850  0.00  0.00    +0.000 OA
ATOM     19  C   UNL     1       0.768   9.785  18.666  0.00  0.00    +0.000 A 
ATOM     20  C   UNL     1       0.021  10.813  18.091  0.00  0.00    +0.000 A 
ATOM     21  C   UNL     1      -0.887  11.531  18.872  0.00  0.00    +0.000 A 
ATOM     22  C   UNL     1      -1.032  11.238  20.229  0.00  0.00    +0.000 A 
ATOM     23  C   UNL     1      -0.274  10.218  20.809  0.00  0.00    +0.000 A 
ATOM     24  C   UNL     1       0.616   9.485  20.018  0.00  0.00    +0.000 A 
ATOM     25  C   UNL     1       1.387   8.366  20.587  0.00  0.00    +0.000 A 
ATOM     26  O   UNL     1       1.402   8.142  21.790  0.00  0.00    +0.000 OA
ENDBRANCH  15  16
ENDBRANCH   7  15
TORSDOF 4
ENDMDL
MODEL 2
REMARK VINA RESULT:      -8.2      1.234      2.231
REMARK  Name = 
REMARK  6 active torsions:
REMARK  status: ('A' for Active; 'I' for Inactive)
REMARK    1  A    between atoms: C_1  and  O_2
REMARK    2  A    between atoms: O_2  and  C_3
REMARK    3  A    between atoms: C_9  and  C_10
REMARK    4  A    between atoms: C_10  and  C_11
REMARK    5  A    between atoms: C_24  and  O_25
REMARK    6  A    between atoms: O_25  and  C_26
REMARK                            x       y       z     vdW  Elec       q    Type
REMARK                         _______ _______ _______ _____ _____    ______ ____
ROOT
ATOM      1  C   UNL     1       6.309   5.109  16.465  0.00  0.00    +0.000 A 
ATOM      2  C   UNL     1       5.219   4.285  16.776  0.00  0.00    +0.000 A 
ATOM      3  C   UNL     1       4.024   4.821  17.293  0.00  0.00    +0.000 A 
ATOM      4  C   UNL     1       2.899   4.020  17.509  0.00  0.00    +0.000 A 
ATOM      5  N   UNL     1       1.699   4.483  17.921  0.00  0.00    +0.000 NA
ATOM      6  C   UNL     1       1.602   5.815  18.117  0.00  0.00    +0.000 A 
ATOM      7  C   UNL     1       2.657   6.713  17.966  0.00  0.00    +0.000 A 
ATOM      8  C   UNL     1       3.913   6.194  17.566  0.00  0.00    +0.000 A 
ATOM      9  C   UNL     1       5.080   6.969  17.390  0.00  0.00    +0.000 A 
ATOM     10  C   UNL     1       6.263   6.458  16.829  0.00  0.00    +0.000 A 
ENDROOT
BRANCH   1  12
ATOM     11  C   UNL     1       7.356   4.622  14.397  0.00  0.00    +0.000 C 
ATOM     12  O   UNL     1       7.415   4.608  15.827  0.00  0.00    +0.000 OA
ENDBRANCH   1  12
BRANCH  10  13
ATOM     13  O   UNL     1       7.202   7.444  16.702  0.00  0.00    +0.000 OA
ATOM     14  C   UNL     1       7.927   7.893  17.831  0.00  0.00    +0.000 C 
ENDBRANCH  10  13
BRANCH   7  15
ATOM     15  C   UNL     1       2.376   8.198  18.116  0.00  0.00    +0.000 C 
BRANCH  15  16
ATOM     16  C   UNL     1       1.615   8.509  19.375  0.00  0.00    +0.000 A 
ATOM     17  C   UNL     1       1.788   7.886  20.550  0.00  0.00    +0.000 A 
ATOM     18  O   UNL     1       1.147   8.171  21.732  0.00  0.00    +0.000 OA
ATOM     19  C   UNL     1       0.342   9.282  21.762  0.00  0.00    +0.000 A 
ATOM     20  C   UNL     1      -0.144   9.690  23.004  0.00  0.00    +0.000 A 
ATOM     21  C   UNL     1      -0.950  10.826  23.094  0.00  0.00    +0.000 A 
ATOM     22  C   UNL     1      -1.288  11.541  21.943  0.00  0.00    +0.000 A 
ATOM     23  C   UNL     1      -0.813  11.125  20.697  0.00  0.00    +0.000 A 
ATOM     24  C   UNL     1       0.013  10.000  20.615  0.00  0.00    +0.000 A 
ATOM     25  C   UNL     1       0.577   9.571  19.323  0.00  0.00    +0.000 A 
ATOM     26  O   UNL     1       0.219  10.073  18.266  0.00  0.00    +0.000 OA
ENDBRANCH  15  16
ENDBRANCH   7  15
TORSDOF 4
ENDMDL
MODEL 3
REMARK VINA RESULT:      -8.1      1.742      6.338
REMARK  Name = 
REMARK  6 active torsions:
REMARK  status: ('A' for Active; 'I' for Inactive)
REMARK    1  A    between atoms: C_1  and  O_2
REMARK    2  A    between atoms: O_2  and  C_3
REMARK    3  A    between atoms: C_9  and  C_10
REMARK    4  A    between atoms: C_10  and  C_11
REMARK    5  A    between atoms: C_24  and  O_25
REMARK    6  A    between atoms: O_25  and  C_26
REMARK                            x       y       z     vdW  Elec       q    Type
REMARK                         _______ _______ _______ _____ _____    ______ ____
ROOT
ATOM      1  C   UNL     1       1.764   7.238  20.333  0.00  0.00    +0.000 A 
ATOM      2  C   UNL     1       1.424   5.983  20.857  0.00  0.00    +0.000 A 
ATOM      3  C   UNL     1       1.729   4.797  20.163  0.00  0.00    +0.000 A 
ATOM      4  C   UNL     1       1.488   3.540  20.725  0.00  0.00    +0.000 A 
ATOM      5  N   UNL     1       1.832   2.368  20.151  0.00  0.00    +0.000 NA
ATOM      6  C   UNL     1       2.466   2.442  18.961  0.00  0.00    +0.000 A 
ATOM      7  C   UNL     1       2.736   3.630  18.286  0.00  0.00    +0.000 A 
ATOM      8  C   UNL     1       2.332   4.844  18.896  0.00  0.00    +0.000 A 
ATOM      9  C   UNL     1       2.516   6.123  18.329  0.00  0.00    +0.000 A 
ATOM     10  C   UNL     1       2.262   7.315  19.030  0.00  0.00    +0.000 A 
ENDROOT
BRANCH   1  12
ATOM     11  C   UNL     1       0.240   8.760  21.320  0.00  0.00    +0.000 C 
ATOM     12  O   UNL     1       1.598   8.382  21.074  0.00  0.00    +0.000 OA
ENDBRANCH   1  12
BRANCH  10  13
ATOM     13  O   UNL     1       2.603   8.402  18.273  0.00  0.00    +0.000 OA
ATOM     14  C   UNL     1       1.606   9.296  17.812  0.00  0.00    +0.000 C 
ENDBRANCH  10  13
BRANCH   7  15
ATOM     15  C   UNL     1       3.551   3.570  17.005  0.00  0.00    +0.000 C 
BRANCH  15  16
ATOM     16  C   UNL     1       4.671   4.574  16.995  0.00  0.00    +0.000 A 
ATOM     17  C   UNL     1       4.830   5.537  16.076  0.00  0.00    +0.000 A 
ATOM     18  O   UNL     1       5.810   6.500  16.058  0.00  0.00    +0.000 OA
ATOM     19  C   UNL     1       6.639   6.579  17.148  0.00  0.00    +0.000 A 
ATOM     20  C   UNL     1       7.496   7.676  17.227  0.00  0.00    +0.000 A 
ATOM     21  C   UNL     1       8.346   7.816  18.326  0.00  0.00    +0.000 A 
ATOM     22  C   UNL     1       8.355   6.849  19.334  0.00  0.00    +0.000 A 
ATOM     23  C   UNL     1       7.507   5.742  19.249  0.00  0.00    +0.000 A 
ATOM     24  C   UNL     1       6.641   5.619  18.158  0.00  0.00    +0.000 A 
ATOM     25  C   UNL     1       5.694   4.494  18.069  0.00  0.00    +0.000 A 
ATOM     26  O   UNL     1       5.741   3.550  18.847  0.00  0.00    +0.000 OA
ENDBRANCH  15  16
ENDBRANCH   7  15
TORSDOF 4
ENDMDL
MODEL 4
REMARK VINA RESULT:      -7.7      3.149      8.555
REMARK  Name = 
REMARK  6 active torsions:
REMARK  status: ('A' for Active; 'I' for Inactive)
REMARK    1  A    between atoms: C_1  and  O_2
REMARK    2  A    between atoms: O_2  and  C_3
REMARK    3  A    between atoms: C_9  and  C_10
REMARK    4  A    between atoms: C_10  and  C_11
REMARK    5  A    between atoms: C_24  and  O_25
REMARK    6  A    between atoms: O_25  and  C_26
REMARK                            x       y       z     vdW  Elec       q    Type
REMARK                         _______ _______ _______ _____ _____    ______ ____
ROOT
ATOM      1  C   UNL     1      -3.445  11.412  17.840  0.00  0.00    +0.000 A 
ATOM      2  C   UNL     1      -2.924  12.017  18.992  0.00  0.00    +0.000 A 
ATOM      3  C   UNL     1      -1.614  11.745  19.430  0.00  0.00    +0.000 A 
ATOM      4  C   UNL     1      -1.053  12.421  20.517  0.00  0.00    +0.000 A 
ATOM      5  N   UNL     1       0.222  12.270  20.935  0.00  0.00    +0.000 NA
ATOM      6  C   UNL     1       0.990  11.413  20.230  0.00  0.00    +0.000 A 
ATOM      7  C   UNL     1       0.541  10.659  19.148  0.00  0.00    +0.000 A 
ATOM      8  C   UNL     1      -0.812  10.812  18.753  0.00  0.00    +0.000 A 
ATOM      9  C   UNL     1      -1.420  10.105  17.694  0.00  0.00    +0.000 A 
ATOM     10  C   UNL     1      -2.709  10.401  17.215  0.00  0.00    +0.000 A 
ENDROOT
BRANCH   1  12
ATOM     11  C   UNL     1      -5.796  11.140  17.925  0.00  0.00    +0.000 C 
ATOM     12  O   UNL     1      -4.664  11.786  17.334  0.00  0.00    +0.000 OA
ENDBRANCH   1  12
BRANCH  10  13
ATOM     13  O   UNL     1      -3.013   9.620  16.135  0.00  0.00    +0.000 OA
ATOM     14  C   UNL     1      -2.990  10.164  14.828  0.00  0.00    +0.000 C 
ENDBRANCH  10  13
BRANCH   7  15
ATOM     15  C   UNL     1       1.544   9.815  18.381  0.00  0.00    +0.000 C 
BRANCH  15  16
ATOM     16  C   UNL     1       1.806   8.494  19.051  0.00  0.00    +0.000 A 
ATOM     17  C   UNL     1       1.374   8.155  20.274  0.00  0.00    +0.000 A 
ATOM     18  O   UNL     1       1.552   6.944  20.901  0.00  0.00    +0.000 OA
ATOM     19  C   UNL     1       2.113   5.930  20.167  0.00  0.00    +0.000 A 
ATOM     20  C   UNL     1       2.106   4.653  20.728  0.00  0.00    +0.000 A 
ATOM     21  C   UNL     1       2.646   3.580  20.015  0.00  0.00    +0.000 A 
ATOM     22  C   UNL     1       3.209   3.787  18.754  0.00  0.00    +0.000 A 
ATOM     23  C   UNL     1       3.228   5.068  18.198  0.00  0.00    +0.000 A 
ATOM     24  C   UNL     1       2.666   6.135  18.906  0.00  0.00    +0.000 A 
ATOM     25  C   UNL     1       2.618   7.487  18.321  0.00  0.00    +0.000 A 
ATOM     26  O   UNL     1       3.206   7.760  17.283  0.00  0.00    +0.000 OA
ENDBRANCH  15  16
ENDBRANCH   7  15
TORSDOF 4
ENDMDL
MODEL 5
REMARK VINA RESULT:      -7.2      0.758      1.640
REMARK  Name = 
REMARK  6 active torsions:
REMARK  status: ('A' for Active; 'I' for Inactive)
REMARK    1  A    between atoms: C_1  and  O_2
REMARK    2  A    between atoms: O_2  and  C_3
REMARK    3  A    between atoms: C_9  and  C_10
REMARK    4  A    between atoms: C_10  and  C_11
REMARK    5  A    between atoms: C_24  and  O_25
REMARK    6  A    between atoms: O_25  and  C_26
REMARK                            x       y       z     vdW  Elec       q    Type
REMARK                         _______ _______ _______ _____ _____    ______ ____
ROOT
ATOM      1  C   UNL     1       6.298   4.589  16.544  0.00  0.00    +0.000 A 
ATOM      2  C   UNL     1       5.065   3.983  16.270  0.00  0.00    +0.000 A 
ATOM      3  C   UNL     1       3.981   4.101  17.160  0.00  0.00    +0.000 A 
ATOM      4  C   UNL     1       2.720   3.587  16.847  0.00  0.00    +0.000 A 
ATOM      5  N   UNL     1       1.620   3.739  17.614  0.00  0.00    +0.000 NA
ATOM      6  C   UNL     1       1.771   4.454  18.750  0.00  0.00    +0.000 A 
ATOM      7  C   UNL     1       2.980   4.991  19.187  0.00  0.00    +0.000 A 
ATOM      8  C   UNL     1       4.125   4.785  18.378  0.00  0.00    +0.000 A 
ATOM      9  C   UNL     1       5.421   5.248  18.694  0.00  0.00    +0.000 A 
ATOM     10  C   UNL     1       6.499   5.180  17.795  0.00  0.00    +0.000 A 
ENDROOT
BRANCH   1  12
ATOM     11  C   UNL     1       6.878   4.710  14.251  0.00  0.00    +0.000 C 
ATOM     12  O   UNL     1       7.305   4.596  15.612  0.00  0.00    +0.000 OA
ENDBRANCH   1  12
BRANCH  10  13
ATOM     13  O   UNL     1       7.610   5.772  18.328  0.00  0.00    +0.000 OA
ATOM     14  C   UNL     1       7.839   7.158  18.149  0.00  0.00    +0.000 C 
ENDBRANCH  10  13
BRANCH   7  15
ATOM     15  C   UNL     1       2.982   5.864  20.431  0.00  0.00    +0.000 C 
BRANCH  15  16
ATOM     16  C   UNL     1       2.005   7.002  20.328  0.00  0.00    +0.000 A 
ATOM     17  C   UNL     1       0.984   7.216  21.172  0.00  0.00    +0.000 A 
ATOM     18  O   UNL     1       0.100   8.267  21.140  0.00  0.00    +0.000 OA
ATOM     19  C   UNL     1       0.348   9.275  20.243  0.00  0.00    +0.000 A 
ATOM     20  C   UNL     1      -0.423  10.432  20.347  0.00  0.00    +0.000 A 
ATOM     21  C   UNL     1      -0.197  11.497  19.471  0.00  0.00    +0.000 A 
ATOM     22  C   UNL     1       0.781  11.395  18.480  0.00  0.00    +0.000 A 
ATOM     23  C   UNL     1       1.544  10.231  18.366  0.00  0.00    +0.000 A 
ATOM     24  C   UNL     1       1.330   9.177  19.260  0.00  0.00    +0.000 A 
ATOM     25  C   UNL     1       2.158   7.959  19.203  0.00  0.00    +0.000 A 
ATOM     26  O   UNL     1       2.939   7.755  18.283  0.00  0.00    +0.000 OA
ENDBRANCH  15  16
ENDBRANCH   7  15
TORSDOF 4
ENDMDL
MODEL 6
REMARK VINA RESULT:      -7.2      2.837      4.350
REMARK  Name = 
REMARK  6 active torsions:
REMARK  status: ('A' for Active; 'I' for Inactive)
REMARK    1  A    between atoms: C_1  and  O_2
REMARK    2  A    between atoms: O_2  and  C_3
REMARK    3  A    between atoms: C_9  and  C_10
REMARK    4  A    between atoms: C_10  and  C_11
REMARK    5  A    between atoms: C_24  and  O_25
REMARK    6  A    between atoms: O_25  and  C_26
REMARK                            x       y       z     vdW  Elec       q    Type
REMARK                         _______ _______ _______ _____ _____    ______ ____
ROOT
ATOM      1  C   UNL     1       3.498   4.099  19.433  0.00  0.00    +0.000 A 
ATOM      2  C   UNL     1       3.547   5.092  18.445  0.00  0.00    +0.000 A 
ATOM      3  C   UNL     1       2.931   6.343  18.636  0.00  0.00    +0.000 A 
ATOM      4  C   UNL     1       3.063   7.372  17.701  0.00  0.00    +0.000 A 
ATOM      5  N   UNL     1       2.570   8.619  17.861  0.00  0.00    +0.000 NA
ATOM      6  C   UNL     1       1.922   8.866  19.019  0.00  0.00    +0.000 A 
ATOM      7  C   UNL     1       1.698   7.918  20.015  0.00  0.00    +0.000 A 
ATOM      8  C   UNL     1       2.197   6.608  19.803  0.00  0.00    +0.000 A 
ATOM      9  C   UNL     1       2.034   5.535  20.706  0.00  0.00    +0.000 A 
ATOM     10  C   UNL     1       2.684   4.298  20.552  0.00  0.00    +0.000 A 
ENDROOT
BRANCH   1  12
ATOM     11  C   UNL     1       3.568   1.889  18.584  0.00  0.00    +0.000 C 
ATOM     12  O   UNL     1       4.219   2.939  19.307  0.00  0.00    +0.000 OA
ENDBRANCH   1  12
BRANCH  10  13
ATOM     13  O   UNL     1       2.412   3.475  21.609  0.00  0.00    +0.000 OA
ATOM     14  C   UNL     1       1.332   2.562  21.548  0.00  0.00    +0.000 C 
ENDBRANCH  10  13
BRANCH   7  15
ATOM     15  C   UNL     1       1.047   8.364  21.313  0.00  0.00    +0.000 C 
BRANCH  15  16
ATOM     16  C   UNL     1       0.189   9.585  21.128  0.00  0.00    +0.000 A 
ATOM     17  C   UNL     1      -0.211  10.071  19.944  0.00  0.00    +0.000 A 
ATOM     18  O   UNL     1      -1.031  11.154  19.735  0.00  0.00    +0.000 OA
ATOM     19  C   UNL     1      -1.611  11.729  20.838  0.00  0.00    +0.000 A 
ATOM     20  C   UNL     1      -2.597  12.689  20.617  0.00  0.00    +0.000 A 
ATOM     21  C   UNL     1      -3.234  13.291  21.705  0.00  0.00    +0.000 A 
ATOM     22  C   UNL     1      -2.871  12.949  23.009  0.00  0.00    +0.000 A 
ATOM     23  C   UNL     1      -1.873  11.997  23.230  0.00  0.00    +0.000 A 
ATOM     24  C   UNL     1      -1.254  11.380  22.139  0.00  0.00    +0.000 A 
ATOM     25  C   UNL     1      -0.240  10.330  22.339  0.00  0.00    +0.000 A 
ATOM     26  O   UNL     1       0.213  10.078  23.448  0.00  0.00    +0.000 OA
ENDBRANCH  15  16
ENDBRANCH   7  15
TORSDOF 4
ENDMDL
MODEL 7
REMARK VINA RESULT:      -7.1      1.093      1.211
REMARK  Name = 
REMARK  6 active torsions:
REMARK  status: ('A' for Active; 'I' for Inactive)
REMARK    1  A    between atoms: C_1  and  O_2
REMARK    2  A    between atoms: O_2  and  C_3
REMARK    3  A    between atoms: C_9  and  C_10
REMARK    4  A    between atoms: C_10  and  C_11
REMARK    5  A    between atoms: C_24  and  O_25
REMARK    6  A    between atoms: O_25  and  C_26
REMARK                            x       y       z     vdW  Elec       q    Type
REMARK                         _______ _______ _______ _____ _____    ______ ____
ROOT
ATOM      1  C   UNL     1       4.726   4.916  16.471  0.00  0.00    +0.000 A 
ATOM      2  C   UNL     1       3.703   4.018  16.808  0.00  0.00    +0.000 A 
ATOM      3  C   UNL     1       2.917   4.207  17.959  0.00  0.00    +0.000 A 
ATOM      4  C   UNL     1       1.830   3.375  18.245  0.00  0.00    +0.000 A 
ATOM      5  N   UNL     1       0.987   3.551  19.284  0.00  0.00    +0.000 NA
ATOM      6  C   UNL     1       1.220   4.618  20.077  0.00  0.00    +0.000 A 
ATOM      7  C   UNL     1       2.285   5.502  19.915  0.00  0.00    +0.000 A 
ATOM      8  C   UNL     1       3.175   5.272  18.836  0.00  0.00    +0.000 A 
ATOM      9  C   UNL     1       4.309   6.064  18.553  0.00  0.00    +0.000 A 
ATOM     10  C   UNL     1       5.073   5.918  17.382  0.00  0.00    +0.000 A 
ENDROOT
BRANCH   1  12
ATOM     11  C   UNL     1       6.337   3.741  15.194  0.00  0.00    +0.000 C 
ATOM     12  O   UNL     1       5.393   4.814  15.277  0.00  0.00    +0.000 OA
ENDBRANCH   1  12
BRANCH  10  13
ATOM     13  O   UNL     1       6.058   6.865  17.328  0.00  0.00    +0.000 OA
ATOM     14  C   UNL     1       7.379   6.549  17.728  0.00  0.00    +0.000 C 
ENDBRANCH  10  13
BRANCH   7  15
ATOM     15  C   UNL     1       2.363   6.721  20.818  0.00  0.00    +0.000 C 
BRANCH  15  16
ATOM     16  C   UNL     1       1.716   7.930  20.200  0.00  0.00    +0.000 A 
ATOM     17  C   UNL     1       1.704   8.206  18.887  0.00  0.00    +0.000 A 
ATOM     18  O   UNL     1       1.085   9.273  18.280  0.00  0.00    +0.000 OA
ATOM     19  C   UNL     1       0.290  10.071  19.062  0.00  0.00    +0.000 A 
ATOM     20  C   UNL     1      -0.497  11.024  18.416  0.00  0.00    +0.000 A 
ATOM     21  C   UNL     1      -1.341  11.849  19.163  0.00  0.00    +0.000 A 
ATOM     22  C   UNL     1      -1.381  11.737  20.554  0.00  0.00    +0.000 A 
ATOM     23  C   UNL     1      -0.583  10.792  21.203  0.00  0.00    +0.000 A 
ATOM     24  C   UNL     1       0.243   9.952  20.449  0.00  0.00    +0.000 A 
ATOM     25  C   UNL     1       1.053   8.907  21.099  0.00  0.00    +0.000 A 
ATOM     26  O   UNL     1       1.160   8.842  22.317  0.00  0.00    +0.000 OA
ENDBRANCH  15  16
ENDBRANCH   7  15
TORSDOF 4
ENDMDL
MODEL 8
REMARK VINA RESULT:      -7.1      3.144      8.500
REMARK  Name = 
REMARK  6 active torsions:
REMARK  status: ('A' for Active; 'I' for Inactive)
REMARK    1  A    between atoms: C_1  and  O_2
REMARK    2  A    between atoms: O_2  and  C_3
REMARK    3  A    between atoms: C_9  and  C_10
REMARK    4  A    between atoms: C_10  and  C_11
REMARK    5  A    between atoms: C_24  and  O_25
REMARK    6  A    between atoms: O_25  and  C_26
REMARK                            x       y       z     vdW  Elec       q    Type
REMARK                         _______ _______ _______ _____ _____    ______ ____
ROOT
ATOM      1  C   UNL     1      -2.212  12.001  20.081  0.00  0.00    +0.000 A 
ATOM      2  C   UNL     1      -1.839  11.653  21.387  0.00  0.00    +0.000 A 
ATOM      3  C   UNL     1      -0.808  10.727  21.629  0.00  0.00    +0.000 A 
ATOM      4  C   UNL     1      -0.362  10.452  22.925  0.00  0.00    +0.000 A 
ATOM      5  N   UNL     1       0.676   9.641  23.220  0.00  0.00    +0.000 NA
ATOM      6  C   UNL     1       1.320   9.081  22.174  0.00  0.00    +0.000 A 
ATOM      7  C   UNL     1       0.954   9.252  20.841  0.00  0.00    +0.000 A 
ATOM      8  C   UNL     1      -0.161  10.081  20.563  0.00  0.00    +0.000 A 
ATOM      9  C   UNL     1      -0.666  10.335  19.269  0.00  0.00    +0.000 A 
ATOM     10  C   UNL     1      -1.661  11.293  19.009  0.00  0.00    +0.000 A 
ENDROOT
BRANCH   1  12
ATOM     11  C   UNL     1      -4.476  12.693  20.153  0.00  0.00    +0.000 C 
ATOM     12  O   UNL     1      -3.113  13.009  19.847  0.00  0.00    +0.000 OA
ENDBRANCH   1  12
BRANCH  10  13
ATOM     13  O   UNL     1      -1.899  11.389  17.666  0.00  0.00    +0.000 OA
ATOM     14  C   UNL     1      -2.944  10.643  17.069  0.00  0.00    +0.000 C 
ENDBRANCH  10  13
BRANCH   7  15
ATOM     15  C   UNL     1       1.835   8.646  19.761  0.00  0.00    +0.000 C 
BRANCH  15  16
ATOM     16  C   UNL     1       1.856   7.144  19.820  0.00  0.00    +0.000 A 
ATOM     17  C   UNL     1       1.341   6.408  20.816  0.00  0.00    +0.000 A 
ATOM     18  O   UNL     1       1.299   5.036  20.884  0.00  0.00    +0.000 OA
ATOM     19  C   UNL     1       1.704   4.335  19.776  0.00  0.00    +0.000 A 
ATOM     20  C   UNL     1       1.471   2.960  19.765  0.00  0.00    +0.000 A 
ATOM     21  C   UNL     1       1.844   2.202  18.653  0.00  0.00    +0.000 A 
ATOM     22  C   UNL     1       2.468   2.814  17.564  0.00  0.00    +0.000 A 
ATOM     23  C   UNL     1       2.714   4.189  17.580  0.00  0.00    +0.000 A 
ATOM     24  C   UNL     1       2.317   4.947  18.686  0.00  0.00    +0.000 A 
ATOM     25  C   UNL     1       2.510   6.408  18.708  0.00  0.00    +0.000 A 
ATOM     26  O   UNL     1       3.163   6.983  17.847  0.00  0.00    +0.000 OA
ENDBRANCH  15  16
ENDBRANCH   7  15
TORSDOF 4
ENDMDL
MODEL 9
REMARK VINA RESULT:      -7.0      1.505      2.550
REMARK  Name = 
REMARK  6 active torsions:
REMARK  status: ('A' for Active; 'I' for Inactive)
REMARK    1  A    between atoms: C_1  and  O_2
REMARK    2  A    between atoms: O_2  and  C_3
REMARK    3  A    between atoms: C_9  and  C_10
REMARK    4  A    between atoms: C_10  and  C_11
REMARK    5  A    between atoms: C_24  and  O_25
REMARK    6  A    between atoms: O_25  and  C_26
REMARK                            x       y       z     vdW  Elec       q    Type
REMARK                         _______ _______ _______ _____ _____    ______ ____
ROOT
ATOM      1  C   UNL     1       6.193   4.957  17.759  0.00  0.00    +0.000 A 
ATOM      2  C   UNL     1       5.339   4.239  18.607  0.00  0.00    +0.000 A 
ATOM      3  C   UNL     1       4.172   4.825  19.133  0.00  0.00    +0.000 A 
ATOM      4  C   UNL     1       3.263   4.085  19.894  0.00  0.00    +0.000 A 
ATOM      5  N   UNL     1       2.088   4.561  20.357  0.00  0.00    +0.000 NA
ATOM      6  C   UNL     1       1.786   5.837  20.036  0.00  0.00    +0.000 A 
ATOM      7  C   UNL     1       2.620   6.685  19.310  0.00  0.00    +0.000 A 
ATOM      8  C   UNL     1       3.863   6.168  18.867  0.00  0.00    +0.000 A 
ATOM      9  C   UNL     1       4.823   6.907  18.142  0.00  0.00    +0.000 A 
ATOM     10  C   UNL     1       5.967   6.323  17.570  0.00  0.00    +0.000 A 
ENDROOT
BRANCH   1  12
ATOM     11  C   UNL     1       7.114   4.193  15.715  0.00  0.00    +0.000 C 
ATOM     12  O   UNL     1       7.248   4.342  17.132  0.00  0.00    +0.000 OA
ENDBRANCH   1  12
BRANCH  10  13
ATOM     13  O   UNL     1       6.676   7.250  16.857  0.00  0.00    +0.000 OA
ATOM     14  C   UNL     1       7.718   7.983  17.474  0.00  0.00    +0.000 C 
ENDBRANCH  10  13
BRANCH   7  15
ATOM     15  C   UNL     1       2.105   8.063  18.930  0.00  0.00    +0.000 C 
BRANCH  15  16
ATOM     16  C   UNL     1       1.252   8.669  20.010  0.00  0.00    +0.000 A 
ATOM     17  C   UNL     1       1.313   8.344  21.310  0.00  0.00    +0.000 A 
ATOM     18  O   UNL     1       0.585   8.906  22.331  0.00  0.00    +0.000 OA
ATOM     19  C   UNL     1      -0.192   9.995  22.028  0.00  0.00    +0.000 A 
ATOM     20  C   UNL     1      -0.767  10.690  23.092  0.00  0.00    +0.000 A 
ATOM     21  C   UNL     1      -1.550  11.819  22.840  0.00  0.00    +0.000 A 
ATOM     22  C   UNL     1      -1.775  12.239  21.528  0.00  0.00    +0.000 A 
ATOM     23  C   UNL     1      -1.211  11.535  20.462  0.00  0.00    +0.000 A 
ATOM     24  C   UNL     1      -0.408  10.420  20.719  0.00  0.00    +0.000 A 
ATOM     25  C   UNL     1       0.248   9.692  19.620  0.00  0.00    +0.000 A 
ATOM     26  O   UNL     1      -0.011   9.928  18.447  0.00  0.00    +0.000 OA
ENDBRANCH  15  16
ENDBRANCH   7  15
TORSDOF 4
ENDMDL
