MODEL 1
REMARK VINA RESULT:      -7.6      0.000      0.000
REMARK  Name = 
REMARK  4 active torsions:
REMARK  status: ('A' for Active; 'I' for Inactive)
REMARK    1  A    between atoms: N_1  and  C_2
REMARK    2  A    between atoms: C_5  and  S_6
REMARK    3  A    between atoms: S_6  and  C_9
REMARK    4  A    between atoms: C_14  and  N_15
REMARK                            x       y       z     vdW  Elec       q    Type
REMARK                         _______ _______ _______ _____ _____    ______ ____
ROOT
ATOM      1  S   UNL     1       4.122   3.361  18.750  0.00  0.00    +0.000 S 
ATOM      2  O   UNL     1       3.153   2.512  18.088  0.00  0.00    +0.000 OA
ATOM      3  O   UNL     1       4.985   2.860  19.803  0.00  0.00    +0.000 OA
ENDROOT
BRANCH   1   7
ATOM      4  C   UNL     1       6.927   4.895  15.464  0.00  0.00    +0.000 A 
ATOM      5  C   UNL     1       7.324   4.926  16.805  0.00  0.00    +0.000 A 
ATOM      6  C   UNL     1       6.477   4.465  17.818  0.00  0.00    +0.000 A 
ATOM      7  C   UNL     1       5.205   3.996  17.483  0.00  0.00    +0.000 A 
ATOM      8  C   UNL     1       4.764   4.034  16.158  0.00  0.00    +0.000 A 
ATOM      9  C   UNL     1       5.621   4.499  15.159  0.00  0.00    +0.000 A 
BRANCH   4  10
ATOM     10  N   UNL     1       7.730   5.474  14.476  0.00  0.00    +0.000 N 
ATOM     11  H   UNL     1       8.260   4.811  13.920  0.00  0.00    +0.000 HD
ATOM     12  H   UNL     1       7.261   6.172  13.908  0.00  0.00    +0.000 HD
ENDBRANCH   4  10
ENDBRANCH   1   7
BRANCH   1  13
ATOM     13  C   UNL     1       3.201   4.707  19.444  0.00  0.00    +0.000 A 
ATOM     14  C   UNL     1       3.359   6.004  18.935  0.00  0.00    +0.000 A 
ATOM     15  C   UNL     1       2.577   7.052  19.433  0.00  0.00    +0.000 A 
ATOM     16  C   UNL     1       1.639   6.818  20.437  0.00  0.00    +0.000 A 
ATOM     17  C   UNL     1       1.475   5.533  20.952  0.00  0.00    +0.000 A 
ATOM     18  C   UNL     1       2.258   4.483  20.448  0.00  0.00    +0.000 A 
BRANCH  18  19
ATOM     19  N   UNL     1       2.035   3.168  21.023  0.00  0.00    +0.000 N 
ATOM     20  O   UNL     1       2.658   2.889  22.052  0.00  0.00    +0.000 OA
ATOM     21  O   UNL     1       1.160   2.471  20.494  0.00  0.00    +0.000 OA
ENDBRANCH  18  19
ENDBRANCH   1  13
TORSDOF 4
ENDMDL
MODEL 2
REMARK VINA RESULT:      -7.6      0.049      1.109
REMARK  Name = 
REMARK  4 active torsions:
REMARK  status: ('A' for Active; 'I' for Inactive)
REMARK    1  A    between atoms: N_1  and  C_2
REMARK    2  A    between atoms: C_5  and  S_6
REMARK    3  A    between atoms: S_6  and  C_9
REMARK    4  A    between atoms: C_14  and  N_15
REMARK                            x       y       z     vdW  Elec       q    Type
REMARK                         _______ _______ _______ _____ _____    ______ ____
ROOT
ATOM      1  S   UNL     1       4.103   3.362  18.755  0.00  0.00    +0.000 S 
ATOM      2  O   UNL     1       3.126   2.513  18.106  0.00  0.00    +0.000 OA
ATOM      3  O   UNL     1       4.970   2.865  19.807  0.00  0.00    +0.000 OA
ENDROOT
BRANCH   1   7
ATOM      4  C   UNL     1       6.857   5.049  15.502  0.00  0.00    +0.000 A 
ATOM      5  C   UNL     1       5.607   4.517  15.165  0.00  0.00    +0.000 A 
ATOM      6  C   UNL     1       4.759   3.996  16.147  0.00  0.00    +0.000 A 
ATOM      7  C   UNL     1       5.183   3.981  17.478  0.00  0.00    +0.000 A 
ATOM      8  C   UNL     1       6.460   4.434  17.818  0.00  0.00    +0.000 A 
ATOM      9  C   UNL     1       7.295   4.951  16.825  0.00  0.00    +0.000 A 
BRANCH   4  10
ATOM     10  N   UNL     1       7.746   5.451  14.499  0.00  0.00    +0.000 N 
ATOM     11  H   UNL     1       8.509   4.805  14.328  0.00  0.00    +0.000 HD
ATOM     12  H   UNL     1       7.300   5.763  13.642  0.00  0.00    +0.000 HD
ENDBRANCH   4  10
ENDBRANCH   1   7
BRANCH   1  13
ATOM     13  C   UNL     1       3.194   4.718  19.444  0.00  0.00    +0.000 A 
ATOM     14  C   UNL     1       3.360   6.012  18.928  0.00  0.00    +0.000 A 
ATOM     15  C   UNL     1       2.587   7.068  19.422  0.00  0.00    +0.000 A 
ATOM     16  C   UNL     1       1.650   6.846  20.431  0.00  0.00    +0.000 A 
ATOM     17  C   UNL     1       1.479   5.565  20.953  0.00  0.00    +0.000 A 
ATOM     18  C   UNL     1       2.253   4.507  20.453  0.00  0.00    +0.000 A 
BRANCH  18  19
ATOM     19  N   UNL     1       2.022   3.197  21.037  0.00  0.00    +0.000 N 
ATOM     20  O   UNL     1       2.645   2.920  22.066  0.00  0.00    +0.000 OA
ATOM     21  O   UNL     1       1.142   2.502  20.513  0.00  0.00    +0.000 OA
ENDBRANCH  18  19
ENDBRANCH   1  13
TORSDOF 4
ENDMDL
MODEL 3
REMARK VINA RESULT:      -6.6      2.249      2.853
REMARK  Name = 
REMARK  4 active torsions:
REMARK  status: ('A' for Active; 'I' for Inactive)
REMARK    1  A    between atoms: N_1  and  C_2
REMARK    2  A    between atoms: C_5  and  S_6
REMARK    3  A    between atoms: S_6  and  C_9
REMARK    4  A    between atoms: C_14  and  N_15
REMARK                            x       y       z     vdW  Elec       q    Type
REMARK                         _______ _______ _______ _____ _____    ______ ____
ROOT
ATOM      1  S   UNL     1       3.190   3.038  17.410  0.00  0.00    +0.000 S 
ATOM      2  O   UNL     1       2.097   3.298  16.497  0.00  0.00    +0.000 OA
ATOM      3  O   UNL     1       3.979   1.823  17.333  0.00  0.00    +0.000 OA
ENDROOT
BRANCH   1   7
ATOM      4  C   UNL     1       6.208   6.470  17.041  0.00  0.00    +0.000 A 
ATOM      5  C   UNL     1       4.927   6.706  17.552  0.00  0.00    +0.000 A 
ATOM      6  C   UNL     1       3.995   5.669  17.667  0.00  0.00    +0.000 A 
ATOM      7  C   UNL     1       4.343   4.387  17.235  0.00  0.00    +0.000 A 
ATOM      8  C   UNL     1       5.590   4.154  16.648  0.00  0.00    +0.000 A 
ATOM      9  C   UNL     1       6.508   5.200  16.540  0.00  0.00    +0.000 A 
BRANCH   4  10
ATOM     10  N   UNL     1       7.084   7.536  16.814  0.00  0.00    +0.000 N 
ATOM     11  H   UNL     1       8.016   7.262  16.520  0.00  0.00    +0.000 HD
ATOM     12  H   UNL     1       6.699   8.283  16.244  0.00  0.00    +0.000 HD
ENDBRANCH   4  10
ENDBRANCH   1   7
BRANCH   1  13
ATOM     13  C   UNL     1       2.492   3.088  19.038  0.00  0.00    +0.000 A 
ATOM     14  C   UNL     1       1.122   3.333  19.209  0.00  0.00    +0.000 A 
ATOM     15  C   UNL     1       0.558   3.297  20.489  0.00  0.00    +0.000 A 
ATOM     16  C   UNL     1       1.350   3.022  21.603  0.00  0.00    +0.000 A 
ATOM     17  C   UNL     1       2.714   2.780  21.445  0.00  0.00    +0.000 A 
ATOM     18  C   UNL     1       3.276   2.812  20.160  0.00  0.00    +0.000 A 
BRANCH  18  19
ATOM     19  N   UNL     1       4.701   2.546  20.064  0.00  0.00    +0.000 N 
ATOM     20  O   UNL     1       5.447   3.518  19.910  0.00  0.00    +0.000 OA
ATOM     21  O   UNL     1       5.062   1.376  20.247  0.00  0.00    +0.000 OA
ENDBRANCH  18  19
ENDBRANCH   1  13
TORSDOF 4
ENDMDL
MODEL 4
REMARK VINA RESULT:      -6.6      2.257      2.845
REMARK  Name = 
REMARK  4 active torsions:
REMARK  status: ('A' for Active; 'I' for Inactive)
REMARK    1  A    between atoms: N_1  and  C_2
REMARK    2  A    between atoms: C_5  and  S_6
REMARK    3  A    between atoms: S_6  and  C_9
REMARK    4  A    between atoms: C_14  and  N_15
REMARK                            x       y       z     vdW  Elec       q    Type
REMARK                         _______ _______ _______ _____ _____    ______ ____
ROOT
ATOM      1  S   UNL     1       3.193   3.015  17.406  0.00  0.00    +0.000 S 
ATOM      2  O   UNL     1       2.099   3.265  16.490  0.00  0.00    +0.000 OA
ATOM      3  O   UNL     1       3.989   1.805  17.335  0.00  0.00    +0.000 OA
ENDROOT
BRANCH   1   7
ATOM      4  C   UNL     1       6.082   6.534  16.864  0.00  0.00    +0.000 A 
ATOM      5  C   UNL     1       6.456   5.244  16.471  0.00  0.00    +0.000 A 
ATOM      6  C   UNL     1       5.586   4.161  16.634  0.00  0.00    +0.000 A 
ATOM      7  C   UNL     1       4.338   4.370  17.226  0.00  0.00    +0.000 A 
ATOM      8  C   UNL     1       3.983   5.637  17.697  0.00  0.00    +0.000 A 
ATOM      9  C   UNL     1       4.864   6.708  17.527  0.00  0.00    +0.000 A 
BRANCH   4  10
ATOM     10  N   UNL     1       7.005   7.583  16.812  0.00  0.00    +0.000 N 
ATOM     11  H   UNL     1       6.615   8.499  17.005  0.00  0.00    +0.000 HD
ATOM     12  H   UNL     1       7.866   7.411  17.322  0.00  0.00    +0.000 HD
ENDBRANCH   4  10
ENDBRANCH   1   7
BRANCH   1  13
ATOM     13  C   UNL     1       2.493   3.069  19.033  0.00  0.00    +0.000 A 
ATOM     14  C   UNL     1       1.123   3.320  19.202  0.00  0.00    +0.000 A 
ATOM     15  C   UNL     1       0.557   3.287  20.481  0.00  0.00    +0.000 A 
ATOM     16  C   UNL     1       1.346   3.009  21.596  0.00  0.00    +0.000 A 
ATOM     17  C   UNL     1       2.709   2.762  21.440  0.00  0.00    +0.000 A 
ATOM     18  C   UNL     1       3.274   2.791  20.156  0.00  0.00    +0.000 A 
BRANCH  18  19
ATOM     19  N   UNL     1       4.697   2.519  20.062  0.00  0.00    +0.000 N 
ATOM     20  O   UNL     1       5.449   3.489  19.922  0.00  0.00    +0.000 OA
ATOM     21  O   UNL     1       5.052   1.346  20.233  0.00  0.00    +0.000 OA
ENDBRANCH  18  19
ENDBRANCH   1  13
TORSDOF 4
ENDMDL
MODEL 5
REMARK VINA RESULT:      -6.6      2.551      6.046
REMARK  Name = 
REMARK  4 active torsions:
REMARK  status: ('A' for Active; 'I' for Inactive)
REMARK    1  A    between atoms: N_1  and  C_2
REMARK    2  A    between atoms: C_5  and  S_6
REMARK    3  A    between atoms: S_6  and  C_9
REMARK    4  A    between atoms: C_14  and  N_15
REMARK                            x       y       z     vdW  Elec       q    Type
REMARK                         _______ _______ _______ _____ _____    ______ ____
ROOT
ATOM      1  S   UNL     1       3.512   4.923  17.613  0.00  0.00    +0.000 S 
ATOM      2  O   UNL     1       3.596   3.914  16.576  0.00  0.00    +0.000 OA
ATOM      3  O   UNL     1       2.761   6.150  17.426  0.00  0.00    +0.000 OA
ENDROOT
BRANCH   1   7
ATOM      4  C   UNL     1       1.810   2.901  21.359  0.00  0.00    +0.000 A 
ATOM      5  C   UNL     1       2.140   2.140  20.232  0.00  0.00    +0.000 A 
ATOM      6  C   UNL     1       2.657   2.744  19.081  0.00  0.00    +0.000 A 
ATOM      7  C   UNL     1       2.815   4.132  19.051  0.00  0.00    +0.000 A 
ATOM      8  C   UNL     1       2.415   4.912  20.138  0.00  0.00    +0.000 A 
ATOM      9  C   UNL     1       1.900   4.294  21.279  0.00  0.00    +0.000 A 
BRANCH   4  10
ATOM     10  N   UNL     1       1.179   2.303  22.454  0.00  0.00    +0.000 N 
ATOM     11  H   UNL     1       0.506   2.895  22.930  0.00  0.00    +0.000 HD
ATOM     12  H   UNL     1       0.818   1.371  22.274  0.00  0.00    +0.000 HD
ENDBRANCH   4  10
ENDBRANCH   1   7
BRANCH   1  13
ATOM     13  C   UNL     1       5.181   5.397  17.971  0.00  0.00    +0.000 A 
ATOM     14  C   UNL     1       5.690   5.254  19.271  0.00  0.00    +0.000 A 
ATOM     15  C   UNL     1       7.030   5.558  19.536  0.00  0.00    +0.000 A 
ATOM     16  C   UNL     1       7.868   6.008  18.517  0.00  0.00    +0.000 A 
ATOM     17  C   UNL     1       7.372   6.157  17.223  0.00  0.00    +0.000 A 
ATOM     18  C   UNL     1       6.029   5.847  16.958  0.00  0.00    +0.000 A 
BRANCH  18  19
ATOM     19  N   UNL     1       5.577   6.020  15.589  0.00  0.00    +0.000 N 
ATOM     20  O   UNL     1       5.041   7.094  15.302  0.00  0.00    +0.000 OA
ATOM     21  O   UNL     1       5.857   5.114  14.792  0.00  0.00    +0.000 OA
ENDBRANCH  18  19
ENDBRANCH   1  13
TORSDOF 4
ENDMDL
MODEL 6
REMARK VINA RESULT:      -6.6      2.129      2.735
REMARK  Name = 
REMARK  4 active torsions:
REMARK  status: ('A' for Active; 'I' for Inactive)
REMARK    1  A    between atoms: N_1  and  C_2
REMARK    2  A    between atoms: C_5  and  S_6
REMARK    3  A    between atoms: S_6  and  C_9
REMARK    4  A    between atoms: C_14  and  N_15
REMARK                            x       y       z     vdW  Elec       q    Type
REMARK                         _______ _______ _______ _____ _____    ______ ____
ROOT
ATOM      1  S   UNL     1       4.174   5.450  18.835  0.00  0.00    +0.000 S 
ATOM      2  O   UNL     1       4.996   5.164  19.992  0.00  0.00    +0.000 OA
ATOM      3  O   UNL     1       3.432   6.691  18.712  0.00  0.00    +0.000 OA
ENDROOT
BRANCH   1   7
ATOM      4  C   UNL     1       6.854   5.173  15.126  0.00  0.00    +0.000 A 
ATOM      5  C   UNL     1       7.264   4.609  16.339  0.00  0.00    +0.000 A 
ATOM      6  C   UNL     1       6.458   4.690  17.479  0.00  0.00    +0.000 A 
ATOM      7  C   UNL     1       5.241   5.370  17.408  0.00  0.00    +0.000 A 
ATOM      8  C   UNL     1       4.856   6.007  16.226  0.00  0.00    +0.000 A 
ATOM      9  C   UNL     1       5.672   5.918  15.097  0.00  0.00    +0.000 A 
BRANCH   4  10
ATOM     10  N   UNL     1       7.723   5.196  14.030  0.00  0.00    +0.000 N 
ATOM     11  H   UNL     1       7.262   5.187  13.126  0.00  0.00    +0.000 HD
ATOM     12  H   UNL     1       8.454   5.897  14.087  0.00  0.00    +0.000 HD
ENDBRANCH   4  10
ENDBRANCH   1   7
BRANCH   1  13
ATOM     13  C   UNL     1       2.988   4.137  18.739  0.00  0.00    +0.000 A 
ATOM     14  C   UNL     1       3.015   3.242  17.659  0.00  0.00    +0.000 A 
ATOM     15  C   UNL     1       2.127   2.161  17.622  0.00  0.00    +0.000 A 
ATOM     16  C   UNL     1       1.208   1.966  18.653  0.00  0.00    +0.000 A 
ATOM     17  C   UNL     1       1.171   2.852  19.729  0.00  0.00    +0.000 A 
ATOM     18  C   UNL     1       2.065   3.932  19.766  0.00  0.00    +0.000 A 
BRANCH  18  19
ATOM     19  N   UNL     1       1.977   4.814  20.916  0.00  0.00    +0.000 N 
ATOM     20  O   UNL     1       1.356   5.870  20.772  0.00  0.00    +0.000 OA
ATOM     21  O   UNL     1       2.445   4.387  21.981  0.00  0.00    +0.000 OA
ENDBRANCH  18  19
ENDBRANCH   1  13
TORSDOF 4
ENDMDL
MODEL 7
REMARK VINA RESULT:      -6.5      2.588      6.045
REMARK  Name = 
REMARK  4 active torsions:
REMARK  status: ('A' for Active; 'I' for Inactive)
REMARK    1  A    between atoms: N_1  and  C_2
REMARK    2  A    between atoms: C_5  and  S_6
REMARK    3  A    between atoms: S_6  and  C_9
REMARK    4  A    between atoms: C_14  and  N_15
REMARK                            x       y       z     vdW  Elec       q    Type
REMARK                         _______ _______ _______ _____ _____    ______ ____
ROOT
ATOM      1  S   UNL     1       3.571   4.876  17.607  0.00  0.00    +0.000 S 
ATOM      2  O   UNL     1       3.690   3.843  16.598  0.00  0.00    +0.000 OA
ATOM      3  O   UNL     1       2.801   6.084  17.377  0.00  0.00    +0.000 OA
ENDROOT
BRANCH   1   7
ATOM      4  C   UNL     1       1.722   2.825  21.266  0.00  0.00    +0.000 A 
ATOM      5  C   UNL     1       1.126   3.967  20.718  0.00  0.00    +0.000 A 
ATOM      6  C   UNL     1       1.682   4.605  19.605  0.00  0.00    +0.000 A 
ATOM      7  C   UNL     1       2.865   4.108  19.053  0.00  0.00    +0.000 A 
ATOM      8  C   UNL     1       3.514   3.018  19.638  0.00  0.00    +0.000 A 
ATOM      9  C   UNL     1       2.947   2.393  20.750  0.00  0.00    +0.000 A 
BRANCH   4  10
ATOM     10  N   UNL     1       1.229   2.272  22.452  0.00  0.00    +0.000 N 
ATOM     11  H   UNL     1       0.498   1.579  22.324  0.00  0.00    +0.000 HD
ATOM     12  H   UNL     1       1.945   1.967  23.104  0.00  0.00    +0.000 HD
ENDBRANCH   4  10
ENDBRANCH   1   7
BRANCH   1  13
ATOM     13  C   UNL     1       5.225   5.390  17.980  0.00  0.00    +0.000 A 
ATOM     14  C   UNL     1       5.722   5.270  19.286  0.00  0.00    +0.000 A 
ATOM     15  C   UNL     1       7.051   5.606  19.564  0.00  0.00    +0.000 A 
ATOM     16  C   UNL     1       7.891   6.063  18.549  0.00  0.00    +0.000 A 
ATOM     17  C   UNL     1       7.407   6.189  17.248  0.00  0.00    +0.000 A 
ATOM     18  C   UNL     1       6.075   5.848  16.971  0.00  0.00    +0.000 A 
BRANCH  18  19
ATOM     19  N   UNL     1       5.635   5.997  15.595  0.00  0.00    +0.000 N 
ATOM     20  O   UNL     1       5.081   7.057  15.291  0.00  0.00    +0.000 OA
ATOM     21  O   UNL     1       5.943   5.089  14.812  0.00  0.00    +0.000 OA
ENDBRANCH  18  19
ENDBRANCH   1  13
TORSDOF 4
ENDMDL
MODEL 8
REMARK VINA RESULT:      -6.4      2.234      5.698
REMARK  Name = 
REMARK  4 active torsions:
REMARK  status: ('A' for Active; 'I' for Inactive)
REMARK    1  A    between atoms: N_1  and  C_2
REMARK    2  A    between atoms: C_5  and  S_6
REMARK    3  A    between atoms: S_6  and  C_9
REMARK    4  A    between atoms: C_14  and  N_15
REMARK                            x       y       z     vdW  Elec       q    Type
REMARK                         _______ _______ _______ _____ _____    ______ ____
ROOT
ATOM      1  S   UNL     1       4.530   3.947  18.222  0.00  0.00    +0.000 S 
ATOM      2  O   UNL     1       5.502   3.782  19.283  0.00  0.00    +0.000 OA
ATOM      3  O   UNL     1       3.552   2.921  17.914  0.00  0.00    +0.000 OA
ENDROOT
BRANCH   1   7
ATOM      4  C   UNL     1       2.221   7.782  19.216  0.00  0.00    +0.000 A 
ATOM      5  C   UNL     1       2.162   6.678  20.074  0.00  0.00    +0.000 A 
ATOM      6  C   UNL     1       2.858   5.500  19.781  0.00  0.00    +0.000 A 
ATOM      7  C   UNL     1       3.597   5.420  18.599  0.00  0.00    +0.000 A 
ATOM      8  C   UNL     1       3.600   6.485  17.694  0.00  0.00    +0.000 A 
ATOM      9  C   UNL     1       2.899   7.653  18.000  0.00  0.00    +0.000 A 
BRANCH   4  10
ATOM     10  N   UNL     1       1.422   8.904  19.455  0.00  0.00    +0.000 N 
ATOM     11  H   UNL     1       1.664   9.424  20.293  0.00  0.00    +0.000 HD
ATOM     12  H   UNL     1       1.289   9.506  18.649  0.00  0.00    +0.000 HD
ENDBRANCH   4  10
ENDBRANCH   1   7
BRANCH   1  13
ATOM     13  C   UNL     1       5.462   4.222  16.741  0.00  0.00    +0.000 A 
ATOM     14  C   UNL     1       4.928   3.861  15.495  0.00  0.00    +0.000 A 
ATOM     15  C   UNL     1       5.632   4.147  14.321  0.00  0.00    +0.000 A 
ATOM     16  C   UNL     1       6.869   4.787  14.377  0.00  0.00    +0.000 A 
ATOM     17  C   UNL     1       7.412   5.147  15.610  0.00  0.00    +0.000 A 
ATOM     18  C   UNL     1       6.701   4.864  16.786  0.00  0.00    +0.000 A 
BRANCH  18  19
ATOM     19  N   UNL     1       7.319   5.270  18.036  0.00  0.00    +0.000 N 
ATOM     20  O   UNL     1       8.137   4.494  18.539  0.00  0.00    +0.000 OA
ATOM     21  O   UNL     1       7.051   6.407  18.445  0.00  0.00    +0.000 OA
ENDBRANCH  18  19
ENDBRANCH   1  13
TORSDOF 4
ENDMDL
MODEL 9
REMARK VINA RESULT:      -6.4      2.122      2.886
REMARK  Name = 
REMARK  4 active torsions:
REMARK  status: ('A' for Active; 'I' for Inactive)
REMARK    1  A    between atoms: N_1  and  C_2
REMARK    2  A    between atoms: C_5  and  S_6
REMARK    3  A    between atoms: S_6  and  C_9
REMARK    4  A    between atoms: C_14  and  N_15
REMARK                            x       y       z     vdW  Elec       q    Type
REMARK                         _______ _______ _______ _____ _____    ______ ____
ROOT
ATOM      1  S   UNL     1       4.172   5.421  18.854  0.00  0.00    +0.000 S 
ATOM      2  O   UNL     1       5.006   5.115  19.999  0.00  0.00    +0.000 OA
ATOM      3  O   UNL     1       3.439   6.669  18.754  0.00  0.00    +0.000 OA
ENDROOT
BRANCH   1   7
ATOM      4  C   UNL     1       6.933   5.304  15.196  0.00  0.00    +0.000 A 
ATOM      5  C   UNL     1       5.691   5.946  15.125  0.00  0.00    +0.000 A 
ATOM      6  C   UNL     1       4.838   5.986  16.233  0.00  0.00    +0.000 A 
ATOM      7  C   UNL     1       5.222   5.348  17.414  0.00  0.00    +0.000 A 
ATOM      8  C   UNL     1       6.422   4.635  17.474  0.00  0.00    +0.000 A 
ATOM      9  C   UNL     1       7.262   4.604  16.360  0.00  0.00    +0.000 A 
BRANCH   4  10
ATOM     10  N   UNL     1       7.720   5.162  14.048  0.00  0.00    +0.000 N 
ATOM     11  H   UNL     1       8.270   4.311  14.016  0.00  0.00    +0.000 HD
ATOM     12  H   UNL     1       7.230   5.343  13.177  0.00  0.00    +0.000 HD
ENDBRANCH   4  10
ENDBRANCH   1   7
BRANCH   1  13
ATOM     13  C   UNL     1       2.975   4.119  18.758  0.00  0.00    +0.000 A 
ATOM     14  C   UNL     1       2.995   3.222  17.679  0.00  0.00    +0.000 A 
ATOM     15  C   UNL     1       2.098   2.149  17.643  0.00  0.00    +0.000 A 
ATOM     16  C   UNL     1       1.176   1.964  18.672  0.00  0.00    +0.000 A 
ATOM     17  C   UNL     1       1.145   2.851  19.747  0.00  0.00    +0.000 A 
ATOM     18  C   UNL     1       2.049   3.923  19.784  0.00  0.00    +0.000 A 
BRANCH  18  19
ATOM     19  N   UNL     1       1.968   4.807  20.933  0.00  0.00    +0.000 N 
ATOM     20  O   UNL     1       1.315   5.846  20.801  0.00  0.00    +0.000 OA
ATOM     21  O   UNL     1       2.474   4.397  21.986  0.00  0.00    +0.000 OA
ENDBRANCH  18  19
ENDBRANCH   1  13
TORSDOF 4
ENDMDL
