MODEL 1
REMARK VINA RESULT:      -7.4      0.000      0.000
REMARK  Name = 
REMARK  3 active torsions:
REMARK  status: ('A' for Active; 'I' for Inactive)
REMARK    1  A    between atoms: C_1  and  C_2
REMARK    2  A    between atoms: C_2  and  C_3
REMARK    3  A    between atoms: C_3  and  N_4
REMARK                            x       y       z     vdW  Elec       q    Type
REMARK                         _______ _______ _______ _____ _____    ______ ____
ROOT
ATOM      1  N   UNL     1       3.392   4.507  18.513  0.00  0.00    +0.000 NA
ATOM      2  C   UNL     1       2.647   3.610  19.448  0.00  0.00    +0.000 C 
ATOM      3  C   UNL     1       2.544   4.174  20.875  0.00  0.00    +0.000 C 
ATOM      4  O   UNL     1       1.836   5.424  20.874  0.00  0.00    +0.000 OA
ATOM      5  C   UNL     1       2.570   6.388  20.104  0.00  0.00    +0.000 C 
ATOM      6  C   UNL     1       1.826   7.728  20.033  0.00  0.00    +0.000 A 
ATOM      7  C   UNL     1       1.183   8.259  21.154  0.00  0.00    +0.000 A 
ATOM      8  C   UNL     1       0.522   9.468  21.003  0.00  0.00    +0.000 A 
ATOM      9  C   UNL     1       0.384  10.114  19.798  0.00  0.00    +0.000 A 
ATOM     10  C   UNL     1       1.057   9.654  18.687  0.00  0.00    +0.000 A 
ATOM     11  C   UNL     1       1.845   8.504  18.831  0.00  0.00    +0.000 A 
ATOM     12  C   UNL     1       2.743   8.131  17.673  0.00  0.00    +0.000 C 
ATOM     13  C   UNL     1       3.681   6.992  18.039  0.00  0.00    +0.000 C 
ATOM     14  C   UNL     1       2.812   5.871  18.639  0.00  0.00    +0.000 C 
ATOM     15  C   UNL     1      -0.505  11.275  19.972  0.00  0.00    +0.000 C 
ATOM     16  O   UNL     1      -0.496  11.461  21.398  0.00  0.00    +0.000 OA
ATOM     17  C   UNL     1      -0.034  10.339  22.025  0.00  0.00    +0.000 C 
ATOM     18  O   UNL     1      -0.012  10.143  23.223  0.00  0.00    +0.000 OA
ENDROOT
BRANCH   1  19
ATOM     19  C   UNL     1       3.240   3.947  17.132  0.00  0.00    +0.000 C 
BRANCH  19  21
ATOM     20  C   UNL     1       5.178   4.692  15.595  0.00  0.00    +0.000 C 
ATOM     21  C   UNL     1       4.544   3.581  16.406  0.00  0.00    +0.000 C 
ENDBRANCH  19  21
ENDBRANCH   1  19
TORSDOF 2
ENDMDL
MODEL 2
REMARK VINA RESULT:      -7.3      0.958      1.075
REMARK  Name = 
REMARK  3 active torsions:
REMARK  status: ('A' for Active; 'I' for Inactive)
REMARK    1  A    between atoms: C_1  and  C_2
REMARK    2  A    between atoms: C_2  and  C_3
REMARK    3  A    between atoms: C_3  and  N_4
REMARK                            x       y       z     vdW  Elec       q    Type
REMARK                         _______ _______ _______ _____ _____    ______ ____
ROOT
ATOM      1  N   UNL     1       4.362   4.179  17.967  0.00  0.00    +0.000 NA
ATOM      2  C   UNL     1       3.623   3.158  18.771  0.00  0.00    +0.000 C 
ATOM      3  C   UNL     1       3.353   3.606  20.218  0.00  0.00    +0.000 C 
ATOM      4  O   UNL     1       2.540   4.790  20.236  0.00  0.00    +0.000 OA
ATOM      5  C   UNL     1       3.246   5.865  19.598  0.00  0.00    +0.000 C 
ATOM      6  C   UNL     1       2.394   7.140  19.549  0.00  0.00    +0.000 A 
ATOM      7  C   UNL     1       1.616   7.533  20.641  0.00  0.00    +0.000 A 
ATOM      8  C   UNL     1       0.865   8.691  20.511  0.00  0.00    +0.000 A 
ATOM      9  C   UNL     1       0.771   9.410  19.343  0.00  0.00    +0.000 A 
ATOM     10  C   UNL     1       1.572   9.089  18.269  0.00  0.00    +0.000 A 
ATOM     11  C   UNL     1       2.445   8.001  18.407  0.00  0.00    +0.000 A 
ATOM     12  C   UNL     1       3.465   7.789  17.311  0.00  0.00    +0.000 C 
ATOM     13  C   UNL     1       4.467   6.708  17.684  0.00  0.00    +0.000 C 
ATOM     14  C   UNL     1       3.654   5.478  18.130  0.00  0.00    +0.000 C 
ATOM     15  C   UNL     1      -0.229  10.477  19.513  0.00  0.00    +0.000 C 
ATOM     16  O   UNL     1      -0.355  10.559  20.943  0.00  0.00    +0.000 OA
ATOM     17  C   UNL     1       0.152   9.436  21.534  0.00  0.00    +0.000 C 
ATOM     18  O   UNL     1       0.091   9.156  22.713  0.00  0.00    +0.000 OA
ENDROOT
BRANCH   1  19
ATOM     19  C   UNL     1       4.374   3.711  16.544  0.00  0.00    +0.000 C 
BRANCH  19  21
ATOM     20  C   UNL     1       5.605   4.330  14.359  0.00  0.00    +0.000 C 
ATOM     21  C   UNL     1       5.708   3.866  15.796  0.00  0.00    +0.000 C 
ENDBRANCH  19  21
ENDBRANCH   1  19
TORSDOF 2
ENDMDL
MODEL 3
REMARK VINA RESULT:      -7.1      0.983      1.249
REMARK  Name = 
REMARK  3 active torsions:
REMARK  status: ('A' for Active; 'I' for Inactive)
REMARK    1  A    between atoms: C_1  and  C_2
REMARK    2  A    between atoms: C_2  and  C_3
REMARK    3  A    between atoms: C_3  and  N_4
REMARK                            x       y       z     vdW  Elec       q    Type
REMARK                         _______ _______ _______ _____ _____    ______ ____
ROOT
ATOM      1  N   UNL     1       3.007   4.414  18.813  0.00  0.00    +0.000 NA
ATOM      2  C   UNL     1       2.152   3.714  19.819  0.00  0.00    +0.000 C 
ATOM      3  C   UNL     1       2.075   4.452  21.167  0.00  0.00    +0.000 C 
ATOM      4  O   UNL     1       1.499   5.757  20.995  0.00  0.00    +0.000 OA
ATOM      5  C   UNL     1       2.345   6.545  20.144  0.00  0.00    +0.000 C 
ATOM      6  C   UNL     1       1.744   7.933  19.890  0.00  0.00    +0.000 A 
ATOM      7  C   UNL     1       1.133   8.655  20.919  0.00  0.00    +0.000 A 
ATOM      8  C   UNL     1       0.603   9.897  20.604  0.00  0.00    +0.000 A 
ATOM      9  C   UNL     1       0.560  10.405  19.328  0.00  0.00    +0.000 A 
ATOM     10  C   UNL     1       1.208   9.751  18.303  0.00  0.00    +0.000 A 
ATOM     11  C   UNL     1       1.871   8.554  18.608  0.00  0.00    +0.000 A 
ATOM     12  C   UNL     1       2.752   7.958  17.534  0.00  0.00    +0.000 C 
ATOM     13  C   UNL     1       3.560   6.784  18.063  0.00  0.00    +0.000 C 
ATOM     14  C   UNL     1       2.567   5.834  18.758  0.00  0.00    +0.000 C 
ATOM     15  C   UNL     1      -0.210  11.661  19.334  0.00  0.00    +0.000 C 
ATOM     16  O   UNL     1      -0.215  12.014  20.728  0.00  0.00    +0.000 OA
ATOM     17  C   UNL     1       0.116  10.934  21.497  0.00  0.00    +0.000 C 
ATOM     18  O   UNL     1       0.089  10.883  22.710  0.00  0.00    +0.000 OA
ENDROOT
BRANCH   1  19
ATOM     19  C   UNL     1       2.830   3.711  17.502  0.00  0.00    +0.000 C 
BRANCH  19  21
ATOM     20  C   UNL     1       3.723   1.367  18.122  0.00  0.00    +0.000 C 
ATOM     21  C   UNL     1       2.578   2.196  17.580  0.00  0.00    +0.000 C 
ENDBRANCH  19  21
ENDBRANCH   1  19
TORSDOF 2
ENDMDL
MODEL 4
REMARK VINA RESULT:      -6.9      2.329      6.373
REMARK  Name = 
REMARK  3 active torsions:
REMARK  status: ('A' for Active; 'I' for Inactive)
REMARK    1  A    between atoms: C_1  and  C_2
REMARK    2  A    between atoms: C_2  and  C_3
REMARK    3  A    between atoms: C_3  and  N_4
REMARK                            x       y       z     vdW  Elec       q    Type
REMARK                         _______ _______ _______ _____ _____    ______ ____
ROOT
ATOM      1  N   UNL     1       0.856  11.029  19.749  0.00  0.00    +0.000 NA
ATOM      2  C   UNL     1       0.825  11.185  21.235  0.00  0.00    +0.000 C 
ATOM      3  C   UNL     1       0.205   9.977  21.958  0.00  0.00    +0.000 C 
ATOM      4  O   UNL     1       0.968   8.787  21.698  0.00  0.00    +0.000 OA
ATOM      5  C   UNL     1       0.927   8.490  20.294  0.00  0.00    +0.000 C 
ATOM      6  C   UNL     1       1.771   7.253  19.962  0.00  0.00    +0.000 A 
ATOM      7  C   UNL     1       1.759   6.126  20.787  0.00  0.00    +0.000 A 
ATOM      8  C   UNL     1       2.559   5.054  20.422  0.00  0.00    +0.000 A 
ATOM      9  C   UNL     1       3.429   5.082  19.358  0.00  0.00    +0.000 A 
ATOM     10  C   UNL     1       3.420   6.150  18.488  0.00  0.00    +0.000 A 
ATOM     11  C   UNL     1       2.528   7.198  18.749  0.00  0.00    +0.000 A 
ATOM     12  C   UNL     1       2.373   8.257  17.681  0.00  0.00    +0.000 C 
ATOM     13  C   UNL     1       1.236   9.213  18.004  0.00  0.00    +0.000 C 
ATOM     14  C   UNL     1       1.460   9.703  19.447  0.00  0.00    +0.000 C 
ATOM     15  C   UNL     1       4.232   3.847  19.360  0.00  0.00    +0.000 C 
ATOM     16  O   UNL     1       3.466   2.981  20.215  0.00  0.00    +0.000 OA
ATOM     17  C   UNL     1       2.579   3.705  20.961  0.00  0.00    +0.000 C 
ATOM     18  O   UNL     1       1.874   3.278  21.852  0.00  0.00    +0.000 OA
ENDROOT
BRANCH   1  19
ATOM     19  C   UNL     1       1.661  12.163  19.192  0.00  0.00    +0.000 C 
BRANCH  19  21
ATOM     20  C   UNL     1      -0.610  12.973  18.263  0.00  0.00    +0.000 C 
ATOM     21  C   UNL     1       0.869  13.245  18.439  0.00  0.00    +0.000 C 
ENDBRANCH  19  21
ENDBRANCH   1  19
TORSDOF 2
ENDMDL
MODEL 5
REMARK VINA RESULT:      -6.9      1.725      3.016
REMARK  Name = 
REMARK  3 active torsions:
REMARK  status: ('A' for Active; 'I' for Inactive)
REMARK    1  A    between atoms: C_1  and  C_2
REMARK    2  A    between atoms: C_2  and  C_3
REMARK    3  A    between atoms: C_3  and  N_4
REMARK                            x       y       z     vdW  Elec       q    Type
REMARK                         _______ _______ _______ _____ _____    ______ ____
ROOT
ATOM      1  N   UNL     1       4.158   4.541  18.370  0.00  0.00    +0.000 NA
ATOM      2  C   UNL     1       5.181   5.314  17.604  0.00  0.00    +0.000 C 
ATOM      3  C   UNL     1       4.574   6.431  16.738  0.00  0.00    +0.000 C 
ATOM      4  O   UNL     1       3.886   7.388  17.559  0.00  0.00    +0.000 OA
ATOM      5  C   UNL     1       2.790   6.744  18.226  0.00  0.00    +0.000 C 
ATOM      6  C   UNL     1       2.054   7.718  19.155  0.00  0.00    +0.000 A 
ATOM      7  C   UNL     1       1.794   9.035  18.764  0.00  0.00    +0.000 A 
ATOM      8  C   UNL     1       1.135   9.854  19.667  0.00  0.00    +0.000 A 
ATOM      9  C   UNL     1       0.816   9.473  20.949  0.00  0.00    +0.000 A 
ATOM     10  C   UNL     1       0.998   8.166  21.345  0.00  0.00    +0.000 A 
ATOM     11  C   UNL     1       1.542   7.271  20.415  0.00  0.00    +0.000 A 
ATOM     12  C   UNL     1       1.541   5.805  20.782  0.00  0.00    +0.000 C 
ATOM     13  C   UNL     1       1.969   4.935  19.611  0.00  0.00    +0.000 C 
ATOM     14  C   UNL     1       3.290   5.521  19.078  0.00  0.00    +0.000 C 
ATOM     15  C   UNL     1       0.274  10.634  21.677  0.00  0.00    +0.000 C 
ATOM     16  O   UNL     1      -0.071  11.534  20.610  0.00  0.00    +0.000 OA
ATOM     17  C   UNL     1       0.556  11.169  19.452  0.00  0.00    +0.000 C 
ATOM     18  O   UNL     1       0.556  11.791  18.409  0.00  0.00    +0.000 OA
ENDROOT
BRANCH   1  19
ATOM     19  C   UNL     1       4.888   3.638  19.317  0.00  0.00    +0.000 C 
BRANCH  19  21
ATOM     20  C   UNL     1       3.462   1.724  18.328  0.00  0.00    +0.000 C 
ATOM     21  C   UNL     1       4.308   2.223  19.479  0.00  0.00    +0.000 C 
ENDBRANCH  19  21
ENDBRANCH   1  19
TORSDOF 2
ENDMDL
MODEL 6
REMARK VINA RESULT:      -6.7      2.283      6.465
REMARK  Name = 
REMARK  3 active torsions:
REMARK  status: ('A' for Active; 'I' for Inactive)
REMARK    1  A    between atoms: C_1  and  C_2
REMARK    2  A    between atoms: C_2  and  C_3
REMARK    3  A    between atoms: C_3  and  N_4
REMARK                            x       y       z     vdW  Elec       q    Type
REMARK                         _______ _______ _______ _____ _____    ______ ____
ROOT
ATOM      1  N   UNL     1       0.455  10.769  20.170  0.00  0.00    +0.000 NA
ATOM      2  C   UNL     1       0.542  10.644  21.657  0.00  0.00    +0.000 C 
ATOM      3  C   UNL     1       0.232   9.226  22.165  0.00  0.00    +0.000 C 
ATOM      4  O   UNL     1       1.174   8.282  21.632  0.00  0.00    +0.000 OA
ATOM      5  C   UNL     1       1.053   8.241  20.202  0.00  0.00    +0.000 C 
ATOM      6  C   UNL     1       2.077   7.281  19.583  0.00  0.00    +0.000 A 
ATOM      7  C   UNL     1       2.356   6.044  20.171  0.00  0.00    +0.000 A 
ATOM      8  C   UNL     1       3.303   5.240  19.556  0.00  0.00    +0.000 A 
ATOM      9  C   UNL     1       4.044   5.634  18.467  0.00  0.00    +0.000 A 
ATOM     10  C   UNL     1       3.751   6.817  17.825  0.00  0.00    +0.000 A 
ATOM     11  C   UNL     1       2.708   7.599  18.339  0.00  0.00    +0.000 A 
ATOM     12  C   UNL     1       2.255   8.780  17.511  0.00  0.00    +0.000 C 
ATOM     13  C   UNL     1       0.996   9.412  18.084  0.00  0.00    +0.000 C 
ATOM     14  C   UNL     1       1.264   9.669  19.579  0.00  0.00    +0.000 C 
ATOM     15  C   UNL     1       5.060   4.607  18.178  0.00  0.00    +0.000 C 
ATOM     16  O   UNL     1       4.557   3.465  18.892  0.00  0.00    +0.000 OA
ATOM     17  C   UNL     1       3.627   3.848  19.817  0.00  0.00    +0.000 C 
ATOM     18  O   UNL     1       3.105   3.134  20.648  0.00  0.00    +0.000 OA
ENDROOT
BRANCH   1  19
ATOM     19  C   UNL     1       0.976  12.123  19.799  0.00  0.00    +0.000 C 
BRANCH  19  21
ATOM     20  C   UNL     1      -1.242  12.325  18.489  0.00  0.00    +0.000 C 
ATOM     21  C   UNL     1       0.088  12.950  18.855  0.00  0.00    +0.000 C 
ENDBRANCH  19  21
ENDBRANCH   1  19
TORSDOF 2
ENDMDL
MODEL 7
REMARK VINA RESULT:      -6.7      1.380      1.784
REMARK  Name = 
REMARK  3 active torsions:
REMARK  status: ('A' for Active; 'I' for Inactive)
REMARK    1  A    between atoms: C_1  and  C_2
REMARK    2  A    between atoms: C_2  and  C_3
REMARK    3  A    between atoms: C_3  and  N_4
REMARK                            x       y       z     vdW  Elec       q    Type
REMARK                         _______ _______ _______ _____ _____    ______ ____
ROOT
ATOM      1  N   UNL     1       3.716   3.282  19.644  0.00  0.00    +0.000 NA
ATOM      2  C   UNL     1       2.630   2.731  20.510  0.00  0.00    +0.000 C 
ATOM      3  C   UNL     1       2.255   3.660  21.677  0.00  0.00    +0.000 C 
ATOM      4  O   UNL     1       1.768   4.918  21.183  0.00  0.00    +0.000 OA
ATOM      5  C   UNL     1       2.811   5.579  20.451  0.00  0.00    +0.000 C 
ATOM      6  C   UNL     1       2.322   6.908  19.861  0.00  0.00    +0.000 A 
ATOM      7  C   UNL     1       1.503   7.769  20.597  0.00  0.00    +0.000 A 
ATOM      8  C   UNL     1       1.094   8.944  19.986  0.00  0.00    +0.000 A 
ATOM      9  C   UNL     1       1.368   9.256  18.676  0.00  0.00    +0.000 A 
ATOM     10  C   UNL     1       2.223   8.464  17.942  0.00  0.00    +0.000 A 
ATOM     11  C   UNL     1       2.765   7.333  18.568  0.00  0.00    +0.000 A 
ATOM     12  C   UNL     1       3.860   6.594  17.834  0.00  0.00    +0.000 C 
ATOM     13  C   UNL     1       4.490   5.520  18.707  0.00  0.00    +0.000 C 
ATOM     14  C   UNL     1       3.337   4.674  19.278  0.00  0.00    +0.000 C 
ATOM     15  C   UNL     1       0.650  10.491  18.314  0.00  0.00    +0.000 C 
ATOM     16  O   UNL     1       0.324  11.047  19.599  0.00  0.00    +0.000 OA
ATOM     17  C   UNL     1       0.436  10.097  20.576  0.00  0.00    +0.000 C 
ATOM     18  O   UNL     1       0.121  10.226  21.741  0.00  0.00    +0.000 OA
ENDROOT
BRANCH   1  19
ATOM     19  C   UNL     1       3.837   2.390  18.447  0.00  0.00    +0.000 C 
BRANCH  19  21
ATOM     20  C   UNL     1       1.972   3.454  17.010  0.00  0.00    +0.000 C 
ATOM     21  C   UNL     1       2.556   2.197  17.620  0.00  0.00    +0.000 C 
ENDBRANCH  19  21
ENDBRANCH   1  19
TORSDOF 2
ENDMDL
MODEL 8
REMARK VINA RESULT:      -6.7      2.657      7.085
REMARK  Name = 
REMARK  3 active torsions:
REMARK  status: ('A' for Active; 'I' for Inactive)
REMARK    1  A    between atoms: C_1  and  C_2
REMARK    2  A    between atoms: C_2  and  C_3
REMARK    3  A    between atoms: C_3  and  N_4
REMARK                            x       y       z     vdW  Elec       q    Type
REMARK                         _______ _______ _______ _____ _____    ______ ____
ROOT
ATOM      1  N   UNL     1       0.827   9.971  19.952  0.00  0.00    +0.000 NA
ATOM      2  C   UNL     1       0.770  10.549  18.575  0.00  0.00    +0.000 C 
ATOM      3  C   UNL     1       2.032  10.261  17.745  0.00  0.00    +0.000 C 
ATOM      4  O   UNL     1       2.212   8.845  17.575  0.00  0.00    +0.000 OA
ATOM      5  C   UNL     1       2.415   8.232  18.857  0.00  0.00    +0.000 C 
ATOM      6  C   UNL     1       2.562   6.710  18.730  0.00  0.00    +0.000 A 
ATOM      7  C   UNL     1       3.309   6.140  17.696  0.00  0.00    +0.000 A 
ATOM      8  C   UNL     1       3.382   4.756  17.645  0.00  0.00    +0.000 A 
ATOM      9  C   UNL     1       2.684   3.926  18.489  0.00  0.00    +0.000 A 
ATOM     10  C   UNL     1       1.991   4.452  19.557  0.00  0.00    +0.000 A 
ATOM     11  C   UNL     1       2.002   5.843  19.721  0.00  0.00    +0.000 A 
ATOM     12  C   UNL     1       1.423   6.394  21.005  0.00  0.00    +0.000 C 
ATOM     13  C   UNL     1       1.681   7.886  21.138  0.00  0.00    +0.000 C 
ATOM     14  C   UNL     1       1.215   8.540  19.824  0.00  0.00    +0.000 C 
ATOM     15  C   UNL     1       2.866   2.530  18.052  0.00  0.00    +0.000 C 
ATOM     16  O   UNL     1       4.021   2.621  17.200  0.00  0.00    +0.000 OA
ATOM     17  C   UNL     1       4.243   3.917  16.829  0.00  0.00    +0.000 C 
ATOM     18  O   UNL     1       5.070   4.302  16.028  0.00  0.00    +0.000 OA
ENDROOT
BRANCH   1  19
ATOM     19  C   UNL     1      -0.527  10.142  20.570  0.00  0.00    +0.000 C 
BRANCH  19  21
ATOM     20  C   UNL     1      -0.660   9.992  23.145  0.00  0.00    +0.000 C 
ATOM     21  C   UNL     1      -0.563  10.877  21.920  0.00  0.00    +0.000 C 
ENDBRANCH  19  21
ENDBRANCH   1  19
TORSDOF 2
ENDMDL
MODEL 9
REMARK VINA RESULT:      -6.7      2.377      6.339
REMARK  Name = 
REMARK  3 active torsions:
REMARK  status: ('A' for Active; 'I' for Inactive)
REMARK    1  A    between atoms: C_1  and  C_2
REMARK    2  A    between atoms: C_2  and  C_3
REMARK    3  A    between atoms: C_3  and  N_4
REMARK                            x       y       z     vdW  Elec       q    Type
REMARK                         _______ _______ _______ _____ _____    ______ ____
ROOT
ATOM      1  N   UNL     1      -0.096  11.744  20.307  0.00  0.00    +0.000 NA
ATOM      2  C   UNL     1       0.047  11.759  21.794  0.00  0.00    +0.000 C 
ATOM      3  C   UNL     1      -0.311  10.415  22.451  0.00  0.00    +0.000 C 
ATOM      4  O   UNL     1       0.560   9.375  21.978  0.00  0.00    +0.000 OA
ATOM      5  C   UNL     1       0.376   9.203  20.565  0.00  0.00    +0.000 C 
ATOM      6  C   UNL     1       1.323   8.134  20.005  0.00  0.00    +0.000 A 
ATOM      7  C   UNL     1       1.565   6.946  20.701  0.00  0.00    +0.000 A 
ATOM      8  C   UNL     1       2.444   6.037  20.133  0.00  0.00    +0.000 A 
ATOM      9  C   UNL     1       3.157   6.284  18.984  0.00  0.00    +0.000 A 
ATOM     10  C   UNL     1       2.896   7.414  18.240  0.00  0.00    +0.000 A 
ATOM     11  C   UNL     1       1.916   8.296  18.713  0.00  0.00    +0.000 A 
ATOM     12  C   UNL     1       1.487   9.415  17.791  0.00  0.00    +0.000 C 
ATOM     13  C   UNL     1       0.288  10.166  18.345  0.00  0.00    +0.000 C 
ATOM     14  C   UNL     1       0.631  10.550  19.796  0.00  0.00    +0.000 C 
ATOM     15  C   UNL     1       4.107   5.181  18.759  0.00  0.00    +0.000 C 
ATOM     16  O   UNL     1       3.578   4.141  19.600  0.00  0.00    +0.000 OA
ATOM     17  C   UNL     1       2.709   4.661  20.517  0.00  0.00    +0.000 C 
ATOM     18  O   UNL     1       2.188   4.059  21.433  0.00  0.00    +0.000 OA
ENDROOT
BRANCH   1  19
ATOM     19  C   UNL     1       0.475  13.027  19.785  0.00  0.00    +0.000 C 
BRANCH  19  21
ATOM     20  C   UNL     1       2.582  13.273  18.310  0.00  0.00    +0.000 C 
ATOM     21  C   UNL     1       2.009  13.095  19.700  0.00  0.00    +0.000 C 
ENDBRANCH  19  21
ENDBRANCH   1  19
TORSDOF 2
ENDMDL
