MODEL 1
REMARK VINA RESULT:      -7.9      0.000      0.000
REMARK  Name = 
REMARK  9 active torsions:
REMARK  status: ('A' for Active; 'I' for Inactive)
REMARK    1  A    between atoms: C_1  and  C_2
REMARK    2  A    between atoms: C_2  and  C_3
REMARK    3  A    between atoms: C_3  and  C_4
REMARK    4  A    between atoms: C_3  and  C_11
REMARK    5  A    between atoms: C_4  and  C_5
REMARK    6  A    between atoms: C_16  and  O_17
REMARK    7  A    between atoms: C_16  and  C_18
REMARK    8  A    between atoms: C_18  and  N_19
REMARK    9  A    between atoms: C_22  and  C_23
REMARK                            x       y       z     vdW  Elec       q    Type
REMARK                         _______ _______ _______ _____ _____    ______ ____
ROOT
ATOM      1  C   UNL     1      -1.651  12.089  21.209  0.00  0.00    +0.000 C 
ATOM      2  O   UNL     1      -2.697  11.856  21.822  0.00  0.00    +0.000 OA
ATOM      3  N   UNL     1      -0.447  11.526  21.617  0.00  0.00    +0.000 N 
ATOM      4  C   UNL     1      -0.451  10.608  22.754  0.00  0.00    +0.000 C 
ATOM      5  C   UNL     1      -0.369   9.153  22.277  0.00  0.00    +0.000 C 
ATOM      6  C   UNL     1       0.812   8.922  21.304  0.00  0.00    +0.000 C 
ATOM      7  C   UNL     1       0.824  10.001  20.201  0.00  0.00    +0.000 C 
ATOM      8  C   UNL     1       0.752  11.409  20.793  0.00  0.00    +0.000 C 
ENDROOT
BRANCH   6   9
ATOM      9  O   UNL     1       2.027   9.053  22.054  0.00  0.00    +0.000 OA
ATOM     10  H   UNL     1       1.914   8.629  22.930  0.00  0.00    +0.000 HD
ENDBRANCH   6   9
BRANCH   1  11
ATOM     11  C   UNL     1      -1.670  13.009  19.972  0.00  0.00    +0.000 C 
BRANCH  11  13
ATOM     12  C   UNL     1      -0.021  14.488  18.685  0.00  0.00    +0.000 C 
ATOM     13  C   UNL     1      -0.487  13.993  20.046  0.00  0.00    +0.000 C 
ENDBRANCH  11  13
BRANCH  11  14
ATOM     14  C   UNL     1      -1.818  12.269  18.617  0.00  0.00    +0.000 C 
BRANCH  14  15
ATOM     15  C   UNL     1      -2.907  11.171  18.464  0.00  0.00    +0.000 C 
ATOM     16  C   UNL     1      -3.971  11.460  17.392  0.00  0.00    +0.000 C 
ATOM     17  C   UNL     1      -3.406  11.420  15.974  0.00  0.00    +0.000 C 
ATOM     18  C   UNL     1      -2.765  10.067  15.678  0.00  0.00    +0.000 C 
ATOM     19  C   UNL     1      -1.713   9.700  16.721  0.00  0.00    +0.000 C 
ATOM     20  C   UNL     1      -2.264   9.798  18.146  0.00  0.00    +0.000 C 
ENDBRANCH  14  15
ENDBRANCH  11  14
ENDBRANCH   1  11
BRANCH   6  21
ATOM     21  C   UNL     1       0.689   7.494  20.700  0.00  0.00    +0.000 C 
BRANCH  21  22
ATOM     22  N   UNL     1       1.868   7.029  19.970  0.00  0.00    +0.000 N 
ATOM     23  C   UNL     1       2.359   7.745  18.911  0.00  0.00    +0.000 A 
ATOM     24  N   UNL     1       3.295   7.348  18.113  0.00  0.00    +0.000 NA
ATOM     25  C   UNL     1       3.810   6.089  18.322  0.00  0.00    +0.000 A 
ATOM     26  C   UNL     1       3.492   5.345  19.394  0.00  0.00    +0.000 A 
ATOM     27  C   UNL     1       2.449   5.831  20.312  0.00  0.00    +0.000 A 
ATOM     28  O   UNL     1       2.113   5.160  21.285  0.00  0.00    +0.000 OA
BRANCH  25  29
ATOM     29  C   UNL     1       4.719   5.556  17.268  0.00  0.00    +0.000 A 
ATOM     30  C   UNL     1       4.484   4.288  16.708  0.00  0.00    +0.000 A 
ATOM     31  C   UNL     1       5.381   3.724  15.791  0.00  0.00    +0.000 A 
ATOM     32  C   UNL     1       6.530   4.415  15.416  0.00  0.00    +0.000 A 
ATOM     33  C   UNL     1       6.781   5.672  15.957  0.00  0.00    +0.000 A 
ATOM     34  C   UNL     1       5.888   6.227  16.874  0.00  0.00    +0.000 A 
ATOM     35  F   UNL     1       6.204   7.423  17.397  0.00  0.00    +0.000 F 
ENDBRANCH  25  29
ENDBRANCH  21  22
ENDBRANCH   6  21
TORSDOF 8
ENDMDL
MODEL 2
REMARK VINA RESULT:      -7.6      2.901      4.421
REMARK  Name = 
REMARK  9 active torsions:
REMARK  status: ('A' for Active; 'I' for Inactive)
REMARK    1  A    between atoms: C_1  and  C_2
REMARK    2  A    between atoms: C_2  and  C_3
REMARK    3  A    between atoms: C_3  and  C_4
REMARK    4  A    between atoms: C_3  and  C_11
REMARK    5  A    between atoms: C_4  and  C_5
REMARK    6  A    between atoms: C_16  and  O_17
REMARK    7  A    between atoms: C_16  and  C_18
REMARK    8  A    between atoms: C_18  and  N_19
REMARK    9  A    between atoms: C_22  and  C_23
REMARK                            x       y       z     vdW  Elec       q    Type
REMARK                         _______ _______ _______ _____ _____    ______ ____
ROOT
ATOM      1  C   UNL     1      -2.130  13.563  20.441  0.00  0.00    +0.000 C 
ATOM      2  O   UNL     1      -1.607  14.681  20.479  0.00  0.00    +0.000 OA
ATOM      3  N   UNL     1      -1.836  12.675  19.413  0.00  0.00    +0.000 N 
ATOM      4  C   UNL     1      -0.855  13.070  18.403  0.00  0.00    +0.000 C 
ATOM      5  C   UNL     1       0.496  12.394  18.668  0.00  0.00    +0.000 C 
ATOM      6  C   UNL     1       0.362  10.861  18.830  0.00  0.00    +0.000 C 
ATOM      7  C   UNL     1      -0.774  10.518  19.815  0.00  0.00    +0.000 C 
ATOM      8  C   UNL     1      -2.073  11.235  19.446  0.00  0.00    +0.000 C 
ENDROOT
BRANCH   6   9
ATOM      9  O   UNL     1       0.008  10.317  17.551  0.00  0.00    +0.000 OA
ATOM     10  H   UNL     1      -0.733  10.834  17.174  0.00  0.00    +0.000 HD
ENDBRANCH   6   9
BRANCH   1  11
ATOM     11  C   UNL     1      -3.115  13.134  21.546  0.00  0.00    +0.000 C 
BRANCH  11  13
ATOM     12  C   UNL     1      -1.219  12.314  23.063  0.00  0.00    +0.000 C 
ATOM     13  C   UNL     1      -2.422  13.235  22.919  0.00  0.00    +0.000 C 
ENDBRANCH  11  13
BRANCH  11  14
ATOM     14  C   UNL     1      -4.510  13.808  21.469  0.00  0.00    +0.000 C 
BRANCH  14  15
ATOM     15  C   UNL     1      -5.299  13.773  20.131  0.00  0.00    +0.000 C 
ATOM     16  C   UNL     1      -5.606  12.363  19.599  0.00  0.00    +0.000 C 
ATOM     17  C   UNL     1      -6.604  11.607  20.471  0.00  0.00    +0.000 C 
ATOM     18  C   UNL     1      -7.913  12.379  20.601  0.00  0.00    +0.000 C 
ATOM     19  C   UNL     1      -7.684  13.802  21.102  0.00  0.00    +0.000 C 
ATOM     20  C   UNL     1      -6.638  14.540  20.261  0.00  0.00    +0.000 C 
ENDBRANCH  14  15
ENDBRANCH  11  14
ENDBRANCH   1  11
BRANCH   6  21
ATOM     21  C   UNL     1       1.725  10.289  19.313  0.00  0.00    +0.000 C 
BRANCH  21  22
ATOM     22  N   UNL     1       1.795   8.830  19.379  0.00  0.00    +0.000 N 
ATOM     23  C   UNL     1       1.473   8.169  20.535  0.00  0.00    +0.000 A 
ATOM     24  N   UNL     1       1.643   6.904  20.742  0.00  0.00    +0.000 NA
ATOM     25  C   UNL     1       2.230   6.174  19.734  0.00  0.00    +0.000 A 
ATOM     26  C   UNL     1       2.479   6.686  18.519  0.00  0.00    +0.000 A 
ATOM     27  C   UNL     1       2.245   8.122  18.291  0.00  0.00    +0.000 A 
ATOM     28  O   UNL     1       2.492   8.628  17.199  0.00  0.00    +0.000 OA
BRANCH  25  29
ATOM     29  C   UNL     1       2.627   4.777  20.068  0.00  0.00    +0.000 A 
ATOM     30  C   UNL     1       1.949   4.072  21.079  0.00  0.00    +0.000 A 
ATOM     31  C   UNL     1       2.368   2.797  21.480  0.00  0.00    +0.000 A 
ATOM     32  C   UNL     1       3.475   2.201  20.880  0.00  0.00    +0.000 A 
ATOM     33  C   UNL     1       4.159   2.880  19.877  0.00  0.00    +0.000 A 
ATOM     34  C   UNL     1       3.740   4.152  19.485  0.00  0.00    +0.000 A 
ATOM     35  F   UNL     1       4.466   4.776  18.544  0.00  0.00    +0.000 F 
ENDBRANCH  25  29
ENDBRANCH  21  22
ENDBRANCH   6  21
TORSDOF 8
ENDMDL
MODEL 3
REMARK VINA RESULT:      -7.5      1.600      3.334
REMARK  Name = 
REMARK  9 active torsions:
REMARK  status: ('A' for Active; 'I' for Inactive)
REMARK    1  A    between atoms: C_1  and  C_2
REMARK    2  A    between atoms: C_2  and  C_3
REMARK    3  A    between atoms: C_3  and  C_4
REMARK    4  A    between atoms: C_3  and  C_11
REMARK    5  A    between atoms: C_4  and  C_5
REMARK    6  A    between atoms: C_16  and  O_17
REMARK    7  A    between atoms: C_16  and  C_18
REMARK    8  A    between atoms: C_18  and  N_19
REMARK    9  A    between atoms: C_22  and  C_23
REMARK                            x       y       z     vdW  Elec       q    Type
REMARK                         _______ _______ _______ _____ _____    ______ ____
ROOT
ATOM      1  C   UNL     1      -1.505  12.063  21.636  0.00  0.00    +0.000 C 
ATOM      2  O   UNL     1      -2.580  11.800  22.182  0.00  0.00    +0.000 OA
ATOM      3  N   UNL     1      -0.341  11.395  21.999  0.00  0.00    +0.000 N 
ATOM      4  C   UNL     1      -0.423  10.336  23.003  0.00  0.00    +0.000 C 
ATOM      5  C   UNL     1      -0.386   8.955  22.339  0.00  0.00    +0.000 C 
ATOM      6  C   UNL     1       0.817   8.800  21.377  0.00  0.00    +0.000 C 
ATOM      7  C   UNL     1       0.913  10.014  20.430  0.00  0.00    +0.000 C 
ATOM      8  C   UNL     1       0.880  11.333  21.202  0.00  0.00    +0.000 C 
ENDROOT
BRANCH   6   9
ATOM      9  O   UNL     1       2.009   8.774  22.174  0.00  0.00    +0.000 OA
ATOM     10  H   UNL     1       2.792   8.826  21.587  0.00  0.00    +0.000 HD
ENDBRANCH   6   9
BRANCH   1  11
ATOM     11  C   UNL     1      -1.442  13.138  20.533  0.00  0.00    +0.000 C 
BRANCH  11  13
ATOM     12  C   UNL     1      -1.003  12.545  18.080  0.00  0.00    +0.000 C 
ATOM     13  C   UNL     1      -2.009  12.561  19.222  0.00  0.00    +0.000 C 
ENDBRANCH  11  13
BRANCH  11  14
ATOM     14  C   UNL     1      -2.019  14.520  20.941  0.00  0.00    +0.000 C 
BRANCH  14  15
ATOM     15  C   UNL     1      -1.052  15.719  21.140  0.00  0.00    +0.000 C 
ATOM     16  C   UNL     1       0.088  15.808  20.112  0.00  0.00    +0.000 C 
ATOM     17  C   UNL     1      -0.407  16.145  18.708  0.00  0.00    +0.000 C 
ATOM     18  C   UNL     1      -1.178  17.461  18.700  0.00  0.00    +0.000 C 
ATOM     19  C   UNL     1      -2.315  17.456  19.719  0.00  0.00    +0.000 C 
ATOM     20  C   UNL     1      -1.827  17.060  21.115  0.00  0.00    +0.000 C 
ENDBRANCH  14  15
ENDBRANCH  11  14
ENDBRANCH   1  11
BRANCH   6  21
ATOM     21  C   UNL     1       0.655   7.472  20.585  0.00  0.00    +0.000 C 
BRANCH  21  22
ATOM     22  N   UNL     1       1.872   6.990  19.932  0.00  0.00    +0.000 N 
ATOM     23  C   UNL     1       2.403   7.664  18.865  0.00  0.00    +0.000 A 
ATOM     24  N   UNL     1       3.381   7.243  18.130  0.00  0.00    +0.000 NA
ATOM     25  C   UNL     1       3.900   6.002  18.421  0.00  0.00    +0.000 A 
ATOM     26  C   UNL     1       3.541   5.305  19.510  0.00  0.00    +0.000 A 
ATOM     27  C   UNL     1       2.450   5.817  20.356  0.00  0.00    +0.000 A 
ATOM     28  O   UNL     1       2.077   5.187  21.343  0.00  0.00    +0.000 OA
BRANCH  25  29
ATOM     29  C   UNL     1       4.863   5.435  17.436  0.00  0.00    +0.000 A 
ATOM     30  C   UNL     1       6.105   6.059  17.221  0.00  0.00    +0.000 A 
ATOM     31  C   UNL     1       6.983   5.605  16.228  0.00  0.00    +0.000 A 
ATOM     32  C   UNL     1       6.637   4.518  15.429  0.00  0.00    +0.000 A 
ATOM     33  C   UNL     1       5.413   3.885  15.625  0.00  0.00    +0.000 A 
ATOM     34  C   UNL     1       4.540   4.345  16.612  0.00  0.00    +0.000 A 
ATOM     35  F   UNL     1       3.356   3.723  16.725  0.00  0.00    +0.000 F 
ENDBRANCH  25  29
ENDBRANCH  21  22
ENDBRANCH   6  21
TORSDOF 8
ENDMDL
MODEL 4
REMARK VINA RESULT:      -7.4      3.408      5.068
REMARK  Name = 
REMARK  9 active torsions:
REMARK  status: ('A' for Active; 'I' for Inactive)
REMARK    1  A    between atoms: C_1  and  C_2
REMARK    2  A    between atoms: C_2  and  C_3
REMARK    3  A    between atoms: C_3  and  C_4
REMARK    4  A    between atoms: C_3  and  C_11
REMARK    5  A    between atoms: C_4  and  C_5
REMARK    6  A    between atoms: C_16  and  O_17
REMARK    7  A    between atoms: C_16  and  C_18
REMARK    8  A    between atoms: C_18  and  N_19
REMARK    9  A    between atoms: C_22  and  C_23
REMARK                            x       y       z     vdW  Elec       q    Type
REMARK                         _______ _______ _______ _____ _____    ______ ____
ROOT
ATOM      1  C   UNL     1      -2.187  14.432  21.311  0.00  0.00    +0.000 C 
ATOM      2  O   UNL     1      -2.017  15.373  20.530  0.00  0.00    +0.000 OA
ATOM      3  N   UNL     1      -2.272  13.126  20.844  0.00  0.00    +0.000 N 
ATOM      4  C   UNL     1      -2.103  12.880  19.413  0.00  0.00    +0.000 C 
ATOM      5  C   UNL     1      -0.699  12.339  19.118  0.00  0.00    +0.000 C 
ATOM      6  C   UNL     1      -0.344  11.117  19.999  0.00  0.00    +0.000 C 
ATOM      7  C   UNL     1      -0.665  11.406  21.480  0.00  0.00    +0.000 C 
ATOM      8  C   UNL     1      -2.093  11.926  21.655  0.00  0.00    +0.000 C 
ENDROOT
BRANCH   6   9
ATOM      9  O   UNL     1      -1.173  10.024  19.579  0.00  0.00    +0.000 OA
ATOM     10  H   UNL     1      -0.668   9.452  18.966  0.00  0.00    +0.000 HD
ENDBRANCH   6   9
BRANCH   1  11
ATOM     11  C   UNL     1      -2.301  14.698  22.825  0.00  0.00    +0.000 C 
BRANCH  11  13
ATOM     12  C   UNL     1      -2.498  17.110  23.667  0.00  0.00    +0.000 C 
ATOM     13  C   UNL     1      -1.570  16.010  23.172  0.00  0.00    +0.000 C 
ENDBRANCH  11  13
BRANCH  11  14
ATOM     14  C   UNL     1      -3.738  14.581  23.398  0.00  0.00    +0.000 C 
BRANCH  14  15
ATOM     15  C   UNL     1      -4.931  14.380  22.424  0.00  0.00    +0.000 C 
ATOM     16  C   UNL     1      -5.641  13.022  22.543  0.00  0.00    +0.000 C 
ATOM     17  C   UNL     1      -6.394  12.862  23.861  0.00  0.00    +0.000 C 
ATOM     18  C   UNL     1      -7.425  13.972  24.041  0.00  0.00    +0.000 C 
ATOM     19  C   UNL     1      -6.794  15.356  23.909  0.00  0.00    +0.000 C 
ATOM     20  C   UNL     1      -5.990  15.494  22.614  0.00  0.00    +0.000 C 
ENDBRANCH  14  15
ENDBRANCH  11  14
ENDBRANCH   1  11
BRANCH   6  21
ATOM     21  C   UNL     1       1.159  10.777  19.799  0.00  0.00    +0.000 C 
BRANCH  21  22
ATOM     22  N   UNL     1       1.454   9.354  19.630  0.00  0.00    +0.000 N 
ATOM     23  C   UNL     1       1.360   8.493  20.691  0.00  0.00    +0.000 A 
ATOM     24  N   UNL     1       1.739   7.257  20.683  0.00  0.00    +0.000 NA
ATOM     25  C   UNL     1       2.318   6.782  19.528  0.00  0.00    +0.000 A 
ATOM     26  C   UNL     1       2.356   7.495  18.391  0.00  0.00    +0.000 A 
ATOM     27  C   UNL     1       1.886   8.890  18.410  0.00  0.00    +0.000 A 
ATOM     28  O   UNL     1       1.935   9.579  17.394  0.00  0.00    +0.000 OA
BRANCH  25  29
ATOM     29  C   UNL     1       2.953   5.436  19.605  0.00  0.00    +0.000 A 
ATOM     30  C   UNL     1       4.317   5.280  19.300  0.00  0.00    +0.000 A 
ATOM     31  C   UNL     1       4.911   4.012  19.266  0.00  0.00    +0.000 A 
ATOM     32  C   UNL     1       4.154   2.874  19.534  0.00  0.00    +0.000 A 
ATOM     33  C   UNL     1       2.803   3.006  19.840  0.00  0.00    +0.000 A 
ATOM     34  C   UNL     1       2.215   4.271  19.867  0.00  0.00    +0.000 A 
ATOM     35  F   UNL     1       0.899   4.333  20.124  0.00  0.00    +0.000 F 
ENDBRANCH  25  29
ENDBRANCH  21  22
ENDBRANCH   6  21
TORSDOF 8
ENDMDL
MODEL 5
REMARK VINA RESULT:      -7.3      7.211     10.523
REMARK  Name = 
REMARK  9 active torsions:
REMARK  status: ('A' for Active; 'I' for Inactive)
REMARK    1  A    between atoms: C_1  and  C_2
REMARK    2  A    between atoms: C_2  and  C_3
REMARK    3  A    between atoms: C_3  and  C_4
REMARK    4  A    between atoms: C_3  and  C_11
REMARK    5  A    between atoms: C_4  and  C_5
REMARK    6  A    between atoms: C_16  and  O_17
REMARK    7  A    between atoms: C_16  and  C_18
REMARK    8  A    between atoms: C_18  and  N_19
REMARK    9  A    between atoms: C_22  and  C_23
REMARK                            x       y       z     vdW  Elec       q    Type
REMARK                         _______ _______ _______ _____ _____    ______ ____
ROOT
ATOM      1  C   UNL     1       9.445  16.535  19.184  0.00  0.00    +0.000 C 
ATOM      2  O   UNL     1       9.652  17.732  18.969  0.00  0.00    +0.000 OA
ATOM      3  N   UNL     1       8.692  16.128  20.280  0.00  0.00    +0.000 N 
ATOM      4  C   UNL     1       8.104  17.149  21.145  0.00  0.00    +0.000 C 
ATOM      5  C   UNL     1       6.610  17.319  20.843  0.00  0.00    +0.000 C 
ATOM      6  C   UNL     1       5.849  15.972  20.874  0.00  0.00    +0.000 C 
ATOM      7  C   UNL     1       6.594  14.910  20.040  0.00  0.00    +0.000 C 
ATOM      8  C   UNL     1       8.069  14.818  20.436  0.00  0.00    +0.000 C 
ENDROOT
BRANCH   6   9
ATOM      9  O   UNL     1       5.822  15.519  22.234  0.00  0.00    +0.000 OA
ATOM     10  H   UNL     1       6.189  16.217  22.815  0.00  0.00    +0.000 HD
ENDBRANCH   6   9
BRANCH   1  11
ATOM     11  C   UNL     1      10.019  15.469  18.229  0.00  0.00    +0.000 C 
BRANCH  11  13
ATOM     12  C   UNL     1      12.088  16.431  17.063  0.00  0.00    +0.000 C 
ATOM     13  C   UNL     1      10.593  16.159  16.976  0.00  0.00    +0.000 C 
ENDBRANCH  11  13
BRANCH  11  14
ATOM     14  C   UNL     1      10.967  14.441  18.900  0.00  0.00    +0.000 C 
BRANCH  14  15
ATOM     15  C   UNL     1      11.343  13.141  18.135  0.00  0.00    +0.000 C 
ATOM     16  C   UNL     1      11.995  12.049  18.999  0.00  0.00    +0.000 C 
ATOM     17  C   UNL     1      11.030  11.445  20.016  0.00  0.00    +0.000 C 
ATOM     18  C   UNL     1       9.803  10.857  19.325  0.00  0.00    +0.000 C 
ATOM     19  C   UNL     1       9.116  11.881  18.426  0.00  0.00    +0.000 C 
ATOM     20  C   UNL     1      10.098  12.529  17.446  0.00  0.00    +0.000 C 
ENDBRANCH  14  15
ENDBRANCH  11  14
ENDBRANCH   1  11
BRANCH   6  21
ATOM     21  C   UNL     1       4.406  16.201  20.342  0.00  0.00    +0.000 C 
BRANCH  21  22
ATOM     22  N   UNL     1       3.647  14.981  20.067  0.00  0.00    +0.000 N 
ATOM     23  C   UNL     1       3.490  14.534  18.782  0.00  0.00    +0.000 A 
ATOM     24  N   UNL     1       2.720  13.559  18.422  0.00  0.00    +0.000 NA
ATOM     25  C   UNL     1       1.971  12.951  19.403  0.00  0.00    +0.000 A 
ATOM     26  C   UNL     1       2.129  13.224  20.708  0.00  0.00    +0.000 A 
ATOM     27  C   UNL     1       3.038  14.314  21.102  0.00  0.00    +0.000 A 
ATOM     28  O   UNL     1       3.181  14.609  22.286  0.00  0.00    +0.000 OA
BRANCH  25  29
ATOM     29  C   UNL     1       0.927  11.991  18.947  0.00  0.00    +0.000 A 
ATOM     30  C   UNL     1       1.261  10.647  18.703  0.00  0.00    +0.000 A 
ATOM     31  C   UNL     1       0.322   9.751  18.176  0.00  0.00    +0.000 A 
ATOM     32  C   UNL     1      -0.969  10.180  17.880  0.00  0.00    +0.000 A 
ATOM     33  C   UNL     1      -1.321  11.505  18.115  0.00  0.00    +0.000 A 
ATOM     34  C   UNL     1      -0.381  12.395  18.635  0.00  0.00    +0.000 A 
ATOM     35  F   UNL     1      -0.764  13.671  18.798  0.00  0.00    +0.000 F 
ENDBRANCH  25  29
ENDBRANCH  21  22
ENDBRANCH   6  21
TORSDOF 8
ENDMDL
MODEL 6
REMARK VINA RESULT:      -7.2      3.052      4.206
REMARK  Name = 
REMARK  9 active torsions:
REMARK  status: ('A' for Active; 'I' for Inactive)
REMARK    1  A    between atoms: C_1  and  C_2
REMARK    2  A    between atoms: C_2  and  C_3
REMARK    3  A    between atoms: C_3  and  C_4
REMARK    4  A    between atoms: C_3  and  C_11
REMARK    5  A    between atoms: C_4  and  C_5
REMARK    6  A    between atoms: C_16  and  O_17
REMARK    7  A    between atoms: C_16  and  C_18
REMARK    8  A    between atoms: C_18  and  N_19
REMARK    9  A    between atoms: C_22  and  C_23
REMARK                            x       y       z     vdW  Elec       q    Type
REMARK                         _______ _______ _______ _____ _____    ______ ____
ROOT
ATOM      1  C   UNL     1      -1.704  13.866  20.396  0.00  0.00    +0.000 C 
ATOM      2  O   UNL     1      -1.052  14.914  20.414  0.00  0.00    +0.000 OA
ATOM      3  N   UNL     1      -1.472  12.900  19.423  0.00  0.00    +0.000 N 
ATOM      4  C   UNL     1      -0.404  13.125  18.451  0.00  0.00    +0.000 C 
ATOM      5  C   UNL     1       0.841  12.307  18.816  0.00  0.00    +0.000 C 
ATOM      6  C   UNL     1       0.514  10.810  19.036  0.00  0.00    +0.000 C 
ATOM      7  C   UNL     1      -0.701  10.654  19.973  0.00  0.00    +0.000 C 
ATOM      8  C   UNL     1      -1.884  11.503  19.506  0.00  0.00    +0.000 C 
ENDROOT
BRANCH   6   9
ATOM      9  O   UNL     1       0.158  10.251  17.765  0.00  0.00    +0.000 OA
ATOM     10  H   UNL     1       0.089   9.278  17.847  0.00  0.00    +0.000 HD
ENDBRANCH   6   9
BRANCH   1  11
ATOM     11  C   UNL     1      -2.786  13.612  21.464  0.00  0.00    +0.000 C 
BRANCH  11  13
ATOM     12  C   UNL     1      -2.911  14.631  23.812  0.00  0.00    +0.000 C 
ATOM     13  C   UNL     1      -2.978  14.884  22.313  0.00  0.00    +0.000 C 
ENDBRANCH  11  13
BRANCH  11  14
ATOM     14  C   UNL     1      -4.098  12.986  20.922  0.00  0.00    +0.000 C 
BRANCH  14  15
ATOM     15  C   UNL     1      -5.444  13.731  21.142  0.00  0.00    +0.000 C 
ATOM     16  C   UNL     1      -6.032  14.389  19.883  0.00  0.00    +0.000 C 
ATOM     17  C   UNL     1      -6.502  13.370  18.849  0.00  0.00    +0.000 C 
ATOM     18  C   UNL     1      -7.545  12.428  19.443  0.00  0.00    +0.000 C 
ATOM     19  C   UNL     1      -7.039  11.755  20.715  0.00  0.00    +0.000 C 
ATOM     20  C   UNL     1      -6.513  12.775  21.729  0.00  0.00    +0.000 C 
ENDBRANCH  14  15
ENDBRANCH  11  14
ENDBRANCH   1  11
BRANCH   6  21
ATOM     21  C   UNL     1       1.773  10.104  19.615  0.00  0.00    +0.000 C 
BRANCH  21  22
ATOM     22  N   UNL     1       1.857   8.670  19.343  0.00  0.00    +0.000 N 
ATOM     23  C   UNL     1       1.587   7.757  20.327  0.00  0.00    +0.000 A 
ATOM     24  N   UNL     1       1.775   6.481  20.232  0.00  0.00    +0.000 NA
ATOM     25  C   UNL     1       2.328   6.010  19.063  0.00  0.00    +0.000 A 
ATOM     26  C   UNL     1       2.524   6.792  17.989  0.00  0.00    +0.000 A 
ATOM     27  C   UNL     1       2.269   8.238  18.105  0.00  0.00    +0.000 A 
ATOM     28  O   UNL     1       2.468   8.984  17.150  0.00  0.00    +0.000 OA
BRANCH  25  29
ATOM     29  C   UNL     1       2.749   4.581  19.053  0.00  0.00    +0.000 A 
ATOM     30  C   UNL     1       3.927   4.187  19.711  0.00  0.00    +0.000 A 
ATOM     31  C   UNL     1       4.397   2.869  19.630  0.00  0.00    +0.000 A 
ATOM     32  C   UNL     1       3.700   1.920  18.887  0.00  0.00    +0.000 A 
ATOM     33  C   UNL     1       2.531   2.289  18.228  0.00  0.00    +0.000 A 
ATOM     34  C   UNL     1       2.070   3.603  18.308  0.00  0.00    +0.000 A 
ATOM     35  F   UNL     1       0.962   3.911  17.616  0.00  0.00    +0.000 F 
ENDBRANCH  25  29
ENDBRANCH  21  22
ENDBRANCH   6  21
TORSDOF 8
ENDMDL
MODEL 7
REMARK VINA RESULT:      -7.2      2.588      4.430
REMARK  Name = 
REMARK  9 active torsions:
REMARK  status: ('A' for Active; 'I' for Inactive)
REMARK    1  A    between atoms: C_1  and  C_2
REMARK    2  A    between atoms: C_2  and  C_3
REMARK    3  A    between atoms: C_3  and  C_4
REMARK    4  A    between atoms: C_3  and  C_11
REMARK    5  A    between atoms: C_4  and  C_5
REMARK    6  A    between atoms: C_16  and  O_17
REMARK    7  A    between atoms: C_16  and  C_18
REMARK    8  A    between atoms: C_18  and  N_19
REMARK    9  A    between atoms: C_22  and  C_23
REMARK                            x       y       z     vdW  Elec       q    Type
REMARK                         _______ _______ _______ _____ _____    ______ ____
ROOT
ATOM      1  C   UNL     1      -1.812  11.951  22.626  0.00  0.00    +0.000 C 
ATOM      2  O   UNL     1      -2.777  11.425  23.185  0.00  0.00    +0.000 OA
ATOM      3  N   UNL     1      -0.562  11.341  22.637  0.00  0.00    +0.000 N 
ATOM      4  C   UNL     1      -0.425  10.036  23.281  0.00  0.00    +0.000 C 
ATOM      5  C   UNL     1      -0.381   8.918  22.233  0.00  0.00    +0.000 C 
ATOM      6  C   UNL     1       0.682   9.180  21.139  0.00  0.00    +0.000 C 
ATOM      7  C   UNL     1       0.555  10.618  20.595  0.00  0.00    +0.000 C 
ATOM      8  C   UNL     1       0.535  11.647  21.726  0.00  0.00    +0.000 C 
ENDROOT
BRANCH   6   9
ATOM      9  O   UNL     1       1.974   9.059  21.751  0.00  0.00    +0.000 OA
ATOM     10  H   UNL     1       2.085   8.149  22.095  0.00  0.00    +0.000 HD
ENDBRANCH   6   9
BRANCH   1  11
ATOM     11  C   UNL     1      -1.984  13.299  21.896  0.00  0.00    +0.000 C 
BRANCH  11  13
ATOM     12  C   UNL     1      -3.904  14.715  20.962  0.00  0.00    +0.000 C 
ATOM     13  C   UNL     1      -3.339  13.316  21.163  0.00  0.00    +0.000 C 
ENDBRANCH  11  13
BRANCH  11  14
ATOM     14  C   UNL     1      -1.698  14.549  22.768  0.00  0.00    +0.000 C 
BRANCH  14  15
ATOM     15  C   UNL     1      -1.899  14.466  24.306  0.00  0.00    +0.000 C 
ATOM     16  C   UNL     1      -1.122  15.516  25.118  0.00  0.00    +0.000 C 
ATOM     17  C   UNL     1      -1.639  16.935  24.897  0.00  0.00    +0.000 C 
ATOM     18  C   UNL     1      -3.119  17.040  25.249  0.00  0.00    +0.000 C 
ATOM     19  C   UNL     1      -3.954  16.007  24.498  0.00  0.00    +0.000 C 
ATOM     20  C   UNL     1      -3.399  14.590  24.673  0.00  0.00    +0.000 C 
ENDBRANCH  14  15
ENDBRANCH  11  14
ENDBRANCH   1  11
BRANCH   6  21
ATOM     21  C   UNL     1       0.507   8.127  20.009  0.00  0.00    +0.000 C 
BRANCH  21  22
ATOM     22  N   UNL     1       1.753   7.557  19.497  0.00  0.00    +0.000 N 
ATOM     23  C   UNL     1       2.385   8.118  18.420  0.00  0.00    +0.000 A 
ATOM     24  N   UNL     1       3.400   7.608  17.803  0.00  0.00    +0.000 NA
ATOM     25  C   UNL     1       3.856   6.385  18.242  0.00  0.00    +0.000 A 
ATOM     26  C   UNL     1       3.394   5.798  19.357  0.00  0.00    +0.000 A 
ATOM     27  C   UNL     1       2.260   6.413  20.067  0.00  0.00    +0.000 A 
ATOM     28  O   UNL     1       1.794   5.884  21.073  0.00  0.00    +0.000 OA
BRANCH  25  29
ATOM     29  C   UNL     1       4.871   5.707  17.388  0.00  0.00    +0.000 A 
ATOM     30  C   UNL     1       6.131   6.297  17.183  0.00  0.00    +0.000 A 
ATOM     31  C   UNL     1       7.063   5.731  16.304  0.00  0.00    +0.000 A 
ATOM     32  C   UNL     1       6.754   4.563  15.610  0.00  0.00    +0.000 A 
ATOM     33  C   UNL     1       5.514   3.961  15.800  0.00  0.00    +0.000 A 
ATOM     34  C   UNL     1       4.587   4.533  16.672  0.00  0.00    +0.000 A 
ATOM     35  F   UNL     1       3.391   3.933  16.780  0.00  0.00    +0.000 F 
ENDBRANCH  25  29
ENDBRANCH  21  22
ENDBRANCH   6  21
TORSDOF 8
ENDMDL
MODEL 8
REMARK VINA RESULT:      -7.2      3.209      4.827
REMARK  Name = 
REMARK  9 active torsions:
REMARK  status: ('A' for Active; 'I' for Inactive)
REMARK    1  A    between atoms: C_1  and  C_2
REMARK    2  A    between atoms: C_2  and  C_3
REMARK    3  A    between atoms: C_3  and  C_4
REMARK    4  A    between atoms: C_3  and  C_11
REMARK    5  A    between atoms: C_4  and  C_5
REMARK    6  A    between atoms: C_16  and  O_17
REMARK    7  A    between atoms: C_16  and  C_18
REMARK    8  A    between atoms: C_18  and  N_19
REMARK    9  A    between atoms: C_22  and  C_23
REMARK                            x       y       z     vdW  Elec       q    Type
REMARK                         _______ _______ _______ _____ _____    ______ ____
ROOT
ATOM      1  C   UNL     1      -1.561  14.545  20.751  0.00  0.00    +0.000 C 
ATOM      2  O   UNL     1      -1.084  15.435  20.042  0.00  0.00    +0.000 OA
ATOM      3  N   UNL     1      -1.731  13.256  20.259  0.00  0.00    +0.000 N 
ATOM      4  C   UNL     1      -1.283  12.960  18.899  0.00  0.00    +0.000 C 
ATOM      5  C   UNL     1       0.056  12.214  18.920  0.00  0.00    +0.000 C 
ATOM      6  C   UNL     1       0.020  10.971  19.841  0.00  0.00    +0.000 C 
ATOM      7  C   UNL     1      -0.579  11.333  21.216  0.00  0.00    +0.000 C 
ATOM      8  C   UNL     1      -1.917  12.059  21.072  0.00  0.00    +0.000 C 
ENDROOT
BRANCH   6   9
ATOM      9  O   UNL     1      -0.845  10.003  19.231  0.00  0.00    +0.000 OA
ATOM     10  H   UNL     1      -0.857   9.190  19.777  0.00  0.00    +0.000 HD
ENDBRANCH   6   9
BRANCH   1  11
ATOM     11  C   UNL     1      -1.972  14.855  22.205  0.00  0.00    +0.000 C 
BRANCH  11  13
ATOM     12  C   UNL     1      -1.757  17.350  22.747  0.00  0.00    +0.000 C 
ATOM     13  C   UNL     1      -1.083  15.985  22.759  0.00  0.00    +0.000 C 
ENDBRANCH  11  13
BRANCH  11  14
ATOM     14  C   UNL     1      -3.495  15.058  22.419  0.00  0.00    +0.000 C 
BRANCH  14  15
ATOM     15  C   UNL     1      -4.095  14.866  23.839  0.00  0.00    +0.000 C 
ATOM     16  C   UNL     1      -5.221  15.848  24.202  0.00  0.00    +0.000 C 
ATOM     17  C   UNL     1      -6.490  15.621  23.386  0.00  0.00    +0.000 C 
ATOM     18  C   UNL     1      -7.006  14.196  23.561  0.00  0.00    +0.000 C 
ATOM     19  C   UNL     1      -5.930  13.162  23.241  0.00  0.00    +0.000 C 
ATOM     20  C   UNL     1      -4.637  13.426  24.017  0.00  0.00    +0.000 C 
ENDBRANCH  14  15
ENDBRANCH  11  14
ENDBRANCH   1  11
BRANCH   6  21
ATOM     21  C   UNL     1       1.463  10.409  19.980  0.00  0.00    +0.000 C 
BRANCH  21  22
ATOM     22  N   UNL     1       1.610   8.993  19.646  0.00  0.00    +0.000 N 
ATOM     23  C   UNL     1       1.433   8.030  20.603  0.00  0.00    +0.000 A 
ATOM     24  N   UNL     1       1.683   6.771  20.449  0.00  0.00    +0.000 NA
ATOM     25  C   UNL     1       2.208   6.376  19.239  0.00  0.00    +0.000 A 
ATOM     26  C   UNL     1       2.315   7.207  18.190  0.00  0.00    +0.000 A 
ATOM     27  C   UNL     1       1.989   8.632  18.375  0.00  0.00    +0.000 A 
ATOM     28  O   UNL     1       2.106   9.424  17.444  0.00  0.00    +0.000 OA
BRANCH  25  29
ATOM     29  C   UNL     1       2.702   4.973  19.153  0.00  0.00    +0.000 A 
ATOM     30  C   UNL     1       1.792   3.911  19.005  0.00  0.00    +0.000 A 
ATOM     31  C   UNL     1       2.224   2.578  19.025  0.00  0.00    +0.000 A 
ATOM     32  C   UNL     1       3.574   2.280  19.194  0.00  0.00    +0.000 A 
ATOM     33  C   UNL     1       4.492   3.316  19.340  0.00  0.00    +0.000 A 
ATOM     34  C   UNL     1       4.056   4.641  19.325  0.00  0.00    +0.000 A 
ATOM     35  F   UNL     1       4.979   5.596  19.516  0.00  0.00    +0.000 F 
ENDBRANCH  25  29
ENDBRANCH  21  22
ENDBRANCH   6  21
TORSDOF 8
ENDMDL
MODEL 9
REMARK VINA RESULT:      -7.2      3.385      5.536
REMARK  Name = 
REMARK  9 active torsions:
REMARK  status: ('A' for Active; 'I' for Inactive)
REMARK    1  A    between atoms: C_1  and  C_2
REMARK    2  A    between atoms: C_2  and  C_3
REMARK    3  A    between atoms: C_3  and  C_4
REMARK    4  A    between atoms: C_3  and  C_11
REMARK    5  A    between atoms: C_4  and  C_5
REMARK    6  A    between atoms: C_16  and  O_17
REMARK    7  A    between atoms: C_16  and  C_18
REMARK    8  A    between atoms: C_18  and  N_19
REMARK    9  A    between atoms: C_22  and  C_23
REMARK                            x       y       z     vdW  Elec       q    Type
REMARK                         _______ _______ _______ _____ _____    ______ ____
ROOT
ATOM      1  C   UNL     1      -5.707  12.426  20.572  0.00  0.00    +0.000 C 
ATOM      2  O   UNL     1      -6.077  11.421  21.186  0.00  0.00    +0.000 OA
ATOM      3  N   UNL     1      -5.170  13.515  21.249  0.00  0.00    +0.000 N 
ATOM      4  C   UNL     1      -5.001  13.427  22.698  0.00  0.00    +0.000 C 
ATOM      5  C   UNL     1      -3.537  13.147  23.057  0.00  0.00    +0.000 C 
ATOM      6  C   UNL     1      -2.567  14.148  22.384  0.00  0.00    +0.000 C 
ATOM      7  C   UNL     1      -2.885  14.282  20.881  0.00  0.00    +0.000 C 
ATOM      8  C   UNL     1      -4.368  14.573  20.644  0.00  0.00    +0.000 C 
ENDROOT
BRANCH   6   9
ATOM      9  O   UNL     1      -2.777  15.431  22.989  0.00  0.00    +0.000 OA
ATOM     10  H   UNL     1      -2.352  15.446  23.871  0.00  0.00    +0.000 HD
ENDBRANCH   6   9
BRANCH   1  11
ATOM     11  C   UNL     1      -5.832  12.482  19.037  0.00  0.00    +0.000 C 
BRANCH  11  13
ATOM     12  C   UNL     1      -7.916  13.929  18.680  0.00  0.00    +0.000 C 
ATOM     13  C   UNL     1      -6.397  13.853  18.617  0.00  0.00    +0.000 C 
ENDBRANCH  11  13
BRANCH  11  14
ATOM     14  C   UNL     1      -4.560  12.039  18.267  0.00  0.00    +0.000 C 
BRANCH  14  15
ATOM     15  C   UNL     1      -4.630  10.800  17.332  0.00  0.00    +0.000 C 
ATOM     16  C   UNL     1      -4.008  11.004  15.940  0.00  0.00    +0.000 C 
ATOM     17  C   UNL     1      -2.491  11.167  15.989  0.00  0.00    +0.000 C 
ATOM     18  C   UNL     1      -1.832   9.960  16.649  0.00  0.00    +0.000 C 
ATOM     19  C   UNL     1      -2.419   9.680  18.030  0.00  0.00    +0.000 C 
ATOM     20  C   UNL     1      -3.946   9.575  17.989  0.00  0.00    +0.000 C 
ENDBRANCH  14  15
ENDBRANCH  11  14
ENDBRANCH   1  11
BRANCH   6  21
ATOM     21  C   UNL     1      -1.108  13.662  22.615  0.00  0.00    +0.000 C 
BRANCH  21  22
ATOM     22  N   UNL     1      -0.662  12.598  21.716  0.00  0.00    +0.000 N 
ATOM     23  C   UNL     1      -1.066  11.304  21.913  0.00  0.00    +0.000 A 
ATOM     24  N   UNL     1      -0.614  10.277  21.272  0.00  0.00    +0.000 NA
ATOM     25  C   UNL     1       0.380  10.498  20.347  0.00  0.00    +0.000 A 
ATOM     26  C   UNL     1       0.772  11.730  19.986  0.00  0.00    +0.000 A 
ATOM     27  C   UNL     1       0.219  12.891  20.703  0.00  0.00    +0.000 A 
ATOM     28  O   UNL     1       0.580  14.030  20.417  0.00  0.00    +0.000 OA
BRANCH  25  29
ATOM     29  C   UNL     1       1.048   9.290  19.784  0.00  0.00    +0.000 A 
ATOM     30  C   UNL     1       1.372   8.208  20.621  0.00  0.00    +0.000 A 
ATOM     31  C   UNL     1       2.091   7.107  20.137  0.00  0.00    +0.000 A 
ATOM     32  C   UNL     1       2.500   7.066  18.806  0.00  0.00    +0.000 A 
ATOM     33  C   UNL     1       2.188   8.126  17.960  0.00  0.00    +0.000 A 
ATOM     34  C   UNL     1       1.478   9.223  18.449  0.00  0.00    +0.000 A 
ATOM     35  F   UNL     1       1.245  10.235  17.599  0.00  0.00    +0.000 F 
ENDBRANCH  25  29
ENDBRANCH  21  22
ENDBRANCH   6  21
TORSDOF 8
ENDMDL
