MODEL 1
REMARK VINA RESULT:      -7.4      0.000      0.000
REMARK  Name = 
REMARK  7 active torsions:
REMARK  status: ('A' for Active; 'I' for Inactive)
REMARK    1  A    between atoms: C_1  and  N_2
REMARK    2  A    between atoms: N_2  and  C_3
REMARK    3  A    between atoms: N_2  and  C_4
REMARK    4  A    between atoms: C_4  and  C_5
REMARK    5  A    between atoms: C_8  and  C_9
REMARK    6  A    between atoms: C_9  and  N_10
REMARK    7  A    between atoms: N_13  and  C_14
REMARK                            x       y       z     vdW  Elec       q    Type
REMARK                         _______ _______ _______ _____ _____    ______ ____
ROOT
ATOM      1  N   UNL     1       7.934   6.896  18.343  0.00  0.00    +0.000 N 
ATOM      2  C   UNL     1       8.133   8.244  18.130  0.00  0.00    +0.000 C 
ATOM      3  O   UNL     1       7.647   8.826  17.170  0.00  0.00    +0.000 OA
ATOM      4  N   UNL     1       8.939   8.801  19.097  0.00  0.00    +0.000 N 
ATOM      5  H   UNL     1       7.864   6.613  19.310  0.00  0.00    +0.000 HD
ATOM      6  H   UNL     1       9.535   8.148  19.583  0.00  0.00    +0.000 HD
ENDROOT
BRANCH   4   7
ATOM      7  C   UNL     1       9.236  10.174  19.225  0.00  0.00    +0.000 A 
ATOM      8  C   UNL     1       9.474  11.008  18.127  0.00  0.00    +0.000 A 
ATOM      9  C   UNL     1       9.774  12.362  18.305  0.00  0.00    +0.000 A 
ATOM     10  C   UNL     1       9.831  12.893  19.588  0.00  0.00    +0.000 A 
ATOM     11 CL   UNL     1      10.208  14.557  19.810  0.00  0.00    +0.000 Cl
ATOM     12  C   UNL     1       9.583  12.082  20.693  0.00  0.00    +0.000 A 
ATOM     13  C   UNL     1       9.278  10.727  20.511  0.00  0.00    +0.000 A 
ENDBRANCH   4   7
BRANCH   1  14
ATOM     14  C   UNL     1       7.065   6.211  17.413  0.00  0.00    +0.000 C 
BRANCH  14  18
ATOM     15  C   UNL     1       3.175   5.162  18.967  0.00  0.00    +0.000 A 
ATOM     16  C   UNL     1       3.292   6.025  17.869  0.00  0.00    +0.000 A 
ATOM     17  C   UNL     1       4.550   6.397  17.388  0.00  0.00    +0.000 A 
ATOM     18  C   UNL     1       5.714   5.910  17.997  0.00  0.00    +0.000 A 
ATOM     19  C   UNL     1       5.597   5.098  19.134  0.00  0.00    +0.000 A 
ATOM     20  C   UNL     1       4.339   4.727  19.613  0.00  0.00    +0.000 A 
BRANCH  15  21
ATOM     21  C   UNL     1       1.816   4.660  19.414  0.00  0.00    +0.000 C 
BRANCH  21  23
ATOM     22  C   UNL     1       1.330   2.978  21.112  0.00  0.00    +0.000 C 
ATOM     23  N   UNL     1       1.808   3.223  19.748  0.00  0.00    +0.000 NA
ATOM     24  C   UNL     1       0.964   2.490  18.801  0.00  0.00    +0.000 C 
ENDBRANCH  21  23
ENDBRANCH  15  21
ENDBRANCH  14  18
ENDBRANCH   1  14
TORSDOF 5
ENDMDL
MODEL 2
REMARK VINA RESULT:      -7.3      1.051      1.067
REMARK  Name = 
REMARK  7 active torsions:
REMARK  status: ('A' for Active; 'I' for Inactive)
REMARK    1  A    between atoms: C_1  and  N_2
REMARK    2  A    between atoms: N_2  and  C_3
REMARK    3  A    between atoms: N_2  and  C_4
REMARK    4  A    between atoms: C_4  and  C_5
REMARK    5  A    between atoms: C_8  and  C_9
REMARK    6  A    between atoms: C_9  and  N_10
REMARK    7  A    between atoms: N_13  and  C_14
REMARK                            x       y       z     vdW  Elec       q    Type
REMARK                         _______ _______ _______ _____ _____    ______ ____
ROOT
ATOM      1  N   UNL     1       7.039   7.689  17.147  0.00  0.00    +0.000 N 
ATOM      2  C   UNL     1       8.003   8.256  17.955  0.00  0.00    +0.000 C 
ATOM      3  O   UNL     1       8.627   7.598  18.777  0.00  0.00    +0.000 OA
ATOM      4  N   UNL     1       8.130   9.607  17.727  0.00  0.00    +0.000 N 
ATOM      5  H   UNL     1       6.972   8.071  16.215  0.00  0.00    +0.000 HD
ATOM      6  H   UNL     1       7.325  10.047  17.308  0.00  0.00    +0.000 HD
ENDROOT
BRANCH   4   7
ATOM      7  C   UNL     1       9.103  10.447  18.308  0.00  0.00    +0.000 A 
ATOM      8  C   UNL     1       9.988  11.224  17.551  0.00  0.00    +0.000 A 
ATOM      9  C   UNL     1      10.943  12.035  18.173  0.00  0.00    +0.000 A 
ATOM     10  C   UNL     1      11.014  12.079  19.560  0.00  0.00    +0.000 A 
ATOM     11 CL   UNL     1      12.192  13.070  20.326  0.00  0.00    +0.000 Cl
ATOM     12  C   UNL     1      10.131  11.324  20.330  0.00  0.00    +0.000 A 
ATOM     13  C   UNL     1       9.173  10.516  19.705  0.00  0.00    +0.000 A 
ENDBRANCH   4   7
BRANCH   1  14
ATOM     14  C   UNL     1       6.846   6.261  17.267  0.00  0.00    +0.000 C 
BRANCH  14  18
ATOM     15  C   UNL     1       3.062   5.088  18.985  0.00  0.00    +0.000 A 
ATOM     16  C   UNL     1       3.130   6.154  18.078  0.00  0.00    +0.000 A 
ATOM     17  C   UNL     1       4.358   6.561  17.550  0.00  0.00    +0.000 A 
ATOM     18  C   UNL     1       5.540   5.906  17.919  0.00  0.00    +0.000 A 
ATOM     19  C   UNL     1       5.480   4.882  18.875  0.00  0.00    +0.000 A 
ATOM     20  C   UNL     1       4.252   4.476  19.401  0.00  0.00    +0.000 A 
BRANCH  15  21
ATOM     21  C   UNL     1       1.722   4.565  19.465  0.00  0.00    +0.000 C 
BRANCH  21  23
ATOM     22  C   UNL     1       1.362   2.929  21.237  0.00  0.00    +0.000 C 
ATOM     23  N   UNL     1       1.754   3.139  19.840  0.00  0.00    +0.000 NA
ATOM     24  C   UNL     1       0.868   2.367  18.967  0.00  0.00    +0.000 C 
ENDBRANCH  21  23
ENDBRANCH  15  21
ENDBRANCH  14  18
ENDBRANCH   1  14
TORSDOF 5
ENDMDL
MODEL 3
REMARK VINA RESULT:      -7.2      0.968      1.377
REMARK  Name = 
REMARK  7 active torsions:
REMARK  status: ('A' for Active; 'I' for Inactive)
REMARK    1  A    between atoms: C_1  and  N_2
REMARK    2  A    between atoms: N_2  and  C_3
REMARK    3  A    between atoms: N_2  and  C_4
REMARK    4  A    between atoms: C_4  and  C_5
REMARK    5  A    between atoms: C_8  and  C_9
REMARK    6  A    between atoms: C_9  and  N_10
REMARK    7  A    between atoms: N_13  and  C_14
REMARK                            x       y       z     vdW  Elec       q    Type
REMARK                         _______ _______ _______ _____ _____    ______ ____
ROOT
ATOM      1  N   UNL     1       7.259   7.931  17.046  0.00  0.00    +0.000 N 
ATOM      2  C   UNL     1       8.083   8.598  17.929  0.00  0.00    +0.000 C 
ATOM      3  O   UNL     1       8.647   8.021  18.849  0.00  0.00    +0.000 OA
ATOM      4  N   UNL     1       8.151   9.943  17.648  0.00  0.00    +0.000 N 
ATOM      5  H   UNL     1       7.278   8.267  16.094  0.00  0.00    +0.000 HD
ATOM      6  H   UNL     1       7.375  10.308  17.117  0.00  0.00    +0.000 HD
ENDROOT
BRANCH   4   7
ATOM      7  C   UNL     1       8.995  10.873  18.292  0.00  0.00    +0.000 A 
ATOM      8  C   UNL     1       9.631  10.608  19.510  0.00  0.00    +0.000 A 
ATOM      9  C   UNL     1      10.451  11.566  20.115  0.00  0.00    +0.000 A 
ATOM     10  C   UNL     1      10.645  12.797  19.499  0.00  0.00    +0.000 A 
ATOM     11 CL   UNL     1      11.646  13.978  20.246  0.00  0.00    +0.000 Cl
ATOM     12  C   UNL     1      10.031  13.073  18.279  0.00  0.00    +0.000 A 
ATOM     13  C   UNL     1       9.214  12.110  17.674  0.00  0.00    +0.000 A 
ENDBRANCH   4   7
BRANCH   1  14
ATOM     14  C   UNL     1       7.143   6.500  17.216  0.00  0.00    +0.000 C 
BRANCH  14  18
ATOM     15  C   UNL     1       3.409   5.159  18.921  0.00  0.00    +0.000 A 
ATOM     16  C   UNL     1       3.417   6.065  17.851  0.00  0.00    +0.000 A 
ATOM     17  C   UNL     1       4.624   6.531  17.323  0.00  0.00    +0.000 A 
ATOM     18  C   UNL     1       5.845   6.096  17.854  0.00  0.00    +0.000 A 
ATOM     19  C   UNL     1       5.837   5.240  18.964  0.00  0.00    +0.000 A 
ATOM     20  C   UNL     1       4.630   4.775  19.491  0.00  0.00    +0.000 A 
BRANCH  15  21
ATOM     21  C   UNL     1       2.108   4.558  19.416  0.00  0.00    +0.000 C 
BRANCH  21  23
ATOM     22  C   UNL     1       1.744   3.120  21.351  0.00  0.00    +0.000 C 
ATOM     23  N   UNL     1       2.271   3.207  19.986  0.00  0.00    +0.000 NA
ATOM     24  C   UNL     1       1.596   2.219  19.142  0.00  0.00    +0.000 C 
ENDBRANCH  21  23
ENDBRANCH  15  21
ENDBRANCH  14  18
ENDBRANCH   1  14
TORSDOF 5
ENDMDL
MODEL 4
REMARK VINA RESULT:      -7.2      0.493      1.517
REMARK  Name = 
REMARK  7 active torsions:
REMARK  status: ('A' for Active; 'I' for Inactive)
REMARK    1  A    between atoms: C_1  and  N_2
REMARK    2  A    between atoms: N_2  and  C_3
REMARK    3  A    between atoms: N_2  and  C_4
REMARK    4  A    between atoms: C_4  and  C_5
REMARK    5  A    between atoms: C_8  and  C_9
REMARK    6  A    between atoms: C_9  and  N_10
REMARK    7  A    between atoms: N_13  and  C_14
REMARK                            x       y       z     vdW  Elec       q    Type
REMARK                         _______ _______ _______ _____ _____    ______ ____
ROOT
ATOM      1  N   UNL     1       7.903   7.337  18.163  0.00  0.00    +0.000 N 
ATOM      2  C   UNL     1       8.195   8.685  18.134  0.00  0.00    +0.000 C 
ATOM      3  O   UNL     1       7.735   9.427  17.277  0.00  0.00    +0.000 OA
ATOM      4  N   UNL     1       9.056   9.043  19.145  0.00  0.00    +0.000 N 
ATOM      5  H   UNL     1       7.831   6.926  19.082  0.00  0.00    +0.000 HD
ATOM      6  H   UNL     1       9.613   8.289  19.519  0.00  0.00    +0.000 HD
ENDROOT
BRANCH   4   7
ATOM      7  C   UNL     1       9.454  10.361  19.454  0.00  0.00    +0.000 A 
ATOM      8  C   UNL     1       9.280  10.931  20.720  0.00  0.00    +0.000 A 
ATOM      9  C   UNL     1       9.681  12.246  20.977  0.00  0.00    +0.000 A 
ATOM     10  C   UNL     1      10.267  12.998  19.965  0.00  0.00    +0.000 A 
ATOM     11 CL   UNL     1      10.754  14.618  20.277  0.00  0.00    +0.000 Cl
ATOM     12  C   UNL     1      10.461  12.443  18.702  0.00  0.00    +0.000 A 
ATOM     13  C   UNL     1      10.062  11.124  18.450  0.00  0.00    +0.000 A 
ENDBRANCH   4   7
BRANCH   1  14
ATOM     14  C   UNL     1       6.971   6.850  17.171  0.00  0.00    +0.000 C 
BRANCH  14  18
ATOM     15  C   UNL     1       3.410   5.324  19.080  0.00  0.00    +0.000 A 
ATOM     16  C   UNL     1       4.670   4.811  19.414  0.00  0.00    +0.000 A 
ATOM     17  C   UNL     1       5.820   5.275  18.770  0.00  0.00    +0.000 A 
ATOM     18  C   UNL     1       5.729   6.264  17.782  0.00  0.00    +0.000 A 
ATOM     19  C   UNL     1       4.463   6.732  17.403  0.00  0.00    +0.000 A 
ATOM     20  C   UNL     1       3.315   6.267  18.047  0.00  0.00    +0.000 A 
BRANCH  15  21
ATOM     21  C   UNL     1       2.176   4.914  19.859  0.00  0.00    +0.000 C 
BRANCH  21  23
ATOM     22  C   UNL     1       1.379   3.061  21.230  0.00  0.00    +0.000 C 
ATOM     23  N   UNL     1       2.016   3.452  19.968  0.00  0.00    +0.000 NA
ATOM     24  C   UNL     1       1.220   2.946  18.848  0.00  0.00    +0.000 C 
ENDBRANCH  21  23
ENDBRANCH  15  21
ENDBRANCH  14  18
ENDBRANCH   1  14
TORSDOF 5
ENDMDL
MODEL 5
REMARK VINA RESULT:      -7.1      1.021      1.711
REMARK  Name = 
REMARK  7 active torsions:
REMARK  status: ('A' for Active; 'I' for Inactive)
REMARK    1  A    between atoms: C_1  and  N_2
REMARK    2  A    between atoms: N_2  and  C_3
REMARK    3  A    between atoms: N_2  and  C_4
REMARK    4  A    between atoms: C_4  and  C_5
REMARK    5  A    between atoms: C_8  and  C_9
REMARK    6  A    between atoms: C_9  and  N_10
REMARK    7  A    between atoms: N_13  and  C_14
REMARK                            x       y       z     vdW  Elec       q    Type
REMARK                         _______ _______ _______ _____ _____    ______ ____
ROOT
ATOM      1  N   UNL     1       7.279   7.183  16.705  0.00  0.00    +0.000 N 
ATOM      2  C   UNL     1       7.861   7.900  17.728  0.00  0.00    +0.000 C 
ATOM      3  O   UNL     1       8.200   7.372  18.778  0.00  0.00    +0.000 OA
ATOM      4  N   UNL     1       7.974   9.236  17.416  0.00  0.00    +0.000 N 
ATOM      5  H   UNL     1       7.517   7.484  15.771  0.00  0.00    +0.000 HD
ATOM      6  H   UNL     1       7.339   9.563  16.703  0.00  0.00    +0.000 HD
ENDROOT
BRANCH   4   7
ATOM      7  C   UNL     1       8.627  10.209  18.202  0.00  0.00    +0.000 A 
ATOM      8  C   UNL     1       9.301   9.902  19.390  0.00  0.00    +0.000 A 
ATOM      9  C   UNL     1       9.926  10.903  20.140  0.00  0.00    +0.000 A 
ATOM     10  C   UNL     1       9.886  12.221  19.701  0.00  0.00    +0.000 A 
ATOM     11 CL   UNL     1      10.648  13.454  20.627  0.00  0.00    +0.000 Cl
ATOM     12  C   UNL     1       9.232  12.544  18.514  0.00  0.00    +0.000 A 
ATOM     13  C   UNL     1       8.610  11.538  17.762  0.00  0.00    +0.000 A 
ENDBRANCH   4   7
BRANCH   1  14
ATOM     14  C   UNL     1       7.147   5.757  16.901  0.00  0.00    +0.000 C 
BRANCH  14  18
ATOM     15  C   UNL     1       3.348   4.772  18.701  0.00  0.00    +0.000 A 
ATOM     16  C   UNL     1       4.459   3.937  18.886  0.00  0.00    +0.000 A 
ATOM     17  C   UNL     1       5.679   4.233  18.272  0.00  0.00    +0.000 A 
ATOM     18  C   UNL     1       5.810   5.371  17.466  0.00  0.00    +0.000 A 
ATOM     19  C   UNL     1       4.683   6.170  17.230  0.00  0.00    +0.000 A 
ATOM     20  C   UNL     1       3.464   5.874  17.844  0.00  0.00    +0.000 A 
BRANCH  15  21
ATOM     21  C   UNL     1       2.060   4.523  19.461  0.00  0.00    +0.000 C 
BRANCH  21  23
ATOM     22  C   UNL     1       1.489   2.946  21.232  0.00  0.00    +0.000 C 
ATOM     23  N   UNL     1       1.860   3.107  19.822  0.00  0.00    +0.000 NA
ATOM     24  C   UNL     1       0.823   2.512  18.977  0.00  0.00    +0.000 C 
ENDBRANCH  21  23
ENDBRANCH  15  21
ENDBRANCH  14  18
ENDBRANCH   1  14
TORSDOF 5
ENDMDL
MODEL 6
REMARK VINA RESULT:      -7.1      1.623      2.467
REMARK  Name = 
REMARK  7 active torsions:
REMARK  status: ('A' for Active; 'I' for Inactive)
REMARK    1  A    between atoms: C_1  and  N_2
REMARK    2  A    between atoms: N_2  and  C_3
REMARK    3  A    between atoms: N_2  and  C_4
REMARK    4  A    between atoms: C_4  and  C_5
REMARK    5  A    between atoms: C_8  and  C_9
REMARK    6  A    between atoms: C_9  and  N_10
REMARK    7  A    between atoms: N_13  and  C_14
REMARK                            x       y       z     vdW  Elec       q    Type
REMARK                         _______ _______ _______ _____ _____    ______ ____
ROOT
ATOM      1  N   UNL     1       8.621   8.444  18.664  0.00  0.00    +0.000 N 
ATOM      2  C   UNL     1       8.837   9.800  18.800  0.00  0.00    +0.000 C 
ATOM      3  O   UNL     1       8.535  10.594  17.920  0.00  0.00    +0.000 OA
ATOM      4  N   UNL     1       9.436  10.104  20.001  0.00  0.00    +0.000 N 
ATOM      5  H   UNL     1       8.372   7.956  19.512  0.00  0.00    +0.000 HD
ATOM      6  H   UNL     1       9.938   9.343  20.433  0.00  0.00    +0.000 HD
ENDROOT
BRANCH   4   7
ATOM      7  C   UNL     1       9.683  11.406  20.487  0.00  0.00    +0.000 A 
ATOM      8  C   UNL     1       8.928  11.993  21.508  0.00  0.00    +0.000 A 
ATOM      9  C   UNL     1       9.205  13.291  21.950  0.00  0.00    +0.000 A 
ATOM     10  C   UNL     1      10.247  14.008  21.374  0.00  0.00    +0.000 A 
ATOM     11 CL   UNL     1      10.583  15.607  21.911  0.00  0.00    +0.000 Cl
ATOM     12  C   UNL     1      11.018  13.435  20.366  0.00  0.00    +0.000 A 
ATOM     13  C   UNL     1      10.741  12.133  19.928  0.00  0.00    +0.000 A 
ENDBRANCH   4   7
BRANCH   1  14
ATOM     14  C   UNL     1       7.956   8.008  17.458  0.00  0.00    +0.000 C 
BRANCH  14  18
ATOM     15  C   UNL     1       4.914   5.071  18.339  0.00  0.00    +0.000 A 
ATOM     16  C   UNL     1       6.130   5.066  19.036  0.00  0.00    +0.000 A 
ATOM     17  C   UNL     1       7.132   5.990  18.726  0.00  0.00    +0.000 A 
ATOM     18  C   UNL     1       6.932   6.938  17.715  0.00  0.00    +0.000 A 
ATOM     19  C   UNL     1       5.742   6.904  16.976  0.00  0.00    +0.000 A 
ATOM     20  C   UNL     1       4.742   5.980  17.287  0.00  0.00    +0.000 A 
BRANCH  15  21
ATOM     21  C   UNL     1       3.781   4.153  18.754  0.00  0.00    +0.000 C 
BRANCH  21  23
ATOM     22  C   UNL     1       4.227   2.302  20.277  0.00  0.00    +0.000 C 
ATOM     23  N   UNL     1       4.192   2.742  18.879  0.00  0.00    +0.000 NA
ATOM     24  C   UNL     1       3.279   1.881  18.124  0.00  0.00    +0.000 C 
ENDBRANCH  21  23
ENDBRANCH  15  21
ENDBRANCH  14  18
ENDBRANCH   1  14
TORSDOF 5
ENDMDL
MODEL 7
REMARK VINA RESULT:      -7.1      1.031      1.605
REMARK  Name = 
REMARK  7 active torsions:
REMARK  status: ('A' for Active; 'I' for Inactive)
REMARK    1  A    between atoms: C_1  and  N_2
REMARK    2  A    between atoms: N_2  and  C_3
REMARK    3  A    between atoms: N_2  and  C_4
REMARK    4  A    between atoms: C_4  and  C_5
REMARK    5  A    between atoms: C_8  and  C_9
REMARK    6  A    between atoms: C_9  and  N_10
REMARK    7  A    between atoms: N_13  and  C_14
REMARK                            x       y       z     vdW  Elec       q    Type
REMARK                         _______ _______ _______ _____ _____    ______ ____
ROOT
ATOM      1  N   UNL     1       7.943   7.615  18.112  0.00  0.00    +0.000 N 
ATOM      2  C   UNL     1       8.248   8.959  18.170  0.00  0.00    +0.000 C 
ATOM      3  O   UNL     1       7.780   9.764  17.376  0.00  0.00    +0.000 OA
ATOM      4  N   UNL     1       9.133   9.239  19.186  0.00  0.00    +0.000 N 
ATOM      5  H   UNL     1       7.884   7.143  19.003  0.00  0.00    +0.000 HD
ATOM      6  H   UNL     1       9.689   8.456  19.496  0.00  0.00    +0.000 HD
ENDROOT
BRANCH   4   7
ATOM      7  C   UNL     1       9.551  10.529  19.577  0.00  0.00    +0.000 A 
ATOM      8  C   UNL     1      10.270  11.385  18.735  0.00  0.00    +0.000 A 
ATOM      9  C   UNL     1      10.670  12.651  19.171  0.00  0.00    +0.000 A 
ATOM     10  C   UNL     1      10.346  13.073  20.456  0.00  0.00    +0.000 A 
ATOM     11 CL   UNL     1      10.845  14.628  20.996  0.00  0.00    +0.000 Cl
ATOM     12  C   UNL     1       9.619  12.240  21.303  0.00  0.00    +0.000 A 
ATOM     13  C   UNL     1       9.216  10.974  20.862  0.00  0.00    +0.000 A 
ENDBRANCH   4   7
BRANCH   1  14
ATOM     14  C   UNL     1       6.986   7.207  17.109  0.00  0.00    +0.000 C 
BRANCH  14  18
ATOM     15  C   UNL     1       4.329   4.101  18.504  0.00  0.00    +0.000 A 
ATOM     16  C   UNL     1       5.370   4.565  19.320  0.00  0.00    +0.000 A 
ATOM     17  C   UNL     1       6.256   5.542  18.856  0.00  0.00    +0.000 A 
ATOM     18  C   UNL     1       6.112   6.074  17.569  0.00  0.00    +0.000 A 
ATOM     19  C   UNL     1       5.110   5.566  16.730  0.00  0.00    +0.000 A 
ATOM     20  C   UNL     1       4.226   4.590  17.195  0.00  0.00    +0.000 A 
BRANCH  15  21
ATOM     21  C   UNL     1       3.295   3.134  19.045  0.00  0.00    +0.000 C 
BRANCH  21  23
ATOM     22  C   UNL     1       0.942   2.560  18.760  0.00  0.00    +0.000 C 
ATOM     23  N   UNL     1       1.914   3.642  18.946  0.00  0.00    +0.000 NA
ATOM     24  C   UNL     1       1.568   4.402  20.150  0.00  0.00    +0.000 C 
ENDBRANCH  21  23
ENDBRANCH  15  21
ENDBRANCH  14  18
ENDBRANCH   1  14
TORSDOF 5
ENDMDL
MODEL 8
REMARK VINA RESULT:      -7.0      3.919      9.774
REMARK  Name = 
REMARK  7 active torsions:
REMARK  status: ('A' for Active; 'I' for Inactive)
REMARK    1  A    between atoms: C_1  and  N_2
REMARK    2  A    between atoms: N_2  and  C_3
REMARK    3  A    between atoms: N_2  and  C_4
REMARK    4  A    between atoms: C_4  and  C_5
REMARK    5  A    between atoms: C_8  and  C_9
REMARK    6  A    between atoms: C_9  and  N_10
REMARK    7  A    between atoms: N_13  and  C_14
REMARK                            x       y       z     vdW  Elec       q    Type
REMARK                         _______ _______ _______ _____ _____    ______ ____
ROOT
ATOM      1  N   UNL     1       7.934   8.946  17.679  0.00  0.00    +0.000 N 
ATOM      2  C   UNL     1       7.404   7.683  17.839  0.00  0.00    +0.000 C 
ATOM      3  O   UNL     1       7.878   6.879  18.630  0.00  0.00    +0.000 OA
ATOM      4  N   UNL     1       6.334   7.467  17.001  0.00  0.00    +0.000 N 
ATOM      5  H   UNL     1       7.266   9.677  17.483  0.00  0.00    +0.000 HD
ATOM      6  H   UNL     1       6.304   8.061  16.186  0.00  0.00    +0.000 HD
ENDROOT
BRANCH   4   7
ATOM      7  C   UNL     1       5.508   6.323  17.005  0.00  0.00    +0.000 A 
ATOM      8  C   UNL     1       5.822   5.155  16.302  0.00  0.00    +0.000 A 
ATOM      9  C   UNL     1       4.966   4.049  16.329  0.00  0.00    +0.000 A 
ATOM     10  C   UNL     1       3.790   4.105  17.068  0.00  0.00    +0.000 A 
ATOM     11 CL   UNL     1       2.732   2.749  17.095  0.00  0.00    +0.000 Cl
ATOM     12  C   UNL     1       3.468   5.255  17.786  0.00  0.00    +0.000 A 
ATOM     13  C   UNL     1       4.329   6.359  17.760  0.00  0.00    +0.000 A 
ENDBRANCH   4   7
BRANCH   1  14
ATOM     14  C   UNL     1       9.039   9.304  18.539  0.00  0.00    +0.000 C 
BRANCH  14  18
ATOM     15  C   UNL     1       9.790  13.556  18.630  0.00  0.00    +0.000 A 
ATOM     16  C   UNL     1       8.754  13.034  17.843  0.00  0.00    +0.000 A 
ATOM     17  C   UNL     1       8.533  11.656  17.781  0.00  0.00    +0.000 A 
ATOM     18  C   UNL     1       9.344  10.775  18.508  0.00  0.00    +0.000 A 
ATOM     19  C   UNL     1      10.419  11.292  19.245  0.00  0.00    +0.000 A 
ATOM     20  C   UNL     1      10.639  12.669  19.306  0.00  0.00    +0.000 A 
BRANCH  15  21
ATOM     21  C   UNL     1       9.955  15.054  18.797  0.00  0.00    +0.000 C 
BRANCH  21  23
ATOM     22  C   UNL     1       9.866  17.209  17.660  0.00  0.00    +0.000 C 
ATOM     23  N   UNL     1      10.103  15.770  17.516  0.00  0.00    +0.000 NA
ATOM     24  C   UNL     1      11.444  15.552  16.969  0.00  0.00    +0.000 C 
ENDBRANCH  21  23
ENDBRANCH  15  21
ENDBRANCH  14  18
ENDBRANCH   1  14
TORSDOF 5
ENDMDL
MODEL 9
REMARK VINA RESULT:      -7.0      1.121      1.597
REMARK  Name = 
REMARK  7 active torsions:
REMARK  status: ('A' for Active; 'I' for Inactive)
REMARK    1  A    between atoms: C_1  and  N_2
REMARK    2  A    between atoms: N_2  and  C_3
REMARK    3  A    between atoms: N_2  and  C_4
REMARK    4  A    between atoms: C_4  and  C_5
REMARK    5  A    between atoms: C_8  and  C_9
REMARK    6  A    between atoms: C_9  and  N_10
REMARK    7  A    between atoms: N_13  and  C_14
REMARK                            x       y       z     vdW  Elec       q    Type
REMARK                         _______ _______ _______ _____ _____    ______ ____
ROOT
ATOM      1  N   UNL     1       8.286   7.880  18.290  0.00  0.00    +0.000 N 
ATOM      2  C   UNL     1       8.511   9.236  18.401  0.00  0.00    +0.000 C 
ATOM      3  O   UNL     1       8.061  10.035  17.591  0.00  0.00    +0.000 OA
ATOM      4  N   UNL     1       9.298   9.536  19.489  0.00  0.00    +0.000 N 
ATOM      5  H   UNL     1       8.186   7.382  19.162  0.00  0.00    +0.000 HD
ATOM      6  H   UNL     1       9.871   8.776  19.825  0.00  0.00    +0.000 HD
ENDROOT
BRANCH   4   7
ATOM      7  C   UNL     1       9.612  10.836  19.940  0.00  0.00    +0.000 A 
ATOM      8  C   UNL     1      10.448  11.707  19.233  0.00  0.00    +0.000 A 
ATOM      9  C   UNL     1      10.737  12.983  19.726  0.00  0.00    +0.000 A 
ATOM     10  C   UNL     1      10.184  13.399  20.931  0.00  0.00    +0.000 A 
ATOM     11 CL   UNL     1      10.545  14.966  21.543  0.00  0.00    +0.000 Cl
ATOM     12  C   UNL     1       9.337  12.551  21.642  0.00  0.00    +0.000 A 
ATOM     13  C   UNL     1       9.046  11.275  21.144  0.00  0.00    +0.000 A 
ENDBRANCH   4   7
BRANCH   1  14
ATOM     14  C   UNL     1       7.434   7.447  17.206  0.00  0.00    +0.000 C 
BRANCH  14  18
ATOM     15  C   UNL     1       4.046   5.233  18.714  0.00  0.00    +0.000 A 
ATOM     16  C   UNL     1       5.337   4.971  19.194  0.00  0.00    +0.000 A 
ATOM     17  C   UNL     1       6.440   5.658  18.680  0.00  0.00    +0.000 A 
ATOM     18  C   UNL     1       6.270   6.623  17.678  0.00  0.00    +0.000 A 
ATOM     19  C   UNL     1       4.988   6.840  17.154  0.00  0.00    +0.000 A 
ATOM     20  C   UNL     1       3.887   6.153  17.668  0.00  0.00    +0.000 A 
BRANCH  15  21
ATOM     21  C   UNL     1       2.836   4.581  19.353  0.00  0.00    +0.000 C 
BRANCH  21  23
ATOM     22  C   UNL     1       1.977   2.525  20.344  0.00  0.00    +0.000 C 
ATOM     23  N   UNL     1       2.915   3.108  19.380  0.00  0.00    +0.000 NA
ATOM     24  C   UNL     1       2.642   2.564  18.048  0.00  0.00    +0.000 C 
ENDBRANCH  21  23
ENDBRANCH  15  21
ENDBRANCH  14  18
ENDBRANCH   1  14
TORSDOF 5
ENDMDL
