MODEL 1
REMARK VINA RESULT:      -7.7      0.000      0.000
REMARK  Name = 
REMARK  10 active torsions:
REMARK  status: ('A' for Active; 'I' for Inactive)
REMARK    1  A    between atoms: C_1  and  O_2
REMARK    2  A    between atoms: O_2  and  C_3
REMARK    3  A    between atoms: C_6  and  C_7
REMARK    4  A    between atoms: N_8  and  N_9
REMARK    5  A    between atoms: C_10  and  S_11
REMARK    6  A    between atoms: C_14  and  C_15
REMARK    7  A    between atoms: C_15  and  O_16
REMARK    8  A    between atoms: O_16  and  C_17
REMARK    9  A    between atoms: C_24  and  O_25
REMARK   10  A    between atoms: O_25  and  C_26
REMARK                            x       y       z     vdW  Elec       q    Type
REMARK                         _______ _______ _______ _____ _____    ______ ____
ROOT
ATOM      1  N   UNL     1       5.491   5.422  17.554  0.00  0.00    +0.000 N 
ATOM      2  C   UNL     1       6.691   5.911  17.073  0.00  0.00    +0.000 A 
ATOM      3  N   UNL     1       7.224   5.082  16.209  0.00  0.00    +0.000 NA
ATOM      4  N   UNL     1       6.345   4.044  16.043  0.00  0.00    +0.000 NA
ATOM      5  C   UNL     1       5.292   4.263  16.812  0.00  0.00    +0.000 A 
ENDROOT
BRANCH   1   7
ATOM      6  C   UNL     1       3.496   6.424  17.986  0.00  0.00    +0.000 C 
ATOM      7  N   UNL     1       4.665   6.092  18.433  0.00  0.00    +0.000 NA
BRANCH   6  11
ATOM      8  C   UNL     1       1.057   8.997  20.380  0.00  0.00    +0.000 A 
ATOM      9  C   UNL     1       1.418   7.722  20.851  0.00  0.00    +0.000 A 
ATOM     10  C   UNL     1       2.198   6.863  20.075  0.00  0.00    +0.000 A 
ATOM     11  C   UNL     1       2.566   7.246  18.791  0.00  0.00    +0.000 A 
ATOM     12  C   UNL     1       2.104   8.455  18.269  0.00  0.00    +0.000 A 
ATOM     13  C   UNL     1       1.341   9.340  19.050  0.00  0.00    +0.000 A 
BRANCH   8  15
ATOM     14  C   UNL     1      -0.018   9.340  22.454  0.00  0.00    +0.000 C 
ATOM     15  O   UNL     1       0.441   9.894  21.214  0.00  0.00    +0.000 OA
ENDBRANCH   8  15
BRANCH  13  16
ATOM     16  O   UNL     1       1.021  10.475  18.354  0.00  0.00    +0.000 OA
ATOM     17  C   UNL     1       1.751  11.668  18.571  0.00  0.00    +0.000 C 
ENDBRANCH  13  16
ENDBRANCH   6  11
ENDBRANCH   1   7
BRANCH   2  18
ATOM     18  S   UNL     1       7.381   7.414  17.583  0.00  0.00    +0.000 S 
ATOM     19  H   UNL     1       6.235   8.046  17.872  0.00  0.00    +0.000 HD
ENDBRANCH   2  18
BRANCH   5  20
ATOM     20  C   UNL     1       4.037   3.465  16.772  0.00  0.00    +0.000 C 
BRANCH  20  21
ATOM     21  O   UNL     1       4.044   2.620  17.921  0.00  0.00    +0.000 OA
BRANCH  21  22
ATOM     22  C   UNL     1       3.053   2.845  18.841  0.00  0.00    +0.000 A 
ATOM     23  C   UNL     1       3.453   2.821  20.174  0.00  0.00    +0.000 A 
ATOM     24  C   UNL     1       2.536   3.071  21.197  0.00  0.00    +0.000 A 
ATOM     25  C   UNL     1       1.210   3.364  20.883  0.00  0.00    +0.000 A 
ATOM     26  C   UNL     1       0.807   3.401  19.552  0.00  0.00    +0.000 A 
ATOM     27  C   UNL     1       1.724   3.143  18.525  0.00  0.00    +0.000 A 
ENDBRANCH  21  22
ENDBRANCH  20  21
ENDBRANCH   5  20
TORSDOF 8
ENDMDL
MODEL 2
REMARK VINA RESULT:      -7.3      0.900      1.786
REMARK  Name = 
REMARK  10 active torsions:
REMARK  status: ('A' for Active; 'I' for Inactive)
REMARK    1  A    between atoms: C_1  and  O_2
REMARK    2  A    between atoms: O_2  and  C_3
REMARK    3  A    between atoms: C_6  and  C_7
REMARK    4  A    between atoms: N_8  and  N_9
REMARK    5  A    between atoms: C_10  and  S_11
REMARK    6  A    between atoms: C_14  and  C_15
REMARK    7  A    between atoms: C_15  and  O_16
REMARK    8  A    between atoms: O_16  and  C_17
REMARK    9  A    between atoms: C_24  and  O_25
REMARK   10  A    between atoms: O_25  and  C_26
REMARK                            x       y       z     vdW  Elec       q    Type
REMARK                         _______ _______ _______ _____ _____    ______ ____
ROOT
ATOM      1  N   UNL     1       5.506   5.644  17.562  0.00  0.00    +0.000 N 
ATOM      2  C   UNL     1       6.725   6.061  17.061  0.00  0.00    +0.000 A 
ATOM      3  N   UNL     1       7.301   5.108  16.370  0.00  0.00    +0.000 NA
ATOM      4  N   UNL     1       6.435   4.046  16.339  0.00  0.00    +0.000 NA
ATOM      5  C   UNL     1       5.347   4.376  17.013  0.00  0.00    +0.000 A 
ENDROOT
BRANCH   1   7
ATOM      6  C   UNL     1       3.606   6.890  17.640  0.00  0.00    +0.000 C 
ATOM      7  N   UNL     1       4.638   6.440  18.280  0.00  0.00    +0.000 NA
BRANCH   6  11
ATOM      8  C   UNL     1       0.659   9.424  19.428  0.00  0.00    +0.000 A 
ATOM      9  C   UNL     1       1.101   9.667  18.115  0.00  0.00    +0.000 A 
ATOM     10  C   UNL     1       2.075   8.862  17.524  0.00  0.00    +0.000 A 
ATOM     11  C   UNL     1       2.666   7.846  18.266  0.00  0.00    +0.000 A 
ATOM     12  C   UNL     1       2.324   7.680  19.609  0.00  0.00    +0.000 A 
ATOM     13  C   UNL     1       1.326   8.467  20.207  0.00  0.00    +0.000 A 
BRANCH   8  15
ATOM     14  C   UNL     1      -0.268  11.536  19.932  0.00  0.00    +0.000 C 
ATOM     15  O   UNL     1      -0.414  10.110  19.935  0.00  0.00    +0.000 OA
ENDBRANCH   8  15
BRANCH  13  16
ATOM     16  O   UNL     1       1.130   8.119  21.517  0.00  0.00    +0.000 OA
ATOM     17  C   UNL     1       1.400   9.053  22.546  0.00  0.00    +0.000 C 
ENDBRANCH  13  16
ENDBRANCH   6  11
ENDBRANCH   1   7
BRANCH   2  18
ATOM     18  S   UNL     1       7.383   7.637  17.344  0.00  0.00    +0.000 S 
ATOM     19  H   UNL     1       6.483   8.336  16.640  0.00  0.00    +0.000 HD
ENDBRANCH   2  18
BRANCH   5  20
ATOM     20  C   UNL     1       4.099   3.567  17.050  0.00  0.00    +0.000 C 
BRANCH  20  21
ATOM     21  O   UNL     1       4.152   2.774  18.235  0.00  0.00    +0.000 OA
BRANCH  21  22
ATOM     22  C   UNL     1       3.155   2.991  19.150  0.00  0.00    +0.000 A 
ATOM     23  C   UNL     1       3.406   2.522  20.436  0.00  0.00    +0.000 A 
ATOM     24  C   UNL     1       2.476   2.718  21.460  0.00  0.00    +0.000 A 
ATOM     25  C   UNL     1       1.291   3.404  21.199  0.00  0.00    +0.000 A 
ATOM     26  C   UNL     1       1.040   3.885  19.918  0.00  0.00    +0.000 A 
ATOM     27  C   UNL     1       1.968   3.683  18.888  0.00  0.00    +0.000 A 
ENDBRANCH  21  22
ENDBRANCH  20  21
ENDBRANCH   5  20
TORSDOF 8
ENDMDL
MODEL 3
REMARK VINA RESULT:      -7.2      2.347      4.343
REMARK  Name = 
REMARK  10 active torsions:
REMARK  status: ('A' for Active; 'I' for Inactive)
REMARK    1  A    between atoms: C_1  and  O_2
REMARK    2  A    between atoms: O_2  and  C_3
REMARK    3  A    between atoms: C_6  and  C_7
REMARK    4  A    between atoms: N_8  and  N_9
REMARK    5  A    between atoms: C_10  and  S_11
REMARK    6  A    between atoms: C_14  and  C_15
REMARK    7  A    between atoms: C_15  and  O_16
REMARK    8  A    between atoms: O_16  and  C_17
REMARK    9  A    between atoms: C_24  and  O_25
REMARK   10  A    between atoms: O_25  and  C_26
REMARK                            x       y       z     vdW  Elec       q    Type
REMARK                         _______ _______ _______ _____ _____    ______ ____
ROOT
ATOM      1  N   UNL     1       2.806   4.034  18.664  0.00  0.00    +0.000 N 
ATOM      2  C   UNL     1       2.794   3.218  19.780  0.00  0.00    +0.000 A 
ATOM      3  N   UNL     1       3.519   2.144  19.586  0.00  0.00    +0.000 NA
ATOM      4  N   UNL     1       4.092   2.257  18.346  0.00  0.00    +0.000 NA
ATOM      5  C   UNL     1       3.703   3.400  17.809  0.00  0.00    +0.000 A 
ENDROOT
BRANCH   1   7
ATOM      6  C   UNL     1       2.917   6.298  18.844  0.00  0.00    +0.000 C 
ATOM      7  N   UNL     1       2.184   5.262  18.582  0.00  0.00    +0.000 NA
BRANCH   6  11
ATOM      8  C   UNL     1       0.954  10.096  18.966  0.00  0.00    +0.000 A 
ATOM      9  C   UNL     1       1.747   9.744  17.861  0.00  0.00    +0.000 A 
ATOM     10  C   UNL     1       2.410   8.516  17.813  0.00  0.00    +0.000 A 
ATOM     11  C   UNL     1       2.339   7.658  18.903  0.00  0.00    +0.000 A 
ATOM     12  C   UNL     1       1.659   8.056  20.056  0.00  0.00    +0.000 A 
ATOM     13  C   UNL     1       0.965   9.277  20.105  0.00  0.00    +0.000 A 
BRANCH   8  15
ATOM     14  C   UNL     1       0.884  12.450  19.142  0.00  0.00    +0.000 C 
ATOM     15  O   UNL     1       0.173  11.223  18.928  0.00  0.00    +0.000 OA
ENDBRANCH   8  15
BRANCH  13  16
ATOM     16  O   UNL     1       0.346   9.454  21.313  0.00  0.00    +0.000 OA
ATOM     17  C   UNL     1       1.064   9.243  22.515  0.00  0.00    +0.000 C 
ENDBRANCH  13  16
ENDBRANCH   6  11
ENDBRANCH   1   7
BRANCH   2  18
ATOM     18  S   UNL     1       1.909   3.589  21.221  0.00  0.00    +0.000 S 
ATOM     19  H   UNL     1       0.706   3.753  20.654  0.00  0.00    +0.000 HD
ENDBRANCH   2  18
BRANCH   5  20
ATOM     20  C   UNL     1       4.256   3.976  16.555  0.00  0.00    +0.000 C 
BRANCH  20  21
ATOM     21  O   UNL     1       5.678   3.886  16.647  0.00  0.00    +0.000 OA
BRANCH  21  22
ATOM     22  C   UNL     1       6.318   4.982  17.164  0.00  0.00    +0.000 A 
ATOM     23  C   UNL     1       7.216   4.723  18.196  0.00  0.00    +0.000 A 
ATOM     24  C   UNL     1       7.952   5.758  18.776  0.00  0.00    +0.000 A 
ATOM     25  C   UNL     1       7.800   7.063  18.310  0.00  0.00    +0.000 A 
ATOM     26  C   UNL     1       6.913   7.326  17.272  0.00  0.00    +0.000 A 
ATOM     27  C   UNL     1       6.169   6.289  16.693  0.00  0.00    +0.000 A 
ENDBRANCH  21  22
ENDBRANCH  20  21
ENDBRANCH   5  20
TORSDOF 8
ENDMDL
MODEL 4
REMARK VINA RESULT:      -7.1      2.404      4.448
REMARK  Name = 
REMARK  10 active torsions:
REMARK  status: ('A' for Active; 'I' for Inactive)
REMARK    1  A    between atoms: C_1  and  O_2
REMARK    2  A    between atoms: O_2  and  C_3
REMARK    3  A    between atoms: C_6  and  C_7
REMARK    4  A    between atoms: N_8  and  N_9
REMARK    5  A    between atoms: C_10  and  S_11
REMARK    6  A    between atoms: C_14  and  C_15
REMARK    7  A    between atoms: C_15  and  O_16
REMARK    8  A    between atoms: O_16  and  C_17
REMARK    9  A    between atoms: C_24  and  O_25
REMARK   10  A    between atoms: O_25  and  C_26
REMARK                            x       y       z     vdW  Elec       q    Type
REMARK                         _______ _______ _______ _____ _____    ______ ____
ROOT
ATOM      1  N   UNL     1       2.754   3.956  18.266  0.00  0.00    +0.000 N 
ATOM      2  C   UNL     1       2.582   2.968  19.217  0.00  0.00    +0.000 A 
ATOM      3  N   UNL     1       3.329   1.924  18.951  0.00  0.00    +0.000 NA
ATOM      4  N   UNL     1       4.075   2.227  17.842  0.00  0.00    +0.000 NA
ATOM      5  C   UNL     1       3.766   3.453  17.454  0.00  0.00    +0.000 A 
ENDROOT
BRANCH   1   7
ATOM      6  C   UNL     1       2.908   6.198  18.613  0.00  0.00    +0.000 C 
ATOM      7  N   UNL     1       2.149   5.195  18.302  0.00  0.00    +0.000 NA
BRANCH   6  11
ATOM      8  C   UNL     1       1.014  10.005  19.083  0.00  0.00    +0.000 A 
ATOM      9  C   UNL     1       1.822   9.749  17.961  0.00  0.00    +0.000 A 
ATOM     10  C   UNL     1       2.462   8.519  17.802  0.00  0.00    +0.000 A 
ATOM     11  C   UNL     1       2.354   7.558  18.799  0.00  0.00    +0.000 A 
ATOM     12  C   UNL     1       1.659   7.852  19.973  0.00  0.00    +0.000 A 
ATOM     13  C   UNL     1       0.988   9.076  20.133  0.00  0.00    +0.000 A 
BRANCH   8  15
ATOM     14  C   UNL     1      -1.081  11.002  18.643  0.00  0.00    +0.000 C 
ATOM     15  O   UNL     1       0.255  11.145  19.144  0.00  0.00    +0.000 OA
ENDBRANCH   8  15
BRANCH  13  16
ATOM     16  O   UNL     1       0.348   9.143  21.342  0.00  0.00    +0.000 OA
ATOM     17  C   UNL     1       1.098   9.301  22.532  0.00  0.00    +0.000 C 
ENDBRANCH  13  16
ENDBRANCH   6  11
ENDBRANCH   1   7
BRANCH   2  18
ATOM     18  S   UNL     1       1.498   3.114  20.558  0.00  0.00    +0.000 S 
ATOM     19  H   UNL     1       0.478   3.684  19.901  0.00  0.00    +0.000 HD
ENDBRANCH   2  18
BRANCH   5  20
ATOM     20  C   UNL     1       4.494   4.216  16.406  0.00  0.00    +0.000 C 
BRANCH  20  21
ATOM     21  O   UNL     1       5.884   3.940  16.580  0.00  0.00    +0.000 OA
BRANCH  21  22
ATOM     22  C   UNL     1       6.611   4.899  17.235  0.00  0.00    +0.000 A 
ATOM     23  C   UNL     1       6.519   6.185  16.712  0.00  0.00    +0.000 A 
ATOM     24  C   UNL     1       7.189   7.250  17.318  0.00  0.00    +0.000 A 
ATOM     25  C   UNL     1       7.946   7.029  18.467  0.00  0.00    +0.000 A 
ATOM     26  C   UNL     1       8.032   5.748  19.001  0.00  0.00    +0.000 A 
ATOM     27  C   UNL     1       7.366   4.677  18.390  0.00  0.00    +0.000 A 
ENDBRANCH  21  22
ENDBRANCH  20  21
ENDBRANCH   5  20
TORSDOF 8
ENDMDL
MODEL 5
REMARK VINA RESULT:      -7.0      1.042      2.145
REMARK  Name = 
REMARK  10 active torsions:
REMARK  status: ('A' for Active; 'I' for Inactive)
REMARK    1  A    between atoms: C_1  and  O_2
REMARK    2  A    between atoms: O_2  and  C_3
REMARK    3  A    between atoms: C_6  and  C_7
REMARK    4  A    between atoms: N_8  and  N_9
REMARK    5  A    between atoms: C_10  and  S_11
REMARK    6  A    between atoms: C_14  and  C_15
REMARK    7  A    between atoms: C_15  and  O_16
REMARK    8  A    between atoms: O_16  and  C_17
REMARK    9  A    between atoms: C_24  and  O_25
REMARK   10  A    between atoms: O_25  and  C_26
REMARK                            x       y       z     vdW  Elec       q    Type
REMARK                         _______ _______ _______ _____ _____    ______ ____
ROOT
ATOM      1  N   UNL     1       5.065   5.779  17.337  0.00  0.00    +0.000 N 
ATOM      2  C   UNL     1       6.439   5.815  17.183  0.00  0.00    +0.000 A 
ATOM      3  N   UNL     1       6.908   4.634  16.864  0.00  0.00    +0.000 NA
ATOM      4  N   UNL     1       5.835   3.791  16.731  0.00  0.00    +0.000 NA
ATOM      5  C   UNL     1       4.732   4.479  16.971  0.00  0.00    +0.000 A 
ENDROOT
BRANCH   1   7
ATOM      6  C   UNL     1       3.397   6.731  18.555  0.00  0.00    +0.000 C 
ATOM      7  N   UNL     1       4.277   6.876  17.615  0.00  0.00    +0.000 NA
BRANCH   6  11
ATOM      8  C   UNL     1       0.327   9.581  19.420  0.00  0.00    +0.000 A 
ATOM      9  C   UNL     1       1.016   9.630  18.195  0.00  0.00    +0.000 A 
ATOM     10  C   UNL     1       2.033   8.720  17.905  0.00  0.00    +0.000 A 
ATOM     11  C   UNL     1       2.416   7.794  18.867  0.00  0.00    +0.000 A 
ATOM     12  C   UNL     1       1.826   7.822  20.131  0.00  0.00    +0.000 A 
ATOM     13  C   UNL     1       0.782   8.715  20.426  0.00  0.00    +0.000 A 
BRANCH   8  15
ATOM     14  C   UNL     1      -1.463  10.757  18.427  0.00  0.00    +0.000 C 
ATOM     15  O   UNL     1      -0.779  10.364  19.625  0.00  0.00    +0.000 OA
ENDBRANCH   8  15
BRANCH  13  16
ATOM     16  O   UNL     1       0.330   8.553  21.708  0.00  0.00    +0.000 OA
ATOM     17  C   UNL     1       0.707   9.475  22.714  0.00  0.00    +0.000 C 
ENDBRANCH  13  16
ENDBRANCH   6  11
ENDBRANCH   1   7
BRANCH   2  18
ATOM     18  S   UNL     1       7.385   7.247  17.410  0.00  0.00    +0.000 S 
ATOM     19  H   UNL     1       7.021   7.881  16.286  0.00  0.00    +0.000 HD
ENDBRANCH   2  18
BRANCH   5  20
ATOM     20  C   UNL     1       3.353   3.971  16.741  0.00  0.00    +0.000 C 
BRANCH  20  21
ATOM     21  O   UNL     1       3.202   2.801  17.545  0.00  0.00    +0.000 OA
BRANCH  21  22
ATOM     22  C   UNL     1       2.713   2.998  18.810  0.00  0.00    +0.000 A 
ATOM     23  C   UNL     1       1.491   3.661  18.886  0.00  0.00    +0.000 A 
ATOM     24  C   UNL     1       0.880   3.887  20.122  0.00  0.00    +0.000 A 
ATOM     25  C   UNL     1       1.489   3.432  21.290  0.00  0.00    +0.000 A 
ATOM     26  C   UNL     1       2.704   2.760  21.219  0.00  0.00    +0.000 A 
ATOM     27  C   UNL     1       3.322   2.538  19.981  0.00  0.00    +0.000 A 
ENDBRANCH  21  22
ENDBRANCH  20  21
ENDBRANCH   5  20
TORSDOF 8
ENDMDL
MODEL 6
REMARK VINA RESULT:      -7.0      3.020      6.128
REMARK  Name = 
REMARK  10 active torsions:
REMARK  status: ('A' for Active; 'I' for Inactive)
REMARK    1  A    between atoms: C_1  and  O_2
REMARK    2  A    between atoms: O_2  and  C_3
REMARK    3  A    between atoms: C_6  and  C_7
REMARK    4  A    between atoms: N_8  and  N_9
REMARK    5  A    between atoms: C_10  and  S_11
REMARK    6  A    between atoms: C_14  and  C_15
REMARK    7  A    between atoms: C_15  and  O_16
REMARK    8  A    between atoms: O_16  and  C_17
REMARK    9  A    between atoms: C_24  and  O_25
REMARK   10  A    between atoms: O_25  and  C_26
REMARK                            x       y       z     vdW  Elec       q    Type
REMARK                         _______ _______ _______ _____ _____    ______ ____
ROOT
ATOM      1  N   UNL     1       1.835   7.437  19.393  0.00  0.00    +0.000 N 
ATOM      2  C   UNL     1       1.403   8.746  19.494  0.00  0.00    +0.000 A 
ATOM      3  N   UNL     1       0.710   8.929  20.592  0.00  0.00    +0.000 NA
ATOM      4  N   UNL     1       0.725   7.748  21.286  0.00  0.00    +0.000 NA
ATOM      5  C   UNL     1       1.429   6.867  20.595  0.00  0.00    +0.000 A 
ENDROOT
BRANCH   1   7
ATOM      6  C   UNL     1       3.764   6.426  18.738  0.00  0.00    +0.000 C 
ATOM      7  N   UNL     1       2.634   6.949  18.380  0.00  0.00    +0.000 NA
BRANCH   6  11
ATOM      8  C   UNL     1       6.553   5.378  15.668  0.00  0.00    +0.000 A 
ATOM      9  C   UNL     1       5.382   4.622  15.851  0.00  0.00    +0.000 A 
ATOM     10  C   UNL     1       4.471   4.938  16.859  0.00  0.00    +0.000 A 
ATOM     11  C   UNL     1       4.757   5.975  17.739  0.00  0.00    +0.000 A 
ATOM     12  C   UNL     1       5.977   6.648  17.644  0.00  0.00    +0.000 A 
ATOM     13  C   UNL     1       6.889   6.356  16.616  0.00  0.00    +0.000 A 
BRANCH   8  15
ATOM     14  C   UNL     1       6.777   4.316  13.571  0.00  0.00    +0.000 C 
ATOM     15  O   UNL     1       7.350   5.168  14.573  0.00  0.00    +0.000 OA
ENDBRANCH   8  15
BRANCH  13  16
ATOM     16  O   UNL     1       8.001   7.151  16.692  0.00  0.00    +0.000 OA
ATOM     17  C   UNL     1       8.034   8.238  17.598  0.00  0.00    +0.000 C 
ENDBRANCH  13  16
ENDBRANCH   6  11
ENDBRANCH   1   7
BRANCH   2  18
ATOM     18  S   UNL     1       1.734   9.953  18.299  0.00  0.00    +0.000 S 
ATOM     19  H   UNL     1       2.266  10.872  19.117  0.00  0.00    +0.000 HD
ENDBRANCH   2  18
BRANCH   5  20
ATOM     20  C   UNL     1       1.838   5.529  21.101  0.00  0.00    +0.000 C 
BRANCH  20  21
ATOM     21  O   UNL     1       1.159   4.558  20.305  0.00  0.00    +0.000 OA
BRANCH  21  22
ATOM     22  C   UNL     1       1.947   3.603  19.719  0.00  0.00    +0.000 A 
ATOM     23  C   UNL     1       1.532   3.167  18.464  0.00  0.00    +0.000 A 
ATOM     24  C   UNL     1       2.276   2.220  17.757  0.00  0.00    +0.000 A 
ATOM     25  C   UNL     1       3.456   1.717  18.303  0.00  0.00    +0.000 A 
ATOM     26  C   UNL     1       3.882   2.157  19.551  0.00  0.00    +0.000 A 
ATOM     27  C   UNL     1       3.132   3.101  20.266  0.00  0.00    +0.000 A 
ENDBRANCH  21  22
ENDBRANCH  20  21
ENDBRANCH   5  20
TORSDOF 8
ENDMDL
MODEL 7
REMARK VINA RESULT:      -7.0      2.540      4.520
REMARK  Name = 
REMARK  10 active torsions:
REMARK  status: ('A' for Active; 'I' for Inactive)
REMARK    1  A    between atoms: C_1  and  O_2
REMARK    2  A    between atoms: O_2  and  C_3
REMARK    3  A    between atoms: C_6  and  C_7
REMARK    4  A    between atoms: N_8  and  N_9
REMARK    5  A    between atoms: C_10  and  S_11
REMARK    6  A    between atoms: C_14  and  C_15
REMARK    7  A    between atoms: C_15  and  O_16
REMARK    8  A    between atoms: O_16  and  C_17
REMARK    9  A    between atoms: C_24  and  O_25
REMARK   10  A    between atoms: O_25  and  C_26
REMARK                            x       y       z     vdW  Elec       q    Type
REMARK                         _______ _______ _______ _____ _____    ______ ____
ROOT
ATOM      1  N   UNL     1       3.478   4.420  19.842  0.00  0.00    +0.000 N 
ATOM      2  C   UNL     1       2.929   3.193  20.166  0.00  0.00    +0.000 A 
ATOM      3  N   UNL     1       3.804   2.230  20.010  0.00  0.00    +0.000 NA
ATOM      4  N   UNL     1       4.988   2.811  19.638  0.00  0.00    +0.000 NA
ATOM      5  C   UNL     1       4.810   4.120  19.577  0.00  0.00    +0.000 A 
ENDROOT
BRANCH   1   7
ATOM      6  C   UNL     1       2.793   6.373  18.900  0.00  0.00    +0.000 C 
ATOM      7  N   UNL     1       2.824   5.629  19.960  0.00  0.00    +0.000 NA
BRANCH   6  11
ATOM      8  C   UNL     1       0.856  10.186  18.986  0.00  0.00    +0.000 A 
ATOM      9  C   UNL     1       1.511   9.750  17.821  0.00  0.00    +0.000 A 
ATOM     10  C   UNL     1       2.164   8.517  17.782  0.00  0.00    +0.000 A 
ATOM     11  C   UNL     1       2.225   7.739  18.931  0.00  0.00    +0.000 A 
ATOM     12  C   UNL     1       1.688   8.222  20.125  0.00  0.00    +0.000 A 
ATOM     13  C   UNL     1       1.005   9.449  20.171  0.00  0.00    +0.000 A 
BRANCH   8  15
ATOM     14  C   UNL     1       0.807  12.547  18.996  0.00  0.00    +0.000 C 
ATOM     15  O   UNL     1       0.076  11.313  18.961  0.00  0.00    +0.000 OA
ENDBRANCH   8  15
BRANCH  13  16
ATOM     16  O   UNL     1       0.534   9.716  21.429  0.00  0.00    +0.000 OA
ATOM     17  C   UNL     1      -0.354   8.811  22.059  0.00  0.00    +0.000 C 
ENDBRANCH  13  16
ENDBRANCH   6  11
ENDBRANCH   1   7
BRANCH   2  18
ATOM     18  S   UNL     1       1.291   2.991  20.689  0.00  0.00    +0.000 S 
ATOM     19  H   UNL     1       0.717   3.810  19.797  0.00  0.00    +0.000 HD
ENDBRANCH   2  18
BRANCH   5  20
ATOM     20  C   UNL     1       5.902   5.113  19.396  0.00  0.00    +0.000 C 
BRANCH  20  21
ATOM     21  O   UNL     1       6.759   4.607  18.373  0.00  0.00    +0.000 OA
BRANCH  21  22
ATOM     22  C   UNL     1       6.327   4.782  17.084  0.00  0.00    +0.000 A 
ATOM     23  C   UNL     1       5.752   6.018  16.806  0.00  0.00    +0.000 A 
ATOM     24  C   UNL     1       5.307   6.323  15.517  0.00  0.00    +0.000 A 
ATOM     25  C   UNL     1       5.454   5.387  14.494  0.00  0.00    +0.000 A 
ATOM     26  C   UNL     1       6.039   4.155  14.764  0.00  0.00    +0.000 A 
ATOM     27  C   UNL     1       6.480   3.845  16.058  0.00  0.00    +0.000 A 
ENDBRANCH  21  22
ENDBRANCH  20  21
ENDBRANCH   5  20
TORSDOF 8
ENDMDL
MODEL 8
REMARK VINA RESULT:      -6.9      0.835      1.257
REMARK  Name = 
REMARK  10 active torsions:
REMARK  status: ('A' for Active; 'I' for Inactive)
REMARK    1  A    between atoms: C_1  and  O_2
REMARK    2  A    between atoms: O_2  and  C_3
REMARK    3  A    between atoms: C_6  and  C_7
REMARK    4  A    between atoms: N_8  and  N_9
REMARK    5  A    between atoms: C_10  and  S_11
REMARK    6  A    between atoms: C_14  and  C_15
REMARK    7  A    between atoms: C_15  and  O_16
REMARK    8  A    between atoms: O_16  and  C_17
REMARK    9  A    between atoms: C_24  and  O_25
REMARK   10  A    between atoms: O_25  and  C_26
REMARK                            x       y       z     vdW  Elec       q    Type
REMARK                         _______ _______ _______ _____ _____    ______ ____
ROOT
ATOM      1  N   UNL     1       4.644   5.360  17.272  0.00  0.00    +0.000 N 
ATOM      2  C   UNL     1       5.993   5.542  17.029  0.00  0.00    +0.000 A 
ATOM      3  N   UNL     1       6.552   4.429  16.619  0.00  0.00    +0.000 NA
ATOM      4  N   UNL     1       5.560   3.490  16.513  0.00  0.00    +0.000 NA
ATOM      5  C   UNL     1       4.415   4.051  16.861  0.00  0.00    +0.000 A 
ENDROOT
BRANCH   1   7
ATOM      6  C   UNL     1       3.362   6.320  18.885  0.00  0.00    +0.000 C 
ATOM      7  N   UNL     1       3.774   6.358  17.658  0.00  0.00    +0.000 NA
BRANCH   6  11
ATOM      8  C   UNL     1       0.646   9.251  20.414  0.00  0.00    +0.000 A 
ATOM      9  C   UNL     1       0.864   8.052  21.115  0.00  0.00    +0.000 A 
ATOM     10  C   UNL     1       1.732   7.077  20.621  0.00  0.00    +0.000 A 
ATOM     11  C   UNL     1       2.339   7.265  19.385  0.00  0.00    +0.000 A 
ATOM     12  C   UNL     1       2.028   8.394  18.625  0.00  0.00    +0.000 A 
ATOM     13  C   UNL     1       1.177   9.394  19.124  0.00  0.00    +0.000 A 
BRANCH   8  15
ATOM     14  C   UNL     1       0.730  11.308  21.569  0.00  0.00    +0.000 C 
ATOM     15  O   UNL     1      -0.070  10.269  20.989  0.00  0.00    +0.000 OA
ENDBRANCH   8  15
BRANCH  13  16
ATOM     16  O   UNL     1       1.034  10.422  18.231  0.00  0.00    +0.000 OA
ATOM     17  C   UNL     1       2.003  11.453  18.175  0.00  0.00    +0.000 C 
ENDBRANCH  13  16
ENDBRANCH   6  11
ENDBRANCH   1   7
BRANCH   2  18
ATOM     18  S   UNL     1       6.809   7.049  17.267  0.00  0.00    +0.000 S 
ATOM     19  H   UNL     1       7.766   6.882  16.343  0.00  0.00    +0.000 HD
ENDBRANCH   2  18
BRANCH   5  20
ATOM     20  C   UNL     1       3.079   3.417  16.697  0.00  0.00    +0.000 C 
BRANCH  20  21
ATOM     21  O   UNL     1       3.006   2.350  17.642  0.00  0.00    +0.000 OA
BRANCH  21  22
ATOM     22  C   UNL     1       2.580   2.686  18.900  0.00  0.00    +0.000 A 
ATOM     23  C   UNL     1       1.296   3.217  18.978  0.00  0.00    +0.000 A 
ATOM     24  C   UNL     1       0.743   3.565  20.212  0.00  0.00    +0.000 A 
ATOM     25  C   UNL     1       1.475   3.365  21.381  0.00  0.00    +0.000 A 
ATOM     26  C   UNL     1       2.755   2.824  21.310  0.00  0.00    +0.000 A 
ATOM     27  C   UNL     1       3.314   2.481  20.072  0.00  0.00    +0.000 A 
ENDBRANCH  21  22
ENDBRANCH  20  21
ENDBRANCH   5  20
TORSDOF 8
ENDMDL
MODEL 9
REMARK VINA RESULT:      -6.9      2.547      4.471
REMARK  Name = 
REMARK  10 active torsions:
REMARK  status: ('A' for Active; 'I' for Inactive)
REMARK    1  A    between atoms: C_1  and  O_2
REMARK    2  A    between atoms: O_2  and  C_3
REMARK    3  A    between atoms: C_6  and  C_7
REMARK    4  A    between atoms: N_8  and  N_9
REMARK    5  A    between atoms: C_10  and  S_11
REMARK    6  A    between atoms: C_14  and  C_15
REMARK    7  A    between atoms: C_15  and  O_16
REMARK    8  A    between atoms: O_16  and  C_17
REMARK    9  A    between atoms: C_24  and  O_25
REMARK   10  A    between atoms: O_25  and  C_26
REMARK                            x       y       z     vdW  Elec       q    Type
REMARK                         _______ _______ _______ _____ _____    ______ ____
ROOT
ATOM      1  N   UNL     1       3.362   4.121  18.998  0.00  0.00    +0.000 N 
ATOM      2  C   UNL     1       2.717   2.928  19.270  0.00  0.00    +0.000 A 
ATOM      3  N   UNL     1       3.575   1.996  19.604  0.00  0.00    +0.000 NA
ATOM      4  N   UNL     1       4.818   2.573  19.628  0.00  0.00    +0.000 NA
ATOM      5  C   UNL     1       4.690   3.850  19.308  0.00  0.00    +0.000 A 
ENDROOT
BRANCH   1   7
ATOM      6  C   UNL     1       2.993   6.323  19.426  0.00  0.00    +0.000 C 
ATOM      7  N   UNL     1       2.726   5.302  18.676  0.00  0.00    +0.000 NA
BRANCH   6  11
ATOM      8  C   UNL     1       0.685   9.882  18.869  0.00  0.00    +0.000 A 
ATOM      9  C   UNL     1       1.631   9.492  17.905  0.00  0.00    +0.000 A 
ATOM     10  C   UNL     1       2.406   8.345  18.080  0.00  0.00    +0.000 A 
ATOM     11  C   UNL     1       2.288   7.613  19.255  0.00  0.00    +0.000 A 
ATOM     12  C   UNL     1       1.444   8.064  20.271  0.00  0.00    +0.000 A 
ATOM     13  C   UNL     1       0.639   9.202  20.095  0.00  0.00    +0.000 A 
BRANCH   8  15
ATOM     14  C   UNL     1      -1.431  10.500  18.022  0.00  0.00    +0.000 C 
ATOM     15  O   UNL     1      -0.187  10.907  18.609  0.00  0.00    +0.000 OA
ENDBRANCH   8  15
BRANCH  13  16
ATOM     16  O   UNL     1      -0.131   9.448  21.200  0.00  0.00    +0.000 OA
ATOM     17  C   UNL     1       0.484   9.699  22.451  0.00  0.00    +0.000 C 
ENDBRANCH  13  16
ENDBRANCH   6  11
ENDBRANCH   1   7
BRANCH   2  18
ATOM     18  S   UNL     1       1.002   2.725  19.155  0.00  0.00    +0.000 S 
ATOM     19  H   UNL     1       0.800   3.512  18.090  0.00  0.00    +0.000 HD
ENDBRANCH   2  18
BRANCH   5  20
ATOM     20  C   UNL     1       5.779   4.858  19.408  0.00  0.00    +0.000 C 
BRANCH  20  21
ATOM     21  O   UNL     1       6.715   4.564  18.371  0.00  0.00    +0.000 OA
BRANCH  21  22
ATOM     22  C   UNL     1       6.331   4.903  17.100  0.00  0.00    +0.000 A 
ATOM     23  C   UNL     1       6.608   3.958  16.116  0.00  0.00    +0.000 A 
ATOM     24  C   UNL     1       6.231   4.179  14.790  0.00  0.00    +0.000 A 
ATOM     25  C   UNL     1       5.557   5.350  14.447  0.00  0.00    +0.000 A 
ATOM     26  C   UNL     1       5.269   6.293  15.427  0.00  0.00    +0.000 A 
ATOM     27  C   UNL     1       5.652   6.076  16.758  0.00  0.00    +0.000 A 
ENDBRANCH  21  22
ENDBRANCH  20  21
ENDBRANCH   5  20
TORSDOF 8
ENDMDL
