MODEL 1
REMARK VINA RESULT:      -8.0      0.000      0.000
REMARK  Name = 
REMARK  15 active torsions:
REMARK  status: ('A' for Active; 'I' for Inactive)
REMARK    1  A    between atoms: N_1  and  CA_2
REMARK    2  A    between atoms: CA_2  and  C_3
REMARK    3  A    between atoms: CA_9  and  C_10
REMARK    4  A    between atoms: N_12  and  CA_13
REMARK    5  A    between atoms: CA_13  and  CB_14
REMARK    6  A    between atoms: CA_13  and  C_21
REMARK    7  A    between atoms: CB_14  and  CG_15
REMARK    8  A    between atoms: CG_15  and  CD_16
REMARK    9  A    between atoms: CD_16  and  NE_17
REMARK   10  A    between atoms: N_23  and  C_24
REMARK   11  A    between atoms: C_24  and  C_25
REMARK   12  A    between atoms: C_24  and  C_33
REMARK   13  A    between atoms: C_25  and  C_26
REMARK   14  A    between atoms: C_29  and  N_30
REMARK   15  A    between atoms: C_33  and  O_35
REMARK                            x       y       z     vdW  Elec       q    Type
REMARK                         _______ _______ _______ _____ _____    ______ ____
ROOT
ATOM      1  CA  ARG A   3       2.392   5.773  19.602  0.00  0.00    +0.000 C 
ENDROOT
BRANCH   1   4
ATOM      2  C   PRO A   2       4.247   4.949  18.142  0.00  0.00    +0.000 C 
ATOM      3  O   PRO A   2       3.481   4.603  17.242  0.00  0.00    +0.000 OA
ATOM      4  N   ARG A   3       3.796   5.497  19.317  0.00  0.00    +0.000 N 
ATOM      5  H   ARG A   3       4.482   5.767  20.014  0.00  0.00    +0.000 HD
BRANCH   2  12
ATOM      6  C   GLY A   1       6.439   4.413  15.646  0.00  0.00    +0.000 C 
ATOM      7  O   GLY A   1       5.970   3.273  15.641  0.00  0.00    +0.000 OA
ATOM      8  N   PRO A   2       6.344   5.237  16.750  0.00  0.00    +0.000 N 
ATOM      9  CD  PRO A   2       6.964   6.535  16.919  0.00  0.00    +0.000 C 
ATOM     10  CG  PRO A   2       7.489   6.497  18.338  0.00  0.00    +0.000 C 
ATOM     11  CB  PRO A   2       6.479   5.636  19.093  0.00  0.00    +0.000 C 
ATOM     12  CA  PRO A   2       5.784   4.770  18.026  0.00  0.00    +0.000 C 
BRANCH   6  13
ATOM     13  CA  GLY A   1       7.180   4.962  14.419  0.00  0.00    +0.000 C 
BRANCH  13  14
ATOM     14  N   GLY A   1       6.754   4.241  13.211  0.00  0.00    +0.000 NA
ATOM     15  H1  GLY A   1       7.571   4.043  12.637  0.00  0.00    +0.000 HD
ATOM     16  H2  GLY A   1       6.169   4.872  12.658  0.00  0.00    +0.000 HD
ENDBRANCH  13  14
ENDBRANCH   6  13
ENDBRANCH   2  12
ENDBRANCH   1   4
BRANCH   1  17
ATOM     17  C   ARG A   3       2.150   7.303  19.645  0.00  0.00    +0.000 C 
ATOM     18  O   ARG A   3       2.551   8.073  18.773  0.00  0.00    +0.000 OA
ATOM     19  N   UNK A   4       1.495   7.747  20.773  0.00  0.00    +0.000 N 
ATOM     20  H   UNK A   4       1.237   7.103  21.514  0.00  0.00    +0.000 HD
BRANCH  19  21
ATOM     21  C   UNK A   4       1.323   9.162  21.082  0.00  0.00    +0.000 C 
BRANCH  21  22
ATOM     22  C   UNK A   4       1.437   9.377  22.598  0.00  0.00    +0.000 C 
ATOM     23  O   UNK A   4       0.478   9.602  23.328  0.00  0.00    +0.000 OA
BRANCH  22  24
ATOM     24  O   UNK A   4       2.696   9.279  23.089  0.00  0.00    +0.000 OA
ATOM     25  H   UNK A   4       2.765   8.935  24.000  0.00  0.00    +0.000 HD
ENDBRANCH  22  24
ENDBRANCH  21  22
BRANCH  21  26
ATOM     26  C   UNK A   4       0.002   9.685  20.525  0.00  0.00    +0.000 C 
BRANCH  26  27
ATOM     27  C   UNK A   4      -0.007  11.154  20.173  0.00  0.00    +0.000 A 
ATOM     28  C   UNK A   4       0.872  11.664  19.210  0.00  0.00    +0.000 A 
ATOM     29  C   UNK A   4       0.724  12.972  18.745  0.00  0.00    +0.000 A 
ATOM     30  C   UNK A   4      -0.262  13.809  19.268  0.00  0.00    +0.000 A 
ATOM     31  C   UNK A   4      -1.102  13.313  20.267  0.00  0.00    +0.000 A 
ATOM     32  C   UNK A   4      -0.960  12.005  20.739  0.00  0.00    +0.000 A 
BRANCH  30  33
ATOM     33  N   UNK A   4      -0.571  15.011  18.624  0.00  0.00    +0.000 N 
ATOM     34  H   UNK A   4       0.156  15.356  18.007  0.00  0.00    +0.000 HD
ATOM     35  H   UNK A   4      -0.948  15.727  19.236  0.00  0.00    +0.000 HD
ENDBRANCH  30  33
ENDBRANCH  26  27
ENDBRANCH  21  26
ENDBRANCH  19  21
ENDBRANCH   1  17
BRANCH   1  36
ATOM     36  CB  ARG A   3       1.964   5.147  20.935  0.00  0.00    +0.000 C 
BRANCH  36  37
ATOM     37  CG  ARG A   3       1.152   3.867  20.723  0.00  0.00    +0.000 C 
BRANCH  37  38
ATOM     38  CD  ARG A   3       1.888   2.656  21.264  0.00  0.00    +0.000 C 
BRANCH  38  39
ATOM     39  NE  ARG A   3       3.020   2.424  20.378  0.00  0.00    +0.000 NA
ATOM     40  CZ  ARG A   3       2.780   1.870  19.244  0.00  0.00    +0.000 C 
ATOM     41  NH1 ARG A   3       1.594   1.465  18.746  0.00  0.00    +0.000 N 
ATOM     42  NH2 ARG A   3       3.792   1.674  18.383  0.00  0.00    +0.000 N 
ATOM     43 HH11 ARG A   3       0.830   1.371  19.400  0.00  0.00    +0.000 HD
ATOM     44 HH12 ARG A   3       1.611   0.731  18.051  0.00  0.00    +0.000 HD
ATOM     45 HH21 ARG A   3       4.673   1.851  18.847  0.00  0.00    +0.000 HD
ATOM     46 HH22 ARG A   3       3.791   0.792  17.898  0.00  0.00    +0.000 HD
ENDBRANCH  38  39
ENDBRANCH  37  38
ENDBRANCH  36  37
ENDBRANCH   1  36
TORSDOF 15
ENDMDL
MODEL 2
REMARK VINA RESULT:      -7.7      2.276      7.874
REMARK  Name = 
REMARK  15 active torsions:
REMARK  status: ('A' for Active; 'I' for Inactive)
REMARK    1  A    between atoms: N_1  and  CA_2
REMARK    2  A    between atoms: CA_2  and  C_3
REMARK    3  A    between atoms: CA_9  and  C_10
REMARK    4  A    between atoms: N_12  and  CA_13
REMARK    5  A    between atoms: CA_13  and  CB_14
REMARK    6  A    between atoms: CA_13  and  C_21
REMARK    7  A    between atoms: CB_14  and  CG_15
REMARK    8  A    between atoms: CG_15  and  CD_16
REMARK    9  A    between atoms: CD_16  and  NE_17
REMARK   10  A    between atoms: N_23  and  C_24
REMARK   11  A    between atoms: C_24  and  C_25
REMARK   12  A    between atoms: C_24  and  C_33
REMARK   13  A    between atoms: C_25  and  C_26
REMARK   14  A    between atoms: C_29  and  N_30
REMARK   15  A    between atoms: C_33  and  O_35
REMARK                            x       y       z     vdW  Elec       q    Type
REMARK                         _______ _______ _______ _____ _____    ______ ____
ROOT
ATOM      1  CA  ARG A   3       3.217   5.291  19.186  0.00  0.00    +0.000 C 
ENDROOT
BRANCH   1   4
ATOM      2  C   PRO A   2       1.953   7.052  20.431  0.00  0.00    +0.000 C 
ATOM      3  O   PRO A   2       1.146   6.247  20.896  0.00  0.00    +0.000 OA
ATOM      4  N   ARG A   3       2.962   6.671  19.581  0.00  0.00    +0.000 N 
ATOM      5  H   ARG A   3       3.596   7.386  19.241  0.00  0.00    +0.000 HD
BRANCH   2  12
ATOM      6  C   GLY A   1       0.925   9.821  18.818  0.00  0.00    +0.000 C 
ATOM      7  O   GLY A   1       1.954   9.672  18.158  0.00  0.00    +0.000 OA
ATOM      8  N   PRO A   2       0.777   9.267  20.075  0.00  0.00    +0.000 N 
ATOM      9  CD  PRO A   2      -0.324   9.480  20.992  0.00  0.00    +0.000 C 
ATOM     10  CG  PRO A   2       0.357   9.658  22.331  0.00  0.00    +0.000 C 
ATOM     11  CB  PRO A   2       1.586   8.755  22.254  0.00  0.00    +0.000 C 
ATOM     12  CA  PRO A   2       1.876   8.568  20.753  0.00  0.00    +0.000 C 
BRANCH   6  13
ATOM     13  CA  GLY A   1      -0.242  10.658  18.276  0.00  0.00    +0.000 C 
BRANCH  13  14
ATOM     14  N   GLY A   1      -1.010   9.875  17.296  0.00  0.00    +0.000 NA
ATOM     15  H1  GLY A   1      -1.660   9.270  17.792  0.00  0.00    +0.000 HD
ATOM     16  H2  GLY A   1      -0.359   9.250  16.814  0.00  0.00    +0.000 HD
ENDBRANCH  13  14
ENDBRANCH   6  13
ENDBRANCH   2  12
ENDBRANCH   1   4
BRANCH   1  17
ATOM     17  C   ARG A   3       4.740   5.006  19.203  0.00  0.00    +0.000 C 
ATOM     18  O   ARG A   3       5.247   4.098  19.861  0.00  0.00    +0.000 OA
ATOM     19  N   UNK A   4       5.496   5.889  18.464  0.00  0.00    +0.000 N 
ATOM     20  H   UNK A   4       5.063   6.673  17.988  0.00  0.00    +0.000 HD
BRANCH  19  21
ATOM     21  C   UNK A   4       6.954   5.894  18.488  0.00  0.00    +0.000 C 
BRANCH  21  22
ATOM     22  C   UNK A   4       7.474   7.251  17.989  0.00  0.00    +0.000 C 
ATOM     23  O   UNK A   4       6.971   7.872  17.059  0.00  0.00    +0.000 OA
BRANCH  22  24
ATOM     24  O   UNK A   4       8.536   7.735  18.676  0.00  0.00    +0.000 OA
ATOM     25  H   UNK A   4       8.657   8.703  18.633  0.00  0.00    +0.000 HD
ENDBRANCH  22  24
ENDBRANCH  21  22
BRANCH  21  26
ATOM     26  C   UNK A   4       7.517   4.730  17.678  0.00  0.00    +0.000 C 
BRANCH  26  27
ATOM     27  C   UNK A   4       6.948   4.587  16.286  0.00  0.00    +0.000 A 
ATOM     28  C   UNK A   4       7.620   5.120  15.179  0.00  0.00    +0.000 A 
ATOM     29  C   UNK A   4       7.198   4.813  13.885  0.00  0.00    +0.000 A 
ATOM     30  C   UNK A   4       6.071   4.018  13.670  0.00  0.00    +0.000 A 
ATOM     31  C   UNK A   4       5.372   3.533  14.777  0.00  0.00    +0.000 A 
ATOM     32  C   UNK A   4       5.787   3.836  16.076  0.00  0.00    +0.000 A 
BRANCH  30  33
ATOM     33  N   UNK A   4       5.812   3.505  12.396  0.00  0.00    +0.000 N 
ATOM     34  H   UNK A   4       6.586   3.584  11.745  0.00  0.00    +0.000 HD
ATOM     35  H   UNK A   4       4.927   3.801  11.999  0.00  0.00    +0.000 HD
ENDBRANCH  30  33
ENDBRANCH  26  27
ENDBRANCH  21  26
ENDBRANCH  19  21
ENDBRANCH   1  17
BRANCH   1  36
ATOM     36  CB  ARG A   3       2.655   5.002  17.789  0.00  0.00    +0.000 C 
BRANCH  36  37
ATOM     37  CG  ARG A   3       1.500   3.999  17.839  0.00  0.00    +0.000 C 
BRANCH  37  38
ATOM     38  CD  ARG A   3       1.890   2.756  18.617  0.00  0.00    +0.000 C 
BRANCH  38  39
ATOM     39  NE  ARG A   3       1.096   2.760  19.838  0.00  0.00    +0.000 NA
ATOM     40  CZ  ARG A   3       1.719   2.597  20.950  0.00  0.00    +0.000 C 
ATOM     41  NH1 ARG A   3       3.042   2.421  21.149  0.00  0.00    +0.000 N 
ATOM     42  NH2 ARG A   3       1.028   2.634  22.101  0.00  0.00    +0.000 N 
ATOM     43 HH11 ARG A   3       3.596   2.163  20.345  0.00  0.00    +0.000 HD
ATOM     44 HH12 ARG A   3       3.321   1.940  21.992  0.00  0.00    +0.000 HD
ATOM     45 HH21 ARG A   3       0.035   2.618  21.902  0.00  0.00    +0.000 HD
ATOM     46 HH22 ARG A   3       1.286   1.947  22.789  0.00  0.00    +0.000 HD
ENDBRANCH  38  39
ENDBRANCH  37  38
ENDBRANCH  36  37
ENDBRANCH   1  36
TORSDOF 15
ENDMDL
MODEL 3
REMARK VINA RESULT:      -7.7      1.277      1.394
REMARK  Name = 
REMARK  15 active torsions:
REMARK  status: ('A' for Active; 'I' for Inactive)
REMARK    1  A    between atoms: N_1  and  CA_2
REMARK    2  A    between atoms: CA_2  and  C_3
REMARK    3  A    between atoms: CA_9  and  C_10
REMARK    4  A    between atoms: N_12  and  CA_13
REMARK    5  A    between atoms: CA_13  and  CB_14
REMARK    6  A    between atoms: CA_13  and  C_21
REMARK    7  A    between atoms: CB_14  and  CG_15
REMARK    8  A    between atoms: CG_15  and  CD_16
REMARK    9  A    between atoms: CD_16  and  NE_17
REMARK   10  A    between atoms: N_23  and  C_24
REMARK   11  A    between atoms: C_24  and  C_25
REMARK   12  A    between atoms: C_24  and  C_33
REMARK   13  A    between atoms: C_25  and  C_26
REMARK   14  A    between atoms: C_29  and  N_30
REMARK   15  A    between atoms: C_33  and  O_35
REMARK                            x       y       z     vdW  Elec       q    Type
REMARK                         _______ _______ _______ _____ _____    ______ ____
ROOT
ATOM      1  CA  ARG A   3       2.421   5.570  19.916  0.00  0.00    +0.000 C 
ENDROOT
BRANCH   1   4
ATOM      2  C   PRO A   2       4.231   5.038  18.276  0.00  0.00    +0.000 C 
ATOM      3  O   PRO A   2       3.438   4.844  17.354  0.00  0.00    +0.000 OA
ATOM      4  N   ARG A   3       3.816   5.367  19.543  0.00  0.00    +0.000 N 
ATOM      5  H   ARG A   3       4.523   5.521  20.253  0.00  0.00    +0.000 HD
BRANCH   2  12
ATOM      6  C   GLY A   1       6.298   4.428  15.691  0.00  0.00    +0.000 C 
ATOM      7  O   GLY A   1       5.871   3.275  15.779  0.00  0.00    +0.000 OA
ATOM      8  N   PRO A   2       6.234   5.313  16.750  0.00  0.00    +0.000 N 
ATOM      9  CD  PRO A   2       6.815   6.639  16.807  0.00  0.00    +0.000 C 
ATOM     10  CG  PRO A   2       7.420   6.702  18.193  0.00  0.00    +0.000 C 
ATOM     11  CB  PRO A   2       6.486   5.855  19.054  0.00  0.00    +0.000 C 
ATOM     12  CA  PRO A   2       5.765   4.905  18.080  0.00  0.00    +0.000 C 
BRANCH   6  13
ATOM     13  CA  GLY A   1       6.947   4.928  14.393  0.00  0.00    +0.000 C 
BRANCH  13  14
ATOM     14  N   GLY A   1       6.570   4.054  13.273  0.00  0.00    +0.000 NA
ATOM     15  H1  GLY A   1       7.253   4.158  12.526  0.00  0.00    +0.000 HD
ATOM     16  H2  GLY A   1       5.684   4.395  12.893  0.00  0.00    +0.000 HD
ENDBRANCH  13  14
ENDBRANCH   6  13
ENDBRANCH   2  12
ENDBRANCH   1   4
BRANCH   1  17
ATOM     17  C   ARG A   3       2.084   7.082  19.912  0.00  0.00    +0.000 C 
ATOM     18  O   ARG A   3       2.475   7.856  19.040  0.00  0.00    +0.000 OA
ATOM     19  N   UNK A   4       1.355   7.509  21.001  0.00  0.00    +0.000 N 
ATOM     20  H   UNK A   4       1.104   6.866  21.745  0.00  0.00    +0.000 HD
BRANCH  19  21
ATOM     21  C   UNK A   4       1.083   8.917  21.267  0.00  0.00    +0.000 C 
BRANCH  21  22
ATOM     22  C   UNK A   4       1.552   9.273  22.686  0.00  0.00    +0.000 C 
ATOM     23  O   UNK A   4       0.792   9.442  23.632  0.00  0.00    +0.000 OA
BRANCH  22  24
ATOM     24  O   UNK A   4       2.896   9.369  22.828  0.00  0.00    +0.000 OA
ATOM     25  H   UNK A   4       3.357   8.533  23.033  0.00  0.00    +0.000 HD
ENDBRANCH  22  24
ENDBRANCH  21  22
BRANCH  21  26
ATOM     26  C   UNK A   4      -0.394   9.237  21.053  0.00  0.00    +0.000 C 
BRANCH  26  27
ATOM     27  C   UNK A   4      -0.704  10.005  19.790  0.00  0.00    +0.000 A 
ATOM     28  C   UNK A   4      -0.679   9.369  18.542  0.00  0.00    +0.000 A 
ATOM     29  C   UNK A   4      -1.160  10.026  17.408  0.00  0.00    +0.000 A 
ATOM     30  C   UNK A   4      -1.621  11.341  17.486  0.00  0.00    +0.000 A 
ATOM     31  C   UNK A   4      -1.595  11.989  18.723  0.00  0.00    +0.000 A 
ATOM     32  C   UNK A   4      -1.114  11.339  19.862  0.00  0.00    +0.000 A 
BRANCH  30  33
ATOM     33  N   UNK A   4      -2.335  11.894  16.419  0.00  0.00    +0.000 N 
ATOM     34  H   UNK A   4      -2.231  11.396  15.541  0.00  0.00    +0.000 HD
ATOM     35  H   UNK A   4      -2.229  12.898  16.322  0.00  0.00    +0.000 HD
ENDBRANCH  30  33
ENDBRANCH  26  27
ENDBRANCH  21  26
ENDBRANCH  19  21
ENDBRANCH   1  17
BRANCH   1  36
ATOM     36  CB  ARG A   3       2.128   4.981  21.302  0.00  0.00    +0.000 C 
BRANCH  36  37
ATOM     37  CG  ARG A   3       1.450   3.612  21.204  0.00  0.00    +0.000 C 
BRANCH  37  38
ATOM     38  CD  ARG A   3       1.555   3.051  19.798  0.00  0.00    +0.000 C 
BRANCH  38  39
ATOM     39  NE  ARG A   3       2.746   2.214  19.769  0.00  0.00    +0.000 NA
ATOM     40  CZ  ARG A   3       3.087   1.709  18.638  0.00  0.00    +0.000 C 
ATOM     41  NH1 ARG A   3       2.480   1.852  17.441  0.00  0.00    +0.000 N 
ATOM     42  NH2 ARG A   3       4.202   0.964  18.562  0.00  0.00    +0.000 N 
ATOM     43 HH11 ARG A   3       1.534   2.203  17.447  0.00  0.00    +0.000 HD
ATOM     44 HH12 ARG A   3       2.627   1.120  16.760  0.00  0.00    +0.000 HD
ATOM     45 HH21 ARG A   3       4.539   0.760  19.494  0.00  0.00    +0.000 HD
ATOM     46 HH22 ARG A   3       4.137   0.135  17.994  0.00  0.00    +0.000 HD
ENDBRANCH  38  39
ENDBRANCH  37  38
ENDBRANCH  36  37
ENDBRANCH   1  36
TORSDOF 15
ENDMDL
MODEL 4
REMARK VINA RESULT:      -7.6      1.985      8.323
REMARK  Name = 
REMARK  15 active torsions:
REMARK  status: ('A' for Active; 'I' for Inactive)
REMARK    1  A    between atoms: N_1  and  CA_2
REMARK    2  A    between atoms: CA_2  and  C_3
REMARK    3  A    between atoms: CA_9  and  C_10
REMARK    4  A    between atoms: N_12  and  CA_13
REMARK    5  A    between atoms: CA_13  and  CB_14
REMARK    6  A    between atoms: CA_13  and  C_21
REMARK    7  A    between atoms: CB_14  and  CG_15
REMARK    8  A    between atoms: CG_15  and  CD_16
REMARK    9  A    between atoms: CD_16  and  NE_17
REMARK   10  A    between atoms: N_23  and  C_24
REMARK   11  A    between atoms: C_24  and  C_25
REMARK   12  A    between atoms: C_24  and  C_33
REMARK   13  A    between atoms: C_25  and  C_26
REMARK   14  A    between atoms: C_29  and  N_30
REMARK   15  A    between atoms: C_33  and  O_35
REMARK                            x       y       z     vdW  Elec       q    Type
REMARK                         _______ _______ _______ _____ _____    ______ ____
ROOT
ATOM      1  CA  ARG A   3       2.701   6.295  19.111  0.00  0.00    +0.000 C 
ENDROOT
BRANCH   1   4
ATOM      2  C   PRO A   2       1.681   8.576  19.171  0.00  0.00    +0.000 C 
ATOM      3  O   PRO A   2       1.546   8.563  20.395  0.00  0.00    +0.000 OA
ATOM      4  N   ARG A   3       2.206   7.513  18.480  0.00  0.00    +0.000 N 
ATOM      5  H   ARG A   3       2.297   7.594  17.473  0.00  0.00    +0.000 HD
BRANCH   2  12
ATOM      6  C   GLY A   1      -0.950  10.673  19.099  0.00  0.00    +0.000 C 
ATOM      7  O   GLY A   1      -1.555   9.705  18.636  0.00  0.00    +0.000 OA
ATOM      8  N   PRO A   2       0.427  10.773  19.036  0.00  0.00    +0.000 N 
ATOM      9  CD  PRO A   2       1.231  11.912  19.424  0.00  0.00    +0.000 C 
ATOM     10  CG  PRO A   2       2.251  12.024  18.312  0.00  0.00    +0.000 C 
ATOM     11  CB  PRO A   2       2.496  10.581  17.877  0.00  0.00    +0.000 C 
ATOM     12  CA  PRO A   2       1.246   9.793  18.311  0.00  0.00    +0.000 C 
BRANCH   6  13
ATOM     13  CA  GLY A   1      -1.711  11.836  19.752  0.00  0.00    +0.000 C 
BRANCH  13  14
ATOM     14  N   GLY A   1      -2.687  12.392  18.804  0.00  0.00    +0.000 NA
ATOM     15  H1  GLY A   1      -3.623  12.285  19.190  0.00  0.00    +0.000 HD
ATOM     16  H2  GLY A   1      -2.667  11.818  17.958  0.00  0.00    +0.000 HD
ENDBRANCH  13  14
ENDBRANCH   6  13
ENDBRANCH   2  12
ENDBRANCH   1   4
BRANCH   1  17
ATOM     17  C   ARG A   3       3.624   5.526  18.133  0.00  0.00    +0.000 C 
ATOM     18  O   ARG A   3       3.230   4.607  17.417  0.00  0.00    +0.000 OA
ATOM     19  N   UNK A   4       4.946   5.913  18.169  0.00  0.00    +0.000 N 
ATOM     20  H   UNK A   4       5.263   6.624  18.820  0.00  0.00    +0.000 HD
BRANCH  19  21
ATOM     21  C   UNK A   4       5.999   5.202  17.453  0.00  0.00    +0.000 C 
BRANCH  21  22
ATOM     22  C   UNK A   4       7.170   4.919  18.405  0.00  0.00    +0.000 C 
ATOM     23  O   UNK A   4       8.240   4.441  18.045  0.00  0.00    +0.000 OA
BRANCH  22  24
ATOM     24  O   UNK A   4       6.943   5.261  19.696  0.00  0.00    +0.000 OA
ATOM     25  H   UNK A   4       7.741   5.410  20.237  0.00  0.00    +0.000 HD
ENDBRANCH  22  24
ENDBRANCH  21  22
BRANCH  21  26
ATOM     26  C   UNK A   4       6.438   5.980  16.216  0.00  0.00    +0.000 C 
BRANCH  26  27
ATOM     27  C   UNK A   4       6.336   5.221  14.914  0.00  0.00    +0.000 A 
ATOM     28  C   UNK A   4       7.399   5.217  14.003  0.00  0.00    +0.000 A 
ATOM     29  C   UNK A   4       7.379   4.357  12.903  0.00  0.00    +0.000 A 
ATOM     30  C   UNK A   4       6.281   3.531  12.662  0.00  0.00    +0.000 A 
ATOM     31  C   UNK A   4       5.199   3.578  13.544  0.00  0.00    +0.000 A 
ATOM     32  C   UNK A   4       5.211   4.436  14.646  0.00  0.00    +0.000 A 
BRANCH  30  33
ATOM     33  N   UNK A   4       6.377   2.499  11.723  0.00  0.00    +0.000 N 
ATOM     34  H   UNK A   4       7.065   1.789  11.949  0.00  0.00    +0.000 HD
ATOM     35  H   UNK A   4       6.431   2.814  10.761  0.00  0.00    +0.000 HD
ENDBRANCH  30  33
ENDBRANCH  26  27
ENDBRANCH  21  26
ENDBRANCH  19  21
ENDBRANCH   1  17
BRANCH   1  36
ATOM     36  CB  ARG A   3       1.543   5.387  19.546  0.00  0.00    +0.000 C 
BRANCH  36  37
ATOM     37  CG  ARG A   3       1.856   4.660  20.856  0.00  0.00    +0.000 C 
BRANCH  37  38
ATOM     38  CD  ARG A   3       1.641   3.165  20.716  0.00  0.00    +0.000 C 
BRANCH  38  39
ATOM     39  NE  ARG A   3       2.895   2.606  20.229  0.00  0.00    +0.000 NA
ATOM     40  CZ  ARG A   3       2.878   2.023  19.084  0.00  0.00    +0.000 C 
ATOM     41  NH1 ARG A   3       1.833   1.854  18.247  0.00  0.00    +0.000 N 
ATOM     42  NH2 ARG A   3       4.021   1.528  18.583  0.00  0.00    +0.000 N 
ATOM     43 HH11 ARG A   3       0.910   1.993  18.632  0.00  0.00    +0.000 HD
ATOM     44 HH12 ARG A   3       1.879   1.077  17.603  0.00  0.00    +0.000 HD
ATOM     45 HH21 ARG A   3       4.739   1.542  19.296  0.00  0.00    +0.000 HD
ATOM     46 HH22 ARG A   3       3.952   0.631  18.134  0.00  0.00    +0.000 HD
ENDBRANCH  38  39
ENDBRANCH  37  38
ENDBRANCH  36  37
ENDBRANCH   1  36
TORSDOF 15
ENDMDL
MODEL 5
REMARK VINA RESULT:      -7.5      2.004      8.168
REMARK  Name = 
REMARK  15 active torsions:
REMARK  status: ('A' for Active; 'I' for Inactive)
REMARK    1  A    between atoms: N_1  and  CA_2
REMARK    2  A    between atoms: CA_2  and  C_3
REMARK    3  A    between atoms: CA_9  and  C_10
REMARK    4  A    between atoms: N_12  and  CA_13
REMARK    5  A    between atoms: CA_13  and  CB_14
REMARK    6  A    between atoms: CA_13  and  C_21
REMARK    7  A    between atoms: CB_14  and  CG_15
REMARK    8  A    between atoms: CG_15  and  CD_16
REMARK    9  A    between atoms: CD_16  and  NE_17
REMARK   10  A    between atoms: N_23  and  C_24
REMARK   11  A    between atoms: C_24  and  C_25
REMARK   12  A    between atoms: C_24  and  C_33
REMARK   13  A    between atoms: C_25  and  C_26
REMARK   14  A    between atoms: C_29  and  N_30
REMARK   15  A    between atoms: C_33  and  O_35
REMARK                            x       y       z     vdW  Elec       q    Type
REMARK                         _______ _______ _______ _____ _____    ______ ____
ROOT
ATOM      1  CA  ARG A   3       3.128   5.683  20.182  0.00  0.00    +0.000 C 
ENDROOT
BRANCH   1   4
ATOM      2  C   PRO A   2       2.196   7.785  19.203  0.00  0.00    +0.000 C 
ATOM      3  O   PRO A   2       3.241   8.061  18.615  0.00  0.00    +0.000 OA
ATOM      4  N   ARG A   3       2.072   6.671  19.995  0.00  0.00    +0.000 N 
ATOM      5  H   ARG A   3       1.179   6.499  20.444  0.00  0.00    +0.000 HD
BRANCH   2  12
ATOM      6  C   GLY A   1      -0.080   8.998  21.364  0.00  0.00    +0.000 C 
ATOM      7  O   GLY A   1      -0.504   7.841  21.381  0.00  0.00    +0.000 OA
ATOM      8  N   PRO A   2       0.683   9.483  20.320  0.00  0.00    +0.000 N 
ATOM      9  CD  PRO A   2       1.123  10.849  20.129  0.00  0.00    +0.000 C 
ATOM     10  CG  PRO A   2       0.893  11.094  18.653  0.00  0.00    +0.000 C 
ATOM     11  CB  PRO A   2       1.148   9.738  18.000  0.00  0.00    +0.000 C 
ATOM     12  CA  PRO A   2       0.939   8.691  19.109  0.00  0.00    +0.000 C 
BRANCH   6  13
ATOM     13  CA  GLY A   1      -0.407   9.970  22.507  0.00  0.00    +0.000 C 
BRANCH  13  14
ATOM     14  N   GLY A   1       0.419   9.658  23.683  0.00  0.00    +0.000 NA
ATOM     15  H1  GLY A   1       1.319  10.124  23.589  0.00  0.00    +0.000 HD
ATOM     16  H2  GLY A   1       0.621   8.655  23.668  0.00  0.00    +0.000 HD
ENDBRANCH  13  14
ENDBRANCH   6  13
ENDBRANCH   2  12
ENDBRANCH   1   4
BRANCH   1  17
ATOM     17  C   ARG A   3       3.775   5.330  18.819  0.00  0.00    +0.000 C 
ATOM     18  O   ARG A   3       3.133   4.898  17.861  0.00  0.00    +0.000 OA
ATOM     19  N   UNK A   4       5.143   5.483  18.777  0.00  0.00    +0.000 N 
ATOM     20  H   UNK A   4       5.660   5.772  19.601  0.00  0.00    +0.000 HD
BRANCH  19  21
ATOM     21  C   UNK A   4       5.954   5.046  17.646  0.00  0.00    +0.000 C 
BRANCH  21  22
ATOM     22  C   UNK A   4       7.434   5.008  18.057  0.00  0.00    +0.000 C 
ATOM     23  O   UNK A   4       8.223   4.148  17.681  0.00  0.00    +0.000 OA
BRANCH  22  24
ATOM     24  O   UNK A   4       7.821   6.024  18.864  0.00  0.00    +0.000 OA
ATOM     25  H   UNK A   4       8.755   6.001  19.149  0.00  0.00    +0.000 HD
ENDBRANCH  22  24
ENDBRANCH  21  22
BRANCH  21  26
ATOM     26  C   UNK A   4       5.718   5.935  16.429  0.00  0.00    +0.000 C 
BRANCH  26  27
ATOM     27  C   UNK A   4       5.926   5.260  15.094  0.00  0.00    +0.000 A 
ATOM     28  C   UNK A   4       7.154   5.355  14.428  0.00  0.00    +0.000 A 
ATOM     29  C   UNK A   4       7.406   4.569  13.302  0.00  0.00    +0.000 A 
ATOM     30  C   UNK A   4       6.424   3.720  12.790  0.00  0.00    +0.000 A 
ATOM     31  C   UNK A   4       5.182   3.669  13.426  0.00  0.00    +0.000 A 
ATOM     32  C   UNK A   4       4.922   4.453  14.552  0.00  0.00    +0.000 A 
BRANCH  30  33
ATOM     33  N   UNK A   4       6.765   2.755  11.836  0.00  0.00    +0.000 N 
ATOM     34  H   UNK A   4       6.086   2.643  11.091  0.00  0.00    +0.000 HD
ATOM     35  H   UNK A   4       7.076   1.873  12.228  0.00  0.00    +0.000 HD
ENDBRANCH  30  33
ENDBRANCH  26  27
ENDBRANCH  21  26
ENDBRANCH  19  21
ENDBRANCH   1  17
BRANCH   1  36
ATOM     36  CB  ARG A   3       2.584   4.407  20.838  0.00  0.00    +0.000 C 
BRANCH  36  37
ATOM     37  CG  ARG A   3       1.126   4.150  20.450  0.00  0.00    +0.000 C 
BRANCH  37  38
ATOM     38  CD  ARG A   3       0.981   2.832  19.713  0.00  0.00    +0.000 C 
BRANCH  38  39
ATOM     39  NE  ARG A   3       2.266   2.154  19.811  0.00  0.00    +0.000 NA
ATOM     40  CZ  ARG A   3       2.821   1.777  18.716  0.00  0.00    +0.000 C 
ATOM     41  NH1 ARG A   3       2.369   1.928  17.454  0.00  0.00    +0.000 N 
ATOM     42  NH2 ARG A   3       4.025   1.182  18.761  0.00  0.00    +0.000 N 
ATOM     43 HH11 ARG A   3       1.392   2.158  17.341  0.00  0.00    +0.000 HD
ATOM     44 HH12 ARG A   3       2.702   1.270  16.762  0.00  0.00    +0.000 HD
ATOM     45 HH21 ARG A   3       4.257   0.957  19.720  0.00  0.00    +0.000 HD
ATOM     46 HH22 ARG A   3       4.148   0.395  18.147  0.00  0.00    +0.000 HD
ENDBRANCH  38  39
ENDBRANCH  37  38
ENDBRANCH  36  37
ENDBRANCH   1  36
TORSDOF 15
ENDMDL
MODEL 6
REMARK VINA RESULT:      -7.5      1.023      1.486
REMARK  Name = 
REMARK  15 active torsions:
REMARK  status: ('A' for Active; 'I' for Inactive)
REMARK    1  A    between atoms: N_1  and  CA_2
REMARK    2  A    between atoms: CA_2  and  C_3
REMARK    3  A    between atoms: CA_9  and  C_10
REMARK    4  A    between atoms: N_12  and  CA_13
REMARK    5  A    between atoms: CA_13  and  CB_14
REMARK    6  A    between atoms: CA_13  and  C_21
REMARK    7  A    between atoms: CB_14  and  CG_15
REMARK    8  A    between atoms: CG_15  and  CD_16
REMARK    9  A    between atoms: CD_16  and  NE_17
REMARK   10  A    between atoms: N_23  and  C_24
REMARK   11  A    between atoms: C_24  and  C_25
REMARK   12  A    between atoms: C_24  and  C_33
REMARK   13  A    between atoms: C_25  and  C_26
REMARK   14  A    between atoms: C_29  and  N_30
REMARK   15  A    between atoms: C_33  and  O_35
REMARK                            x       y       z     vdW  Elec       q    Type
REMARK                         _______ _______ _______ _____ _____    ______ ____
ROOT
ATOM      1  CA  ARG A   3       2.266   5.820  19.298  0.00  0.00    +0.000 C 
ENDROOT
BRANCH   1   4
ATOM      2  C   PRO A   2       4.156   4.851  17.979  0.00  0.00    +0.000 C 
ATOM      3  O   PRO A   2       3.417   4.452  17.079  0.00  0.00    +0.000 OA
ATOM      4  N   ARG A   3       3.673   5.496  19.090  0.00  0.00    +0.000 N 
ATOM      5  H   ARG A   3       4.338   5.806  19.791  0.00  0.00    +0.000 HD
BRANCH   2  12
ATOM      6  C   GLY A   1       6.471   4.398  15.579  0.00  0.00    +0.000 C 
ATOM      7  O   GLY A   1       5.973   3.275  15.480  0.00  0.00    +0.000 OA
ATOM      8  N   PRO A   2       6.334   5.160  16.723  0.00  0.00    +0.000 N 
ATOM      9  CD  PRO A   2       6.977   6.426  17.003  0.00  0.00    +0.000 C 
ATOM     10  CG  PRO A   2       7.421   6.291  18.443  0.00  0.00    +0.000 C 
ATOM     11  CB  PRO A   2       6.348   5.418  19.089  0.00  0.00    +0.000 C 
ATOM     12  CA  PRO A   2       5.692   4.635  17.936  0.00  0.00    +0.000 C 
BRANCH   6  13
ATOM     13  CA  GLY A   1       7.293   4.996  14.429  0.00  0.00    +0.000 C 
BRANCH  13  14
ATOM     14  N   GLY A   1       6.893   4.384  13.154  0.00  0.00    +0.000 NA
ATOM     15  H1  GLY A   1       6.043   4.834  12.822  0.00  0.00    +0.000 HD
ATOM     16  H2  GLY A   1       6.640   3.410  13.338  0.00  0.00    +0.000 HD
ENDBRANCH  13  14
ENDBRANCH   6  13
ENDBRANCH   2  12
ENDBRANCH   1   4
BRANCH   1  17
ATOM     17  C   ARG A   3       2.089   7.352  19.444  0.00  0.00    +0.000 C 
ATOM     18  O   ARG A   3       2.645   8.167  18.708  0.00  0.00    +0.000 OA
ATOM     19  N   UNK A   4       1.302   7.740  20.506  0.00  0.00    +0.000 N 
ATOM     20  H   UNK A   4       0.912   7.052  21.144  0.00  0.00    +0.000 HD
BRANCH  19  21
ATOM     21  C   UNK A   4       1.151   9.132  20.913  0.00  0.00    +0.000 C 
BRANCH  21  22
ATOM     22  C   UNK A   4       0.566   9.194  22.332  0.00  0.00    +0.000 C 
ATOM     23  O   UNK A   4      -0.596   8.912  22.602  0.00  0.00    +0.000 OA
BRANCH  22  24
ATOM     24  O   UNK A   4       1.447   9.571  23.289  0.00  0.00    +0.000 OA
ATOM     25  H   UNK A   4       2.150  10.182  22.996  0.00  0.00    +0.000 HD
ENDBRANCH  22  24
ENDBRANCH  21  22
BRANCH  21  26
ATOM     26  C   UNK A   4       0.303   9.905  19.907  0.00  0.00    +0.000 C 
BRANCH  26  27
ATOM     27  C   UNK A   4       0.834  11.271  19.541  0.00  0.00    +0.000 A 
ATOM     28  C   UNK A   4       0.494  12.398  20.299  0.00  0.00    +0.000 A 
ATOM     29  C   UNK A   4       1.142  13.615  20.080  0.00  0.00    +0.000 A 
ATOM     30  C   UNK A   4       2.096  13.745  19.071  0.00  0.00    +0.000 A 
ATOM     31  C   UNK A   4       2.394  12.632  18.282  0.00  0.00    +0.000 A 
ATOM     32  C   UNK A   4       1.749  11.411  18.493  0.00  0.00    +0.000 A 
BRANCH  30  33
ATOM     33  N   UNK A   4       2.919  14.875  19.030  0.00  0.00    +0.000 N 
ATOM     34  H   UNK A   4       2.635  15.577  18.355  0.00  0.00    +0.000 HD
ATOM     35  H   UNK A   4       3.911  14.667  18.995  0.00  0.00    +0.000 HD
ENDBRANCH  30  33
ENDBRANCH  26  27
ENDBRANCH  21  26
ENDBRANCH  19  21
ENDBRANCH   1  17
BRANCH   1  36
ATOM     36  CB  ARG A   3       1.715   5.118  20.546  0.00  0.00    +0.000 C 
BRANCH  36  37
ATOM     37  CG  ARG A   3       2.802   4.324  21.275  0.00  0.00    +0.000 C 
BRANCH  37  38
ATOM     38  CD  ARG A   3       2.470   2.844  21.305  0.00  0.00    +0.000 C 
BRANCH  38  39
ATOM     39  NE  ARG A   3       2.587   2.360  19.937  0.00  0.00    +0.000 NA
ATOM     40  CZ  ARG A   3       3.738   1.936  19.555  0.00  0.00    +0.000 C 
ATOM     41  NH1 ARG A   3       4.883   1.872  20.265  0.00  0.00    +0.000 N 
ATOM     42  NH2 ARG A   3       3.877   1.445  18.312  0.00  0.00    +0.000 N 
ATOM     43 HH11 ARG A   3       4.925   2.413  21.116  0.00  0.00    +0.000 HD
ATOM     44 HH12 ARG A   3       5.749   1.885  19.745  0.00  0.00    +0.000 HD
ATOM     45 HH21 ARG A   3       3.045   1.646  17.772  0.00  0.00    +0.000 HD
ATOM     46 HH22 ARG A   3       4.716   1.712  17.827  0.00  0.00    +0.000 HD
ENDBRANCH  38  39
ENDBRANCH  37  38
ENDBRANCH  36  37
ENDBRANCH   1  36
TORSDOF 15
ENDMDL
MODEL 7
REMARK VINA RESULT:      -7.4      2.643      9.187
REMARK  Name = 
REMARK  15 active torsions:
REMARK  status: ('A' for Active; 'I' for Inactive)
REMARK    1  A    between atoms: N_1  and  CA_2
REMARK    2  A    between atoms: CA_2  and  C_3
REMARK    3  A    between atoms: CA_9  and  C_10
REMARK    4  A    between atoms: N_12  and  CA_13
REMARK    5  A    between atoms: CA_13  and  CB_14
REMARK    6  A    between atoms: CA_13  and  C_21
REMARK    7  A    between atoms: CB_14  and  CG_15
REMARK    8  A    between atoms: CG_15  and  CD_16
REMARK    9  A    between atoms: CD_16  and  NE_17
REMARK   10  A    between atoms: N_23  and  C_24
REMARK   11  A    between atoms: C_24  and  C_25
REMARK   12  A    between atoms: C_24  and  C_33
REMARK   13  A    between atoms: C_25  and  C_26
REMARK   14  A    between atoms: C_29  and  N_30
REMARK   15  A    between atoms: C_33  and  O_35
REMARK                            x       y       z     vdW  Elec       q    Type
REMARK                         _______ _______ _______ _____ _____    ______ ____
ROOT
ATOM      1  CA  ARG A   3       1.472   9.093  20.442  0.00  0.00    +0.000 C 
ENDROOT
BRANCH   1   4
ATOM      2  C   PRO A   2       0.942  11.475  19.900  0.00  0.00    +0.000 C 
ATOM      3  O   PRO A   2       1.636  11.913  20.818  0.00  0.00    +0.000 OA
ATOM      4  N   ARG A   3       0.795  10.129  19.671  0.00  0.00    +0.000 N 
ATOM      5  H   ARG A   3       0.214   9.837  18.893  0.00  0.00    +0.000 HD
BRANCH   2  12
ATOM      6  C   GLY A   1      -2.007  11.373  18.283  0.00  0.00    +0.000 C 
ATOM      7  O   GLY A   1      -1.445  10.551  17.559  0.00  0.00    +0.000 OA
ATOM      8  N   PRO A   2      -1.299  12.286  19.040  0.00  0.00    +0.000 N 
ATOM      9  CD  PRO A   2      -1.846  13.375  19.821  0.00  0.00    +0.000 C 
ATOM     10  CG  PRO A   2      -0.918  14.532  19.519  0.00  0.00    +0.000 C 
ATOM     11  CB  PRO A   2       0.448  13.879  19.320  0.00  0.00    +0.000 C 
ATOM     12  CA  PRO A   2       0.161  12.413  18.942  0.00  0.00    +0.000 C 
BRANCH   6  13
ATOM     13  CA  GLY A   1      -3.540  11.436  18.357  0.00  0.00    +0.000 C 
BRANCH  13  14
ATOM     14  N   GLY A   1      -4.077  12.052  17.135  0.00  0.00    +0.000 NA
ATOM     15  H1  GLY A   1      -4.161  13.056  17.280  0.00  0.00    +0.000 HD
ATOM     16  H2  GLY A   1      -5.031  11.707  17.003  0.00  0.00    +0.000 HD
ENDBRANCH  13  14
ENDBRANCH   6  13
ENDBRANCH   2  12
ENDBRANCH   1   4
BRANCH   1  17
ATOM     17  C   ARG A   3       2.001   7.987  19.495  0.00  0.00    +0.000 C 
ATOM     18  O   ARG A   3       2.171   8.158  18.288  0.00  0.00    +0.000 OA
ATOM     19  N   UNK A   4       2.216   6.768  20.101  0.00  0.00    +0.000 N 
ATOM     20  H   UNK A   4       2.001   6.630  21.083  0.00  0.00    +0.000 HD
BRANCH  19  21
ATOM     21  C   UNK A   4       2.549   5.560  19.354  0.00  0.00    +0.000 C 
BRANCH  21  22
ATOM     22  C   UNK A   4       1.679   4.393  19.845  0.00  0.00    +0.000 C 
ATOM     23  O   UNK A   4       1.425   4.184  21.025  0.00  0.00    +0.000 OA
BRANCH  22  24
ATOM     24  O   UNK A   4       1.184   3.606  18.860  0.00  0.00    +0.000 OA
ATOM     25  H   UNK A   4       0.537   4.033  18.267  0.00  0.00    +0.000 HD
ENDBRANCH  22  24
ENDBRANCH  21  22
BRANCH  21  26
ATOM     26  C   UNK A   4       4.040   5.250  19.458  0.00  0.00    +0.000 C 
BRANCH  26  27
ATOM     27  C   UNK A   4       4.816   5.406  18.171  0.00  0.00    +0.000 A 
ATOM     28  C   UNK A   4       5.954   6.218  18.116  0.00  0.00    +0.000 A 
ATOM     29  C   UNK A   4       6.778   6.200  16.989  0.00  0.00    +0.000 A 
ATOM     30  C   UNK A   4       6.454   5.418  15.880  0.00  0.00    +0.000 A 
ATOM     31  C   UNK A   4       5.288   4.650  15.918  0.00  0.00    +0.000 A 
ATOM     32  C   UNK A   4       4.458   4.664  17.041  0.00  0.00    +0.000 A 
BRANCH  30  33
ATOM     33  N   UNK A   4       7.403   5.205  14.876  0.00  0.00    +0.000 N 
ATOM     34  H   UNK A   4       7.180   4.446  14.241  0.00  0.00    +0.000 HD
ATOM     35  H   UNK A   4       8.362   5.178  15.207  0.00  0.00    +0.000 HD
ENDBRANCH  30  33
ENDBRANCH  26  27
ENDBRANCH  21  26
ENDBRANCH  19  21
ENDBRANCH   1  17
BRANCH   1  36
ATOM     36  CB  ARG A   3       0.531   8.472  21.482  0.00  0.00    +0.000 C 
BRANCH  36  37
ATOM     37  CG  ARG A   3       0.534   9.264  22.791  0.00  0.00    +0.000 C 
BRANCH  37  38
ATOM     38  CD  ARG A   3      -0.809   9.928  23.031  0.00  0.00    +0.000 C 
BRANCH  38  39
ATOM     39  NE  ARG A   3      -0.561  11.361  23.101  0.00  0.00    +0.000 NA
ATOM     40  CZ  ARG A   3      -1.577  12.131  23.264  0.00  0.00    +0.000 C 
ATOM     41  NH1 ARG A   3      -2.876  11.786  23.387  0.00  0.00    +0.000 N 
ATOM     42  NH2 ARG A   3      -1.386  13.456  23.372  0.00  0.00    +0.000 N 
ATOM     43 HH11 ARG A   3      -3.131  10.852  23.101  0.00  0.00    +0.000 HD
ATOM     44 HH12 ARG A   3      -3.563  12.480  23.129  0.00  0.00    +0.000 HD
ATOM     45 HH21 ARG A   3      -0.430  13.682  23.129  0.00  0.00    +0.000 HD
ATOM     46 HH22 ARG A   3      -2.048  14.035  22.884  0.00  0.00    +0.000 HD
ENDBRANCH  38  39
ENDBRANCH  37  38
ENDBRANCH  36  37
ENDBRANCH   1  36
TORSDOF 15
ENDMDL
MODEL 8
REMARK VINA RESULT:      -7.4      2.513      4.901
REMARK  Name = 
REMARK  15 active torsions:
REMARK  status: ('A' for Active; 'I' for Inactive)
REMARK    1  A    between atoms: N_1  and  CA_2
REMARK    2  A    between atoms: CA_2  and  C_3
REMARK    3  A    between atoms: CA_9  and  C_10
REMARK    4  A    between atoms: N_12  and  CA_13
REMARK    5  A    between atoms: CA_13  and  CB_14
REMARK    6  A    between atoms: CA_13  and  C_21
REMARK    7  A    between atoms: CB_14  and  CG_15
REMARK    8  A    between atoms: CG_15  and  CD_16
REMARK    9  A    between atoms: CD_16  and  NE_17
REMARK   10  A    between atoms: N_23  and  C_24
REMARK   11  A    between atoms: C_24  and  C_25
REMARK   12  A    between atoms: C_24  and  C_33
REMARK   13  A    between atoms: C_25  and  C_26
REMARK   14  A    between atoms: C_29  and  N_30
REMARK   15  A    between atoms: C_33  and  O_35
REMARK                            x       y       z     vdW  Elec       q    Type
REMARK                         _______ _______ _______ _____ _____    ______ ____
ROOT
ATOM      1  CA  ARG A   3       3.299   7.339  18.606  0.00  0.00    +0.000 C 
ENDROOT
BRANCH   1   4
ATOM      2  C   PRO A   2       1.988   5.727  19.995  0.00  0.00    +0.000 C 
ATOM      3  O   PRO A   2       1.636   6.592  20.797  0.00  0.00    +0.000 OA
ATOM      4  N   ARG A   3       2.807   6.005  18.929  0.00  0.00    +0.000 N 
ATOM      5  H   ARG A   3       3.052   5.246  18.303  0.00  0.00    +0.000 HD
BRANCH   2  12
ATOM      6  C   GLY A   1       2.277   2.923  18.158  0.00  0.00    +0.000 C 
ATOM      7  O   GLY A   1       1.431   3.452  17.435  0.00  0.00    +0.000 OA
ATOM      8  N   PRO A   2       2.443   3.289  19.479  0.00  0.00    +0.000 N 
ATOM      9  CD  PRO A   2       3.307   2.653  20.452  0.00  0.00    +0.000 C 
ATOM     10  CG  PRO A   2       2.453   2.592  21.700  0.00  0.00    +0.000 C 
ATOM     11  CB  PRO A   2       1.587   3.847  21.628  0.00  0.00    +0.000 C 
ATOM     12  CA  PRO A   2       1.547   4.246  20.141  0.00  0.00    +0.000 C 
BRANCH   6  13
ATOM     13  CA  GLY A   1       3.178   1.802  17.619  0.00  0.00    +0.000 C 
BRANCH  13  14
ATOM     14  N   GLY A   1       4.470   2.358  17.191  0.00  0.00    +0.000 NA
ATOM     15  H1  GLY A   1       5.044   1.609  16.810  0.00  0.00    +0.000 HD
ATOM     16  H2  GLY A   1       4.961   2.691  18.024  0.00  0.00    +0.000 HD
ENDBRANCH  13  14
ENDBRANCH   6  13
ENDBRANCH   2  12
ENDBRANCH   1   4
BRANCH   1  17
ATOM     17  C   ARG A   3       2.125   8.243  18.152  0.00  0.00    +0.000 C 
ATOM     18  O   ARG A   3       1.426   7.994  17.170  0.00  0.00    +0.000 OA
ATOM     19  N   UNK A   4       1.960   9.387  18.901  0.00  0.00    +0.000 N 
ATOM     20  H   UNK A   4       2.594   9.608  19.662  0.00  0.00    +0.000 HD
BRANCH  19  21
ATOM     21  C   UNK A   4       1.025  10.445  18.534  0.00  0.00    +0.000 C 
BRANCH  21  22
ATOM     22  C   UNK A   4       1.714  11.811  18.668  0.00  0.00    +0.000 C 
ATOM     23  O   UNK A   4       1.638  12.517  19.668  0.00  0.00    +0.000 OA
BRANCH  22  24
ATOM     24  O   UNK A   4       2.445  12.182  17.590  0.00  0.00    +0.000 OA
ATOM     25  H   UNK A   4       3.394  12.335  17.759  0.00  0.00    +0.000 HD
ENDBRANCH  22  24
ENDBRANCH  21  22
BRANCH  21  26
ATOM     26  C   UNK A   4      -0.250  10.360  19.368  0.00  0.00    +0.000 C 
BRANCH  26  27
ATOM     27  C   UNK A   4      -1.518  10.730  18.636  0.00  0.00    +0.000 A 
ATOM     28  C   UNK A   4      -1.901  10.045  17.476  0.00  0.00    +0.000 A 
ATOM     29  C   UNK A   4      -3.165  10.253  16.922  0.00  0.00    +0.000 A 
ATOM     30  C   UNK A   4      -4.045  11.182  17.477  0.00  0.00    +0.000 A 
ATOM     31  C   UNK A   4      -3.638  11.902  18.602  0.00  0.00    +0.000 A 
ATOM     32  C   UNK A   4      -2.375  11.701  19.163  0.00  0.00    +0.000 A 
BRANCH  30  33
ATOM     33  N   UNK A   4      -5.386  11.195  17.082  0.00  0.00    +0.000 N 
ATOM     34  H   UNK A   4      -5.744  12.112  16.839  0.00  0.00    +0.000 HD
ATOM     35  H   UNK A   4      -6.006  10.675  17.694  0.00  0.00    +0.000 HD
ENDBRANCH  30  33
ENDBRANCH  26  27
ENDBRANCH  21  26
ENDBRANCH  19  21
ENDBRANCH   1  17
BRANCH   1  36
ATOM     36  CB  ARG A   3       4.363   7.285  17.503  0.00  0.00    +0.000 C 
BRANCH  36  37
ATOM     37  CG  ARG A   3       4.438   5.899  16.857  0.00  0.00    +0.000 C 
BRANCH  37  38
ATOM     38  CD  ARG A   3       5.830   5.619  16.324  0.00  0.00    +0.000 C 
BRANCH  38  39
ATOM     39  NE  ARG A   3       5.698   4.541  15.354  0.00  0.00    +0.000 NA
ATOM     40  CZ  ARG A   3       6.550   4.501  14.394  0.00  0.00    +0.000 C 
ATOM     41  NH1 ARG A   3       7.580   5.340  14.154  0.00  0.00    +0.000 N 
ATOM     42  NH2 ARG A   3       6.486   3.500  13.501  0.00  0.00    +0.000 N 
ATOM     43 HH11 ARG A   3       7.569   6.227  14.634  0.00  0.00    +0.000 HD
ATOM     44 HH12 ARG A   3       7.904   5.411  13.199  0.00  0.00    +0.000 HD
ATOM     45 HH21 ARG A   3       5.624   2.986  13.627  0.00  0.00    +0.000 HD
ATOM     46 HH22 ARG A   3       6.634   3.759  12.540  0.00  0.00    +0.000 HD
ENDBRANCH  38  39
ENDBRANCH  37  38
ENDBRANCH  36  37
ENDBRANCH   1  36
TORSDOF 15
ENDMDL
MODEL 9
REMARK VINA RESULT:      -7.3      2.698      9.040
REMARK  Name = 
REMARK  15 active torsions:
REMARK  status: ('A' for Active; 'I' for Inactive)
REMARK    1  A    between atoms: N_1  and  CA_2
REMARK    2  A    between atoms: CA_2  and  C_3
REMARK    3  A    between atoms: CA_9  and  C_10
REMARK    4  A    between atoms: N_12  and  CA_13
REMARK    5  A    between atoms: CA_13  and  CB_14
REMARK    6  A    between atoms: CA_13  and  C_21
REMARK    7  A    between atoms: CB_14  and  CG_15
REMARK    8  A    between atoms: CG_15  and  CD_16
REMARK    9  A    between atoms: CD_16  and  NE_17
REMARK   10  A    between atoms: N_23  and  C_24
REMARK   11  A    between atoms: C_24  and  C_25
REMARK   12  A    between atoms: C_24  and  C_33
REMARK   13  A    between atoms: C_25  and  C_26
REMARK   14  A    between atoms: C_29  and  N_30
REMARK   15  A    between atoms: C_33  and  O_35
REMARK                            x       y       z     vdW  Elec       q    Type
REMARK                         _______ _______ _______ _____ _____    ______ ____
ROOT
ATOM      1  CA  ARG A   3       1.726   8.555  20.073  0.00  0.00    +0.000 C 
ENDROOT
BRANCH   1   4
ATOM      2  C   PRO A   2       0.960  10.866  19.505  0.00  0.00    +0.000 C 
ATOM      3  O   PRO A   2       1.642  11.387  20.388  0.00  0.00    +0.000 OA
ATOM      4  N   ARG A   3       0.929   9.508  19.309  0.00  0.00    +0.000 N 
ATOM      5  H   ARG A   3       0.350   9.146  18.558  0.00  0.00    +0.000 HD
BRANCH   2  12
ATOM      6  C   GLY A   1      -1.929  10.385  17.848  0.00  0.00    +0.000 C 
ATOM      7  O   GLY A   1      -1.248   9.669  17.112  0.00  0.00    +0.000 OA
ATOM      8  N   PRO A   2      -1.366  11.370  18.636  0.00  0.00    +0.000 N 
ATOM      9  CD  PRO A   2      -2.071  12.350  19.434  0.00  0.00    +0.000 C 
ATOM     10  CG  PRO A   2      -1.315  13.634  19.172  0.00  0.00    +0.000 C 
ATOM     11  CB  PRO A   2       0.132  13.188  18.975  0.00  0.00    +0.000 C 
ATOM     12  CA  PRO A   2       0.062  11.707  18.559  0.00  0.00    +0.000 C 
BRANCH   6  13
ATOM     13  CA  GLY A   1      -3.455  10.226  17.904  0.00  0.00    +0.000 C 
BRANCH  13  14
ATOM     14  N   GLY A   1      -4.066  10.820  16.706  0.00  0.00    +0.000 NA
ATOM     15  H1  GLY A   1      -3.477  11.582  16.376  0.00  0.00    +0.000 HD
ATOM     16  H2  GLY A   1      -4.950  11.252  16.985  0.00  0.00    +0.000 HD
ENDBRANCH  13  14
ENDBRANCH   6  13
ENDBRANCH   2  12
ENDBRANCH   1   4
BRANCH   1  17
ATOM     17  C   ARG A   3       2.287   7.458  19.135  0.00  0.00    +0.000 C 
ATOM     18  O   ARG A   3       2.750   7.697  18.020  0.00  0.00    +0.000 OA
ATOM     19  N   UNK A   4       2.175   6.174  19.624  0.00  0.00    +0.000 N 
ATOM     20  H   UNK A   4       1.725   5.994  20.515  0.00  0.00    +0.000 HD
BRANCH  19  21
ATOM     21  C   UNK A   4       2.488   4.994  18.826  0.00  0.00    +0.000 C 
BRANCH  21  22
ATOM     22  C   UNK A   4       1.370   3.953  18.986  0.00  0.00    +0.000 C 
ATOM     23  O   UNK A   4       1.082   3.125  18.128  0.00  0.00    +0.000 OA
BRANCH  22  24
ATOM     24  O   UNK A   4       0.722   3.999  20.175  0.00  0.00    +0.000 OA
ATOM     25  H   UNK A   4       0.431   3.136  20.527  0.00  0.00    +0.000 HD
ENDBRANCH  22  24
ENDBRANCH  21  22
BRANCH  21  26
ATOM     26  C   UNK A   4       3.856   4.430  19.199  0.00  0.00    +0.000 C 
BRANCH  26  27
ATOM     27  C   UNK A   4       4.872   4.427  18.082  0.00  0.00    +0.000 A 
ATOM     28  C   UNK A   4       4.469   4.283  16.749  0.00  0.00    +0.000 A 
ATOM     29  C   UNK A   4       5.383   4.482  15.712  0.00  0.00    +0.000 A 
ATOM     30  C   UNK A   4       6.720   4.772  15.984  0.00  0.00    +0.000 A 
ATOM     31  C   UNK A   4       7.129   4.862  17.316  0.00  0.00    +0.000 A 
ATOM     32  C   UNK A   4       6.221   4.663  18.360  0.00  0.00    +0.000 A 
BRANCH  30  33
ATOM     33  N   UNK A   4       7.558   5.223  14.960  0.00  0.00    +0.000 N 
ATOM     34  H   UNK A   4       8.514   4.890  15.022  0.00  0.00    +0.000 HD
ATOM     35  H   UNK A   4       7.495   6.219  14.777  0.00  0.00    +0.000 HD
ENDBRANCH  30  33
ENDBRANCH  26  27
ENDBRANCH  21  26
ENDBRANCH  19  21
ENDBRANCH   1  17
BRANCH   1  36
ATOM     36  CB  ARG A   3       0.894   7.905  21.186  0.00  0.00    +0.000 C 
BRANCH  36  37
ATOM     37  CG  ARG A   3      -0.296   8.780  21.587  0.00  0.00    +0.000 C 
BRANCH  37  38
ATOM     38  CD  ARG A   3       0.010   9.577  22.841  0.00  0.00    +0.000 C 
BRANCH  38  39
ATOM     39  NE  ARG A   3      -1.232  10.223  23.240  0.00  0.00    +0.000 NA
ATOM     40  CZ  ARG A   3      -1.343  11.483  23.016  0.00  0.00    +0.000 C 
ATOM     41  NH1 ARG A   3      -0.446  12.313  22.444  0.00  0.00    +0.000 N 
ATOM     42  NH2 ARG A   3      -2.488  12.108  23.334  0.00  0.00    +0.000 N 
ATOM     43 HH11 ARG A   3       0.506  11.983  22.378  0.00  0.00    +0.000 HD
ATOM     44 HH12 ARG A   3      -0.509  13.294  22.679  0.00  0.00    +0.000 HD
ATOM     45 HH21 ARG A   3      -3.069  11.492  23.889  0.00  0.00    +0.000 HD
ATOM     46 HH22 ARG A   3      -2.390  13.016  23.757  0.00  0.00    +0.000 HD
ENDBRANCH  38  39
ENDBRANCH  37  38
ENDBRANCH  36  37
ENDBRANCH   1  36
TORSDOF 15
ENDMDL
