MODEL 1
REMARK VINA RESULT:      -5.7      0.000      0.000
REMARK  Name = 
REMARK  2 active torsions:
REMARK  status: ('A' for Active; 'I' for Inactive)
REMARK    1  A    between atoms: N_1  and  C_2
REMARK    2  A    between atoms: C_2  and  C_3
REMARK                            x       y       z     vdW  Elec       q    Type
REMARK                         _______ _______ _______ _____ _____    ______ ____
ROOT
ATOM      1  C   UNL     1       5.912   5.124  18.811  0.00  0.00    +0.000 A 
ATOM      2  N   UNL     1       5.592   3.907  19.215  0.00  0.00    +0.000 NA
ATOM      3  C   UNL     1       4.279   3.648  18.882  0.00  0.00    +0.000 A 
ATOM      4  C   UNL     1       3.613   4.676  18.248  0.00  0.00    +0.000 A 
ATOM      5  S   UNL     1       4.645   6.010  18.043  0.00  0.00    +0.000 S 
ATOM      6  C   UNL     1       2.208   4.621  17.754  0.00  0.00    +0.000 C 
ATOM      7  C   UNL     1       1.481   3.394  18.337  0.00  0.00    +0.000 C 
ATOM      8  C   UNL     1       2.368   2.137  18.345  0.00  0.00    +0.000 C 
ATOM      9  C   UNL     1       3.634   2.340  19.197  0.00  0.00    +0.000 C 
ENDROOT
BRANCH   1  10
ATOM     10  C   UNL     1       7.277   5.735  18.966  0.00  0.00    +0.000 C 
BRANCH  10  11
ATOM     11  N   UNL     1       7.861   5.456  20.282  0.00  0.00    +0.000 NA
ATOM     12  H   UNL     1       7.108   5.323  20.953  0.00  0.00    +0.000 HD
ATOM     13  H   UNL     1       8.364   6.293  20.580  0.00  0.00    +0.000 HD
ENDBRANCH  10  11
ENDBRANCH   1  10
TORSDOF 2
ENDMDL
MODEL 2
REMARK VINA RESULT:      -5.6      1.219      1.256
REMARK  Name = 
REMARK  2 active torsions:
REMARK  status: ('A' for Active; 'I' for Inactive)
REMARK    1  A    between atoms: N_1  and  C_2
REMARK    2  A    between atoms: C_2  and  C_3
REMARK                            x       y       z     vdW  Elec       q    Type
REMARK                         _______ _______ _______ _____ _____    ______ ____
ROOT
ATOM      1  C   UNL     1       5.789   4.611  18.302  0.00  0.00    +0.000 A 
ATOM      2  N   UNL     1       5.380   3.791  19.255  0.00  0.00    +0.000 NA
ATOM      3  C   UNL     1       4.033   3.544  19.095  0.00  0.00    +0.000 A 
ATOM      4  C   UNL     1       3.431   4.194  18.038  0.00  0.00    +0.000 A 
ATOM      5  S   UNL     1       4.569   5.138  17.200  0.00  0.00    +0.000 S 
ATOM      6  C   UNL     1       2.002   4.056  17.638  0.00  0.00    +0.000 C 
ATOM      7  C   UNL     1       1.198   3.358  18.751  0.00  0.00    +0.000 C 
ATOM      8  C   UNL     1       1.965   2.179  19.376  0.00  0.00    +0.000 C 
ATOM      9  C   UNL     1       3.288   2.637  20.015  0.00  0.00    +0.000 C 
ENDROOT
BRANCH   1  10
ATOM     10  C   UNL     1       7.210   5.070  18.133  0.00  0.00    +0.000 C 
BRANCH  10  11
ATOM     11  N   UNL     1       7.963   4.209  17.213  0.00  0.00    +0.000 NA
ATOM     12  H   UNL     1       8.284   4.772  16.429  0.00  0.00    +0.000 HD
ATOM     13  H   UNL     1       7.311   3.525  16.826  0.00  0.00    +0.000 HD
ENDBRANCH  10  11
ENDBRANCH   1  10
TORSDOF 2
ENDMDL
MODEL 3
REMARK VINA RESULT:      -5.5      1.722      1.978
REMARK  Name = 
REMARK  2 active torsions:
REMARK  status: ('A' for Active; 'I' for Inactive)
REMARK    1  A    between atoms: N_1  and  C_2
REMARK    2  A    between atoms: C_2  and  C_3
REMARK                            x       y       z     vdW  Elec       q    Type
REMARK                         _______ _______ _______ _____ _____    ______ ____
ROOT
ATOM      1  C   UNL     1       5.012   4.302  17.956  0.00  0.00    +0.000 A 
ATOM      2  N   UNL     1       4.226   3.282  17.663  0.00  0.00    +0.000 NA
ATOM      3  C   UNL     1       3.136   3.290  18.508  0.00  0.00    +0.000 A 
ATOM      4  C   UNL     1       3.119   4.303  19.445  0.00  0.00    +0.000 A 
ATOM      5  S   UNL     1       4.490   5.290  19.272  0.00  0.00    +0.000 S 
ATOM      6  C   UNL     1       2.033   4.546  20.437  0.00  0.00    +0.000 C 
ATOM      7  C   UNL     1       1.092   3.328  20.510  0.00  0.00    +0.000 C 
ATOM      8  C   UNL     1       0.781   2.742  19.122  0.00  0.00    +0.000 C 
ATOM      9  C   UNL     1       2.059   2.263  18.409  0.00  0.00    +0.000 C 
ENDROOT
BRANCH   1  10
ATOM     10  C   UNL     1       6.276   4.637  17.213  0.00  0.00    +0.000 C 
BRANCH  10  11
ATOM     11  N   UNL     1       7.477   4.313  17.991  0.00  0.00    +0.000 NA
ATOM     12  H   UNL     1       7.945   5.179  18.246  0.00  0.00    +0.000 HD
ATOM     13  H   UNL     1       8.118   3.812  17.375  0.00  0.00    +0.000 HD
ENDBRANCH  10  11
ENDBRANCH   1  10
TORSDOF 2
ENDMDL
MODEL 4
REMARK VINA RESULT:      -5.5      1.317      1.524
REMARK  Name = 
REMARK  2 active torsions:
REMARK  status: ('A' for Active; 'I' for Inactive)
REMARK    1  A    between atoms: N_1  and  C_2
REMARK    2  A    between atoms: C_2  and  C_3
REMARK                            x       y       z     vdW  Elec       q    Type
REMARK                         _______ _______ _______ _____ _____    ______ ____
ROOT
ATOM      1  C   UNL     1       6.027   5.257  18.794  0.00  0.00    +0.000 A 
ATOM      2  N   UNL     1       5.077   5.487  19.684  0.00  0.00    +0.000 NA
ATOM      3  C   UNL     1       3.890   4.952  19.230  0.00  0.00    +0.000 A 
ATOM      4  C   UNL     1       3.947   4.343  17.993  0.00  0.00    +0.000 A 
ATOM      5  S   UNL     1       5.525   4.420  17.370  0.00  0.00    +0.000 S 
ATOM      6  C   UNL     1       2.811   3.659  17.313  0.00  0.00    +0.000 C 
ATOM      7  C   UNL     1       1.481   4.008  18.007  0.00  0.00    +0.000 C 
ATOM      8  C   UNL     1       1.603   4.007  19.541  0.00  0.00    +0.000 C 
ATOM      9  C   UNL     1       2.634   5.040  20.030  0.00  0.00    +0.000 C 
ENDROOT
BRANCH   1  10
ATOM     10  C   UNL     1       7.465   5.659  18.968  0.00  0.00    +0.000 C 
BRANCH  10  11
ATOM     11  N   UNL     1       7.935   5.448  20.342  0.00  0.00    +0.000 NA
ATOM     12  H   UNL     1       8.226   6.342  20.729  0.00  0.00    +0.000 HD
ATOM     13  H   UNL     1       8.775   4.870  20.295  0.00  0.00    +0.000 HD
ENDBRANCH  10  11
ENDBRANCH   1  10
TORSDOF 2
ENDMDL
MODEL 5
REMARK VINA RESULT:      -5.4      1.865      2.125
REMARK  Name = 
REMARK  2 active torsions:
REMARK  status: ('A' for Active; 'I' for Inactive)
REMARK    1  A    between atoms: N_1  and  C_2
REMARK    2  A    between atoms: C_2  and  C_3
REMARK                            x       y       z     vdW  Elec       q    Type
REMARK                         _______ _______ _______ _____ _____    ______ ____
ROOT
ATOM      1  C   UNL     1       5.003   4.806  18.469  0.00  0.00    +0.000 A 
ATOM      2  N   UNL     1       4.356   5.170  19.562  0.00  0.00    +0.000 NA
ATOM      3  C   UNL     1       3.198   4.428  19.673  0.00  0.00    +0.000 A 
ATOM      4  C   UNL     1       2.971   3.527  18.653  0.00  0.00    +0.000 A 
ATOM      5  S   UNL     1       4.235   3.585  17.520  0.00  0.00    +0.000 S 
ATOM      6  C   UNL     1       1.816   2.587  18.571  0.00  0.00    +0.000 C 
ATOM      7  C   UNL     1       0.731   2.980  19.592  0.00  0.00    +0.000 C 
ATOM      8  C   UNL     1       1.326   3.388  20.952  0.00  0.00    +0.000 C 
ATOM      9  C   UNL     1       2.261   4.604  20.820  0.00  0.00    +0.000 C 
ENDROOT
BRANCH   1  10
ATOM     10  C   UNL     1       6.330   5.371  18.045  0.00  0.00    +0.000 C 
BRANCH  10  11
ATOM     11  N   UNL     1       7.386   4.352  18.030  0.00  0.00    +0.000 NA
ATOM     12  H   UNL     1       8.283   4.813  17.904  0.00  0.00    +0.000 HD
ATOM     13  H   UNL     1       7.244   3.771  17.202  0.00  0.00    +0.000 HD
ENDBRANCH  10  11
ENDBRANCH   1  10
TORSDOF 2
ENDMDL
MODEL 6
REMARK VINA RESULT:      -5.2      2.041      2.240
REMARK  Name = 
REMARK  2 active torsions:
REMARK  status: ('A' for Active; 'I' for Inactive)
REMARK    1  A    between atoms: N_1  and  C_2
REMARK    2  A    between atoms: C_2  and  C_3
REMARK                            x       y       z     vdW  Elec       q    Type
REMARK                         _______ _______ _______ _____ _____    ______ ____
ROOT
ATOM      1  C   UNL     1       6.003   4.523  17.684  0.00  0.00    +0.000 A 
ATOM      2  N   UNL     1       5.036   3.905  17.029  0.00  0.00    +0.000 NA
ATOM      3  C   UNL     1       3.871   3.977  17.765  0.00  0.00    +0.000 A 
ATOM      4  C   UNL     1       3.974   4.626  18.977  0.00  0.00    +0.000 A 
ATOM      5  S   UNL     1       5.561   5.183  19.217  0.00  0.00    +0.000 S 
ATOM      6  C   UNL     1       2.851   4.867  19.928  0.00  0.00    +0.000 C 
ATOM      7  C   UNL     1       1.631   4.006  19.545  0.00  0.00    +0.000 C 
ATOM      8  C   UNL     1       1.391   3.972  18.026  0.00  0.00    +0.000 C 
ATOM      9  C   UNL     1       2.596   3.380  17.273  0.00  0.00    +0.000 C 
ENDROOT
BRANCH   1  10
ATOM     10  C   UNL     1       7.406   4.684  17.167  0.00  0.00    +0.000 C 
BRANCH  10  11
ATOM     11  N   UNL     1       7.454   4.720  15.701  0.00  0.00    +0.000 NA
ATOM     12  H   UNL     1       6.585   4.337  15.336  0.00  0.00    +0.000 HD
ATOM     13  H   UNL     1       8.194   4.084  15.401  0.00  0.00    +0.000 HD
ENDBRANCH  10  11
ENDBRANCH   1  10
TORSDOF 2
ENDMDL
MODEL 7
REMARK VINA RESULT:      -5.2      1.748      1.796
REMARK  Name = 
REMARK  2 active torsions:
REMARK  status: ('A' for Active; 'I' for Inactive)
REMARK    1  A    between atoms: N_1  and  C_2
REMARK    2  A    between atoms: C_2  and  C_3
REMARK                            x       y       z     vdW  Elec       q    Type
REMARK                         _______ _______ _______ _____ _____    ______ ____
ROOT
ATOM      1  C   UNL     1       5.685   4.580  17.979  0.00  0.00    +0.000 A 
ATOM      2  N   UNL     1       5.378   3.544  18.742  0.00  0.00    +0.000 NA
ATOM      3  C   UNL     1       4.190   3.797  19.394  0.00  0.00    +0.000 A 
ATOM      4  C   UNL     1       3.621   5.027  19.137  0.00  0.00    +0.000 A 
ATOM      5  S   UNL     1       4.578   5.903  18.040  0.00  0.00    +0.000 S 
ATOM      6  C   UNL     1       2.323   5.511  19.688  0.00  0.00    +0.000 C 
ATOM      7  C   UNL     1       1.860   4.606  20.845  0.00  0.00    +0.000 C 
ATOM      8  C   UNL     1       2.087   3.113  20.548  0.00  0.00    +0.000 C 
ATOM      9  C   UNL     1       3.577   2.800  20.319  0.00  0.00    +0.000 C 
ENDROOT
BRANCH   1  10
ATOM     10  C   UNL     1       6.893   4.644  17.087  0.00  0.00    +0.000 C 
BRANCH  10  11
ATOM     11  N   UNL     1       8.102   4.149  17.755  0.00  0.00    +0.000 NA
ATOM     12  H   UNL     1       7.847   3.366  18.352  0.00  0.00    +0.000 HD
ATOM     13  H   UNL     1       8.435   4.886  18.377  0.00  0.00    +0.000 HD
ENDBRANCH  10  11
ENDBRANCH   1  10
TORSDOF 2
ENDMDL
MODEL 8
REMARK VINA RESULT:      -5.1      3.613      4.792
REMARK  Name = 
REMARK  2 active torsions:
REMARK  status: ('A' for Active; 'I' for Inactive)
REMARK    1  A    between atoms: N_1  and  C_2
REMARK    2  A    between atoms: C_2  and  C_3
REMARK                            x       y       z     vdW  Elec       q    Type
REMARK                         _______ _______ _______ _____ _____    ______ ____
ROOT
ATOM      1  C   UNL     1       7.003   4.966  14.796  0.00  0.00    +0.000 A 
ATOM      2  N   UNL     1       7.576   5.757  15.686  0.00  0.00    +0.000 NA
ATOM      3  C   UNL     1       6.999   5.546  16.920  0.00  0.00    +0.000 A 
ATOM      4  C   UNL     1       5.981   4.615  16.949  0.00  0.00    +0.000 A 
ATOM      5  S   UNL     1       5.734   3.964  15.399  0.00  0.00    +0.000 S 
ATOM      6  C   UNL     1       5.235   4.186  18.166  0.00  0.00    +0.000 C 
ATOM      7  C   UNL     1       5.509   5.154  19.332  0.00  0.00    +0.000 C 
ATOM      8  C   UNL     1       6.989   5.569  19.415  0.00  0.00    +0.000 C 
ATOM      9  C   UNL     1       7.449   6.288  18.134  0.00  0.00    +0.000 C 
ENDROOT
BRANCH   1  10
ATOM     10  C   UNL     1       7.405   4.890  13.349  0.00  0.00    +0.000 C 
BRANCH  10  11
ATOM     11  N   UNL     1       8.470   5.845  13.020  0.00  0.00    +0.000 NA
ATOM     12  H   UNL     1       9.368   5.379  13.121  0.00  0.00    +0.000 HD
ATOM     13  H   UNL     1       8.451   6.584  13.724  0.00  0.00    +0.000 HD
ENDBRANCH  10  11
ENDBRANCH   1  10
TORSDOF 2
ENDMDL
MODEL 9
REMARK VINA RESULT:      -5.1      2.470      2.645
REMARK  Name = 
REMARK  2 active torsions:
REMARK  status: ('A' for Active; 'I' for Inactive)
REMARK    1  A    between atoms: N_1  and  C_2
REMARK    2  A    between atoms: C_2  and  C_3
REMARK                            x       y       z     vdW  Elec       q    Type
REMARK                         _______ _______ _______ _____ _____    ______ ____
ROOT
ATOM      1  C   UNL     1       4.305   4.840  17.044  0.00  0.00    +0.000 A 
ATOM      2  N   UNL     1       3.768   3.633  17.065  0.00  0.00    +0.000 NA
ATOM      3  C   UNL     1       2.832   3.570  18.076  0.00  0.00    +0.000 A 
ATOM      4  C   UNL     1       2.686   4.721  18.822  0.00  0.00    +0.000 A 
ATOM      5  S   UNL     1       3.731   5.932  18.251  0.00  0.00    +0.000 S 
ATOM      6  C   UNL     1       1.713   4.912  19.935  0.00  0.00    +0.000 C 
ATOM      7  C   UNL     1       1.125   3.557  20.373  0.00  0.00    +0.000 C 
ATOM      8  C   UNL     1       0.792   2.649  19.176  0.00  0.00    +0.000 C 
ATOM      9  C   UNL     1       2.044   2.331  18.338  0.00  0.00    +0.000 C 
ENDROOT
BRANCH   1  10
ATOM     10  C   UNL     1       5.336   5.289  16.046  0.00  0.00    +0.000 C 
BRANCH  10  11
ATOM     11  N   UNL     1       5.188   6.707  15.697  0.00  0.00    +0.000 NA
ATOM     12  H   UNL     1       4.231   6.992  15.890  0.00  0.00    +0.000 HD
ATOM     13  H   UNL     1       5.314   6.792  14.688  0.00  0.00    +0.000 HD
ENDBRANCH  10  11
ENDBRANCH   1  10
TORSDOF 2
ENDMDL
