MODEL 1
REMARK VINA RESULT:      -8.3      0.000      0.000
REMARK  Name = 
REMARK  12 active torsions:
REMARK  status: ('A' for Active; 'I' for Inactive)
REMARK    1  A    between atoms: C_2  and  C_3
REMARK    2  A    between atoms: C_4  and  C_5
REMARK    3  A    between atoms: C_9  and  N_10
REMARK    4  A    between atoms: C_11  and  C_13
REMARK    5  A    between atoms: C_13  and  O_14
REMARK    6  A    between atoms: C_13  and  C_15
REMARK    7  A    between atoms: C_15  and  C_16
REMARK    8  A    between atoms: C_16  and  C_17
REMARK    9  A    between atoms: C_17  and  O_19
REMARK   10  A    between atoms: C_22  and  C_23
REMARK   11  A    between atoms: C_28  and  O_29
REMARK   12  A    between atoms: C_31  and  N_32
REMARK                            x       y       z     vdW  Elec       q    Type
REMARK                         _______ _______ _______ _____ _____    ______ ____
ROOT
ATOM      1  C   UNL     1       3.545   4.241  19.478  0.00  0.00    +0.000 A 
ATOM      2  C   UNL     1       4.089   5.161  18.559  0.00  0.00    +0.000 A 
ATOM      3  C   UNL     1       3.501   6.437  18.523  0.00  0.00    +0.000 A 
ATOM      4  C   UNL     1       2.465   6.787  19.385  0.00  0.00    +0.000 A 
ATOM      5  N   UNL     1       1.955   5.881  20.257  0.00  0.00    +0.000 NA
ATOM      6  C   UNL     1       2.479   4.640  20.291  0.00  0.00    +0.000 A 
ENDROOT
BRANCH   2   7
ATOM      7  C   UNL     1       5.196   4.861  17.611  0.00  0.00    +0.000 A 
ATOM      8  C   UNL     1       6.538   4.926  18.015  0.00  0.00    +0.000 A 
ATOM      9  C   UNL     1       7.574   4.643  17.129  0.00  0.00    +0.000 A 
ATOM     10  C   UNL     1       7.289   4.217  15.837  0.00  0.00    +0.000 A 
ATOM     11  C   UNL     1       5.971   4.070  15.409  0.00  0.00    +0.000 A 
ATOM     12  C   UNL     1       4.936   4.431  16.286  0.00  0.00    +0.000 A 
BRANCH  11  13
ATOM     13  N   UNL     1       5.634   3.546  14.137  0.00  0.00    +0.000 N 
ATOM     14  C   UNL     1       6.324   3.791  12.962  0.00  0.00    +0.000 C 
ATOM     15  O   UNL     1       7.292   4.539  12.827  0.00  0.00    +0.000 OA
ATOM     16  H   UNL     1       4.919   2.826  14.113  0.00  0.00    +0.000 HD
BRANCH  14  17
ATOM     17  C   UNL     1       5.775   3.048  11.732  0.00  0.00    +0.000 C 
BRANCH  17  18
ATOM     18  O   UNL     1       6.133   1.669  11.826  0.00  0.00    +0.000 OA
ATOM     19  H   UNL     1       6.097   1.432  12.773  0.00  0.00    +0.000 HD
ENDBRANCH  17  18
BRANCH  17  20
ATOM     20  C   UNL     1       4.240   3.145  11.678  0.00  0.00    +0.000 C 
BRANCH  20  21
ATOM     21  C   UNL     1       3.730   4.298  10.820  0.00  0.00    +0.000 C 
BRANCH  21  22
ATOM     22  C   UNL     1       3.017   3.779   9.597  0.00  0.00    +0.000 C 
ATOM     23  O   UNL     1       2.700   2.609   9.449  0.00  0.00    +0.000 OA
BRANCH  22  24
ATOM     24  O   UNL     1       2.689   4.746   8.717  0.00  0.00    +0.000 OA
ATOM     25  H   UNL     1       2.084   5.425   9.070  0.00  0.00    +0.000 HD
ENDBRANCH  22  24
ENDBRANCH  21  22
ENDBRANCH  20  21
ENDBRANCH  17  20
ENDBRANCH  14  17
ENDBRANCH  11  13
ENDBRANCH   2   7
BRANCH   4  26
ATOM     26  C   UNL     1       1.798   8.111  19.350  0.00  0.00    +0.000 A 
ATOM     27  C   UNL     1       1.626   8.767  18.113  0.00  0.00    +0.000 A 
ATOM     28  C   UNL     1       1.064  10.045  18.022  0.00  0.00    +0.000 A 
ATOM     29  C   UNL     1       0.651  10.705  19.174  0.00  0.00    +0.000 A 
ATOM     30  C   UNL     1       0.782  10.081  20.411  0.00  0.00    +0.000 A 
ATOM     31  C   UNL     1       1.339   8.799  20.495  0.00  0.00    +0.000 A 
BRANCH  31  32
ATOM     32  O   UNL     1       1.417   8.214  21.733  0.00  0.00    +0.000 OA
ATOM     33  H   UNL     1       1.963   8.771  22.314  0.00  0.00    +0.000 HD
ENDBRANCH  31  32
ENDBRANCH   4  26
BRANCH   6  34
ATOM     34  N   UNL     1       1.798   3.751  21.125  0.00  0.00    +0.000 N 
ATOM     35  H   UNL     1       1.040   3.333  20.594  0.00  0.00    +0.000 HD
ATOM     36  H   UNL     1       1.491   4.148  22.006  0.00  0.00    +0.000 HD
ENDBRANCH   6  34
BRANCH   1  38
ATOM     37  N   UNL     1       4.447   1.818  19.708  0.00  0.00    +0.000 NA
ATOM     38  C   UNL     1       4.045   2.906  19.616  0.00  0.00    +0.000 C 
ENDBRANCH   1  38
TORSDOF 12
ENDMDL
MODEL 2
REMARK VINA RESULT:      -8.1      1.023      1.469
REMARK  Name = 
REMARK  12 active torsions:
REMARK  status: ('A' for Active; 'I' for Inactive)
REMARK    1  A    between atoms: C_2  and  C_3
REMARK    2  A    between atoms: C_4  and  C_5
REMARK    3  A    between atoms: C_9  and  N_10
REMARK    4  A    between atoms: C_11  and  C_13
REMARK    5  A    between atoms: C_13  and  O_14
REMARK    6  A    between atoms: C_13  and  C_15
REMARK    7  A    between atoms: C_15  and  C_16
REMARK    8  A    between atoms: C_16  and  C_17
REMARK    9  A    between atoms: C_17  and  O_19
REMARK   10  A    between atoms: C_22  and  C_23
REMARK   11  A    between atoms: C_28  and  O_29
REMARK   12  A    between atoms: C_31  and  N_32
REMARK                            x       y       z     vdW  Elec       q    Type
REMARK                         _______ _______ _______ _____ _____    ______ ____
ROOT
ATOM      1  C   UNL     1       3.004   3.864  19.128  0.00  0.00    +0.000 A 
ATOM      2  C   UNL     1       3.810   4.910  18.637  0.00  0.00    +0.000 A 
ATOM      3  C   UNL     1       3.390   6.219  18.928  0.00  0.00    +0.000 A 
ATOM      4  C   UNL     1       2.259   6.466  19.702  0.00  0.00    +0.000 A 
ATOM      5  N   UNL     1       1.496   5.441  20.159  0.00  0.00    +0.000 NA
ATOM      6  C   UNL     1       1.858   4.176  19.869  0.00  0.00    +0.000 A 
ENDROOT
BRANCH   2   7
ATOM      7  C   UNL     1       5.032   4.723  17.808  0.00  0.00    +0.000 A 
ATOM      8  C   UNL     1       6.315   4.825  18.368  0.00  0.00    +0.000 A 
ATOM      9  C   UNL     1       7.458   4.648  17.594  0.00  0.00    +0.000 A 
ATOM     10  C   UNL     1       7.343   4.292  16.254  0.00  0.00    +0.000 A 
ATOM     11  C   UNL     1       6.092   4.111  15.668  0.00  0.00    +0.000 A 
ATOM     12  C   UNL     1       4.947   4.366  16.439  0.00  0.00    +0.000 A 
BRANCH  11  13
ATOM     13  N   UNL     1       5.929   3.654  14.338  0.00  0.00    +0.000 N 
ATOM     14  C   UNL     1       6.588   4.162  13.231  0.00  0.00    +0.000 C 
ATOM     15  O   UNL     1       7.364   5.117  13.219  0.00  0.00    +0.000 OA
ATOM     16  H   UNL     1       5.398   2.799  14.209  0.00  0.00    +0.000 HD
BRANCH  14  17
ATOM     17  C   UNL     1       6.267   3.441  11.911  0.00  0.00    +0.000 C 
BRANCH  17  18
ATOM     18  O   UNL     1       6.948   2.186  11.890  0.00  0.00    +0.000 OA
ATOM     19  H   UNL     1       6.329   1.536  11.506  0.00  0.00    +0.000 HD
ENDBRANCH  17  18
BRANCH  17  20
ATOM     20  C   UNL     1       4.756   3.171  11.791  0.00  0.00    +0.000 C 
BRANCH  20  21
ATOM     21  C   UNL     1       4.004   4.246  11.013  0.00  0.00    +0.000 C 
BRANCH  21  22
ATOM     22  C   UNL     1       3.104   3.622   9.975  0.00  0.00    +0.000 C 
ATOM     23  O   UNL     1       2.699   4.218   8.989  0.00  0.00    +0.000 OA
BRANCH  22  24
ATOM     24  O   UNL     1       2.858   2.315  10.195  0.00  0.00    +0.000 OA
ATOM     25  H   UNL     1       3.623   1.728  10.044  0.00  0.00    +0.000 HD
ENDBRANCH  22  24
ENDBRANCH  21  22
ENDBRANCH  20  21
ENDBRANCH  17  20
ENDBRANCH  14  17
ENDBRANCH  11  13
ENDBRANCH   2   7
BRANCH   4  26
ATOM     26  C   UNL     1       1.766   7.834  19.998  0.00  0.00    +0.000 A 
ATOM     27  C   UNL     1       1.427   8.175  21.325  0.00  0.00    +0.000 A 
ATOM     28  C   UNL     1       0.894   9.425  21.656  0.00  0.00    +0.000 A 
ATOM     29  C   UNL     1       0.689  10.377  20.664  0.00  0.00    +0.000 A 
ATOM     30  C   UNL     1       1.033  10.087  19.348  0.00  0.00    +0.000 A 
ATOM     31  C   UNL     1       1.572   8.836  19.023  0.00  0.00    +0.000 A 
BRANCH  31  32
ATOM     32  O   UNL     1       1.925   8.609  17.716  0.00  0.00    +0.000 OA
ATOM     33  H   UNL     1       1.138   8.328  17.219  0.00  0.00    +0.000 HD
ENDBRANCH  31  32
ENDBRANCH   4  26
BRANCH   6  34
ATOM     34  N   UNL     1       0.938   3.207  20.271  0.00  0.00    +0.000 N 
ATOM     35  H   UNL     1       0.003   3.565  20.101  0.00  0.00    +0.000 HD
ATOM     36  H   UNL     1       1.065   2.870  21.219  0.00  0.00    +0.000 HD
ENDBRANCH   6  34
BRANCH   1  38
ATOM     37  N   UNL     1       3.545   1.357  18.726  0.00  0.00    +0.000 NA
ATOM     38  C   UNL     1       3.313   2.484  18.903  0.00  0.00    +0.000 C 
ENDBRANCH   1  38
TORSDOF 12
ENDMDL
MODEL 3
REMARK VINA RESULT:      -7.8      1.927      2.427
REMARK  Name = 
REMARK  12 active torsions:
REMARK  status: ('A' for Active; 'I' for Inactive)
REMARK    1  A    between atoms: C_2  and  C_3
REMARK    2  A    between atoms: C_4  and  C_5
REMARK    3  A    between atoms: C_9  and  N_10
REMARK    4  A    between atoms: C_11  and  C_13
REMARK    5  A    between atoms: C_13  and  O_14
REMARK    6  A    between atoms: C_13  and  C_15
REMARK    7  A    between atoms: C_15  and  C_16
REMARK    8  A    between atoms: C_16  and  C_17
REMARK    9  A    between atoms: C_17  and  O_19
REMARK   10  A    between atoms: C_22  and  C_23
REMARK   11  A    between atoms: C_28  and  O_29
REMARK   12  A    between atoms: C_31  and  N_32
REMARK                            x       y       z     vdW  Elec       q    Type
REMARK                         _______ _______ _______ _____ _____    ______ ____
ROOT
ATOM      1  C   UNL     1       2.883   4.320  19.771  0.00  0.00    +0.000 A 
ATOM      2  C   UNL     1       3.624   5.410  19.271  0.00  0.00    +0.000 A 
ATOM      3  C   UNL     1       3.113   6.693  19.534  0.00  0.00    +0.000 A 
ATOM      4  C   UNL     1       1.959   6.876  20.292  0.00  0.00    +0.000 A 
ATOM      5  N   UNL     1       1.260   5.810  20.758  0.00  0.00    +0.000 NA
ATOM      6  C   UNL     1       1.710   4.567  20.493  0.00  0.00    +0.000 A 
ENDROOT
BRANCH   2   7
ATOM      7  C   UNL     1       4.865   5.292  18.459  0.00  0.00    +0.000 A 
ATOM      8  C   UNL     1       6.134   5.339  19.057  0.00  0.00    +0.000 A 
ATOM      9  C   UNL     1       7.295   5.227  18.298  0.00  0.00    +0.000 A 
ATOM     10  C   UNL     1       7.214   4.991  16.930  0.00  0.00    +0.000 A 
ATOM     11  C   UNL     1       5.977   4.867  16.300  0.00  0.00    +0.000 A 
ATOM     12  C   UNL     1       4.813   5.058  17.062  0.00  0.00    +0.000 A 
BRANCH  11  13
ATOM     13  N   UNL     1       5.846   4.529  14.931  0.00  0.00    +0.000 N 
ATOM     14  C   UNL     1       6.756   4.851  13.937  0.00  0.00    +0.000 C 
ATOM     15  O   UNL     1       7.778   5.523  14.074  0.00  0.00    +0.000 OA
ATOM     16  H   UNL     1       5.103   3.883  14.688  0.00  0.00    +0.000 HD
BRANCH  14  17
ATOM     17  C   UNL     1       6.396   4.311  12.543  0.00  0.00    +0.000 C 
BRANCH  17  18
ATOM     18  O   UNL     1       7.592   4.173  11.776  0.00  0.00    +0.000 OA
ATOM     19  H   UNL     1       7.560   4.856  11.079  0.00  0.00    +0.000 HD
ENDBRANCH  17  18
BRANCH  17  20
ATOM     20  C   UNL     1       5.730   2.928  12.650  0.00  0.00    +0.000 C 
BRANCH  20  21
ATOM     21  C   UNL     1       5.527   2.242  11.303  0.00  0.00    +0.000 C 
BRANCH  21  22
ATOM     22  C   UNL     1       6.595   1.204  11.066  0.00  0.00    +0.000 C 
ATOM     23  O   UNL     1       7.771   1.478  10.887  0.00  0.00    +0.000 OA
BRANCH  22  24
ATOM     24  O   UNL     1       6.142  -0.062  11.155  0.00  0.00    +0.000 OA
ATOM     25  H   UNL     1       5.642  -0.368  10.374  0.00  0.00    +0.000 HD
ENDBRANCH  22  24
ENDBRANCH  21  22
ENDBRANCH  20  21
ENDBRANCH  17  20
ENDBRANCH  14  17
ENDBRANCH  11  13
ENDBRANCH   2   7
BRANCH   4  26
ATOM     26  C   UNL     1       1.371   8.212  20.559  0.00  0.00    +0.000 A 
ATOM     27  C   UNL     1       1.005   8.555  21.877  0.00  0.00    +0.000 A 
ATOM     28  C   UNL     1       0.386   9.772  22.181  0.00  0.00    +0.000 A 
ATOM     29  C   UNL     1       0.120  10.688  21.170  0.00  0.00    +0.000 A 
ATOM     30  C   UNL     1       0.488  10.395  19.860  0.00  0.00    +0.000 A 
ATOM     31  C   UNL     1       1.113   9.178  19.562  0.00  0.00    +0.000 A 
BRANCH  31  32
ATOM     32  O   UNL     1       1.485   8.950  18.261  0.00  0.00    +0.000 OA
ATOM     33  H   UNL     1       2.448   9.060  18.183  0.00  0.00    +0.000 HD
ENDBRANCH  31  32
ENDBRANCH   4  26
BRANCH   6  34
ATOM     34  N   UNL     1       0.852   3.545  20.902  0.00  0.00    +0.000 N 
ATOM     35  H   UNL     1       0.025   3.568  20.312  0.00  0.00    +0.000 HD
ATOM     36  H   UNL     1       0.631   3.549  21.891  0.00  0.00    +0.000 HD
ENDBRANCH   6  34
BRANCH   1  38
ATOM     37  N   UNL     1       3.624   1.856  19.431  0.00  0.00    +0.000 NA
ATOM     38  C   UNL     1       3.287   2.961  19.573  0.00  0.00    +0.000 C 
ENDBRANCH   1  38
TORSDOF 12
ENDMDL
MODEL 4
REMARK VINA RESULT:      -7.5      4.451      9.644
REMARK  Name = 
REMARK  12 active torsions:
REMARK  status: ('A' for Active; 'I' for Inactive)
REMARK    1  A    between atoms: C_2  and  C_3
REMARK    2  A    between atoms: C_4  and  C_5
REMARK    3  A    between atoms: C_9  and  N_10
REMARK    4  A    between atoms: C_11  and  C_13
REMARK    5  A    between atoms: C_13  and  O_14
REMARK    6  A    between atoms: C_13  and  C_15
REMARK    7  A    between atoms: C_15  and  C_16
REMARK    8  A    between atoms: C_16  and  C_17
REMARK    9  A    between atoms: C_17  and  O_19
REMARK   10  A    between atoms: C_22  and  C_23
REMARK   11  A    between atoms: C_28  and  O_29
REMARK   12  A    between atoms: C_31  and  N_32
REMARK                            x       y       z     vdW  Elec       q    Type
REMARK                         _______ _______ _______ _____ _____    ______ ____
ROOT
ATOM      1  C   UNL     1       1.478   7.880  20.209  0.00  0.00    +0.000 A 
ATOM      2  C   UNL     1       1.722   8.647  19.051  0.00  0.00    +0.000 A 
ATOM      3  C   UNL     1       2.549   8.067  18.074  0.00  0.00    +0.000 A 
ATOM      4  C   UNL     1       3.063   6.781  18.225  0.00  0.00    +0.000 A 
ATOM      5  N   UNL     1       2.819   6.066  19.351  0.00  0.00    +0.000 NA
ATOM      6  C   UNL     1       2.054   6.609  20.318  0.00  0.00    +0.000 A 
ENDROOT
BRANCH   2   7
ATOM      7  C   UNL     1       1.204  10.022  18.819  0.00  0.00    +0.000 A 
ATOM      8  C   UNL     1       2.076  11.106  18.631  0.00  0.00    +0.000 A 
ATOM      9  C   UNL     1       1.592  12.393  18.411  0.00  0.00    +0.000 A 
ATOM     10  C   UNL     1       0.223  12.613  18.303  0.00  0.00    +0.000 A 
ATOM     11  C   UNL     1      -0.681  11.559  18.414  0.00  0.00    +0.000 A 
ATOM     12  C   UNL     1      -0.185  10.279  18.711  0.00  0.00    +0.000 A 
BRANCH  11  13
ATOM     13  N   UNL     1      -2.073  11.720  18.213  0.00  0.00    +0.000 N 
ATOM     14  C   UNL     1      -2.782  11.259  17.115  0.00  0.00    +0.000 C 
ATOM     15  O   UNL     1      -2.311  10.696  16.128  0.00  0.00    +0.000 OA
ATOM     16  H   UNL     1      -2.611  12.074  18.996  0.00  0.00    +0.000 HD
BRANCH  14  17
ATOM     17  C   UNL     1      -4.296  11.521  17.178  0.00  0.00    +0.000 C 
BRANCH  17  18
ATOM     18  O   UNL     1      -4.891  11.088  15.954  0.00  0.00    +0.000 OA
ATOM     19  H   UNL     1      -4.696  10.135  15.867  0.00  0.00    +0.000 HD
ENDBRANCH  17  18
BRANCH  17  20
ATOM     20  C   UNL     1      -4.938  10.731  18.332  0.00  0.00    +0.000 C 
BRANCH  20  21
ATOM     21  C   UNL     1      -6.445  10.935  18.448  0.00  0.00    +0.000 C 
BRANCH  21  22
ATOM     22  C   UNL     1      -7.008  10.123  19.587  0.00  0.00    +0.000 C 
ATOM     23  O   UNL     1      -7.050  10.521  20.741  0.00  0.00    +0.000 OA
BRANCH  22  24
ATOM     24  O   UNL     1      -7.538   8.947  19.197  0.00  0.00    +0.000 OA
ATOM     25  H   UNL     1      -6.900   8.333  18.785  0.00  0.00    +0.000 HD
ENDBRANCH  22  24
ENDBRANCH  21  22
ENDBRANCH  20  21
ENDBRANCH  17  20
ENDBRANCH  14  17
ENDBRANCH  11  13
ENDBRANCH   2   7
BRANCH   4  26
ATOM     26  C   UNL     1       3.968   6.152  17.232  0.00  0.00    +0.000 A 
ATOM     27  C   UNL     1       4.716   6.972  16.360  0.00  0.00    +0.000 A 
ATOM     28  C   UNL     1       5.535   6.438  15.359  0.00  0.00    +0.000 A 
ATOM     29  C   UNL     1       5.634   5.060  15.206  0.00  0.00    +0.000 A 
ATOM     30  C   UNL     1       4.931   4.218  16.062  0.00  0.00    +0.000 A 
ATOM     31  C   UNL     1       4.117   4.758  17.065  0.00  0.00    +0.000 A 
BRANCH  31  32
ATOM     32  O   UNL     1       3.470   3.886  17.904  0.00  0.00    +0.000 OA
ATOM     33  H   UNL     1       2.555   4.188  18.031  0.00  0.00    +0.000 HD
ENDBRANCH  31  32
ENDBRANCH   4  26
BRANCH   6  34
ATOM     34  N   UNL     1       1.974   5.849  21.486  0.00  0.00    +0.000 N 
ATOM     35  H   UNL     1       2.494   6.327  22.215  0.00  0.00    +0.000 HD
ATOM     36  H   UNL     1       2.249   4.878  21.378  0.00  0.00    +0.000 HD
ENDBRANCH   6  34
BRANCH   1  38
ATOM     37  N   UNL     1       0.006   8.745  22.164  0.00  0.00    +0.000 NA
ATOM     38  C   UNL     1       0.657   8.351  21.284  0.00  0.00    +0.000 C 
ENDBRANCH   1  38
TORSDOF 12
ENDMDL
MODEL 5
REMARK VINA RESULT:      -7.4      5.507      9.498
REMARK  Name = 
REMARK  12 active torsions:
REMARK  status: ('A' for Active; 'I' for Inactive)
REMARK    1  A    between atoms: C_2  and  C_3
REMARK    2  A    between atoms: C_4  and  C_5
REMARK    3  A    between atoms: C_9  and  N_10
REMARK    4  A    between atoms: C_11  and  C_13
REMARK    5  A    between atoms: C_13  and  O_14
REMARK    6  A    between atoms: C_13  and  C_15
REMARK    7  A    between atoms: C_15  and  C_16
REMARK    8  A    between atoms: C_16  and  C_17
REMARK    9  A    between atoms: C_17  and  O_19
REMARK   10  A    between atoms: C_22  and  C_23
REMARK   11  A    between atoms: C_28  and  O_29
REMARK   12  A    between atoms: C_31  and  N_32
REMARK                            x       y       z     vdW  Elec       q    Type
REMARK                         _______ _______ _______ _____ _____    ______ ____
ROOT
ATOM      1  C   UNL     1      -3.457  11.534  17.746  0.00  0.00    +0.000 A 
ATOM      2  C   UNL     1      -2.574  11.862  18.794  0.00  0.00    +0.000 A 
ATOM      3  C   UNL     1      -3.150  12.407  19.955  0.00  0.00    +0.000 A 
ATOM      4  C   UNL     1      -4.527  12.571  20.078  0.00  0.00    +0.000 A 
ATOM      5  N   UNL     1      -5.355  12.253  19.051  0.00  0.00    +0.000 NA
ATOM      6  C   UNL     1      -4.828  11.758  17.915  0.00  0.00    +0.000 A 
ENDROOT
BRANCH   2   7
ATOM      7  C   UNL     1      -1.095  11.711  18.738  0.00  0.00    +0.000 A 
ATOM      8  C   UNL     1      -0.257  12.818  18.531  0.00  0.00    +0.000 A 
ATOM      9  C   UNL     1       1.127  12.677  18.480  0.00  0.00    +0.000 A 
ATOM     10  C   UNL     1       1.710  11.435  18.708  0.00  0.00    +0.000 A 
ATOM     11  C   UNL     1       0.924  10.318  18.986  0.00  0.00    +0.000 A 
ATOM     12  C   UNL     1      -0.473  10.457  18.959  0.00  0.00    +0.000 A 
BRANCH  11  13
ATOM     13  N   UNL     1       1.477   9.059  19.321  0.00  0.00    +0.000 N 
ATOM     14  C   UNL     1       2.211   8.253  18.465  0.00  0.00    +0.000 C 
ATOM     15  O   UNL     1       2.446   8.476  17.277  0.00  0.00    +0.000 OA
ATOM     16  H   UNL     1       1.454   8.793  20.299  0.00  0.00    +0.000 HD
BRANCH  14  17
ATOM     17  C   UNL     1       2.743   6.960  19.104  0.00  0.00    +0.000 C 
BRANCH  17  18
ATOM     18  O   UNL     1       2.149   6.803  20.394  0.00  0.00    +0.000 OA
ATOM     19  H   UNL     1       1.211   7.061  20.306  0.00  0.00    +0.000 HD
ENDBRANCH  17  18
BRANCH  17  20
ATOM     20  C   UNL     1       2.368   5.736  18.249  0.00  0.00    +0.000 C 
BRANCH  20  21
ATOM     21  C   UNL     1       3.572   4.915  17.797  0.00  0.00    +0.000 C 
BRANCH  21  22
ATOM     22  C   UNL     1       4.176   4.168  18.960  0.00  0.00    +0.000 C 
ATOM     23  O   UNL     1       5.365   4.198  19.235  0.00  0.00    +0.000 OA
BRANCH  22  24
ATOM     24  O   UNL     1       3.263   3.530  19.719  0.00  0.00    +0.000 OA
ATOM     25  H   UNL     1       3.628   3.107  20.520  0.00  0.00    +0.000 HD
ENDBRANCH  22  24
ENDBRANCH  21  22
ENDBRANCH  20  21
ENDBRANCH  17  20
ENDBRANCH  14  17
ENDBRANCH  11  13
ENDBRANCH   2   7
BRANCH   4  26
ATOM     26  C   UNL     1      -5.165  13.176  21.272  0.00  0.00    +0.000 A 
ATOM     27  C   UNL     1      -4.660  14.389  21.787  0.00  0.00    +0.000 A 
ATOM     28  C   UNL     1      -5.176  14.974  22.948  0.00  0.00    +0.000 A 
ATOM     29  C   UNL     1      -6.222  14.361  23.628  0.00  0.00    +0.000 A 
ATOM     30  C   UNL     1      -6.763  13.177  23.138  0.00  0.00    +0.000 A 
ATOM     31  C   UNL     1      -6.247  12.599  21.972  0.00  0.00    +0.000 A 
BRANCH  31  32
ATOM     32  O   UNL     1      -6.836  11.448  21.512  0.00  0.00    +0.000 OA
ATOM     33  H   UNL     1      -6.870  10.798  22.234  0.00  0.00    +0.000 HD
ENDBRANCH  31  32
ENDBRANCH   4  26
BRANCH   6  34
ATOM     34  N   UNL     1      -5.748  11.589  16.878  0.00  0.00    +0.000 N 
ATOM     35  H   UNL     1      -5.243  11.606  15.997  0.00  0.00    +0.000 HD
ATOM     36  H   UNL     1      -6.529  12.235  16.897  0.00  0.00    +0.000 HD
ENDBRANCH   6  34
BRANCH   1  38
ATOM     37  N   UNL     1      -2.620  10.532  15.503  0.00  0.00    +0.000 NA
ATOM     38  C   UNL     1      -3.005  10.975  16.507  0.00  0.00    +0.000 C 
ENDBRANCH   1  38
TORSDOF 12
ENDMDL
MODEL 6
REMARK VINA RESULT:      -7.2      5.280      9.323
REMARK  Name = 
REMARK  12 active torsions:
REMARK  status: ('A' for Active; 'I' for Inactive)
REMARK    1  A    between atoms: C_2  and  C_3
REMARK    2  A    between atoms: C_4  and  C_5
REMARK    3  A    between atoms: C_9  and  N_10
REMARK    4  A    between atoms: C_11  and  C_13
REMARK    5  A    between atoms: C_13  and  O_14
REMARK    6  A    between atoms: C_13  and  C_15
REMARK    7  A    between atoms: C_15  and  C_16
REMARK    8  A    between atoms: C_16  and  C_17
REMARK    9  A    between atoms: C_17  and  O_19
REMARK   10  A    between atoms: C_22  and  C_23
REMARK   11  A    between atoms: C_28  and  O_29
REMARK   12  A    between atoms: C_31  and  N_32
REMARK                            x       y       z     vdW  Elec       q    Type
REMARK                         _______ _______ _______ _____ _____    ______ ____
ROOT
ATOM      1  C   UNL     1      -3.239  11.430  17.687  0.00  0.00    +0.000 A 
ATOM      2  C   UNL     1      -2.312  11.767  18.693  0.00  0.00    +0.000 A 
ATOM      3  C   UNL     1      -2.835  12.335  19.868  0.00  0.00    +0.000 A 
ATOM      4  C   UNL     1      -4.204  12.511  20.044  0.00  0.00    +0.000 A 
ATOM      5  N   UNL     1      -5.077  12.184  19.058  0.00  0.00    +0.000 NA
ATOM      6  C   UNL     1      -4.600  11.667  17.909  0.00  0.00    +0.000 A 
ENDROOT
BRANCH   2   7
ATOM      7  C   UNL     1      -0.837  11.604  18.578  0.00  0.00    +0.000 A 
ATOM      8  C   UNL     1       0.016  12.716  18.513  0.00  0.00    +0.000 A 
ATOM      9  C   UNL     1       1.396  12.563  18.408  0.00  0.00    +0.000 A 
ATOM     10  C   UNL     1       1.961  11.293  18.439  0.00  0.00    +0.000 A 
ATOM     11  C   UNL     1       1.161  10.160  18.572  0.00  0.00    +0.000 A 
ATOM     12  C   UNL     1      -0.233  10.322  18.601  0.00  0.00    +0.000 A 
BRANCH  11  13
ATOM     13  N   UNL     1       1.698   8.857  18.708  0.00  0.00    +0.000 N 
ATOM     14  C   UNL     1       1.802   8.153  19.896  0.00  0.00    +0.000 C 
ATOM     15  O   UNL     1       1.502   8.566  21.016  0.00  0.00    +0.000 OA
ATOM     16  H   UNL     1       1.889   8.349  17.851  0.00  0.00    +0.000 HD
BRANCH  14  17
ATOM     17  C   UNL     1       2.372   6.733  19.750  0.00  0.00    +0.000 C 
BRANCH  17  18
ATOM     18  O   UNL     1       1.548   5.825  20.481  0.00  0.00    +0.000 OA
ATOM     19  H   UNL     1       1.553   4.981  19.990  0.00  0.00    +0.000 HD
ENDBRANCH  17  18
BRANCH  17  20
ATOM     20  C   UNL     1       2.376   6.297  18.273  0.00  0.00    +0.000 C 
BRANCH  20  21
ATOM     21  C   UNL     1       3.640   5.549  17.861  0.00  0.00    +0.000 C 
BRANCH  21  22
ATOM     22  C   UNL     1       3.489   4.069  18.109  0.00  0.00    +0.000 C 
ATOM     23  O   UNL     1       2.446   3.551  18.475  0.00  0.00    +0.000 OA
BRANCH  22  24
ATOM     24  O   UNL     1       4.595   3.359  17.808  0.00  0.00    +0.000 OA
ATOM     25  H   UNL     1       4.919   3.484  16.895  0.00  0.00    +0.000 HD
ENDBRANCH  22  24
ENDBRANCH  21  22
ENDBRANCH  20  21
ENDBRANCH  17  20
ENDBRANCH  14  17
ENDBRANCH  11  13
ENDBRANCH   2   7
BRANCH   4  26
ATOM     26  C   UNL     1      -4.789  13.140  21.254  0.00  0.00    +0.000 A 
ATOM     27  C   UNL     1      -4.177  14.287  21.802  0.00  0.00    +0.000 A 
ATOM     28  C   UNL     1      -4.641  14.886  22.978  0.00  0.00    +0.000 A 
ATOM     29  C   UNL     1      -5.741  14.353  23.641  0.00  0.00    +0.000 A 
ATOM     30  C   UNL     1      -6.386  13.236  23.119  0.00  0.00    +0.000 A 
ATOM     31  C   UNL     1      -5.921  12.645  21.938  0.00  0.00    +0.000 A 
BRANCH  31  32
ATOM     32  O   UNL     1      -6.611  11.565  21.446  0.00  0.00    +0.000 OA
ATOM     33  H   UNL     1      -6.008  10.805  21.384  0.00  0.00    +0.000 HD
ENDBRANCH  31  32
ENDBRANCH   4  26
BRANCH   6  34
ATOM     34  N   UNL     1      -5.563  11.490  16.914  0.00  0.00    +0.000 N 
ATOM     35  H   UNL     1      -6.011  10.589  17.059  0.00  0.00    +0.000 HD
ATOM     36  H   UNL     1      -5.221  11.611  15.967  0.00  0.00    +0.000 HD
ENDBRANCH   6  34
BRANCH   1  38
ATOM     37  N   UNL     1      -2.522  10.395  15.418  0.00  0.00    +0.000 NA
ATOM     38  C   UNL     1      -2.843  10.849  16.440  0.00  0.00    +0.000 C 
ENDBRANCH   1  38
TORSDOF 12
ENDMDL
MODEL 7
REMARK VINA RESULT:      -7.2      2.997      9.464
REMARK  Name = 
REMARK  12 active torsions:
REMARK  status: ('A' for Active; 'I' for Inactive)
REMARK    1  A    between atoms: C_2  and  C_3
REMARK    2  A    between atoms: C_4  and  C_5
REMARK    3  A    between atoms: C_9  and  N_10
REMARK    4  A    between atoms: C_11  and  C_13
REMARK    5  A    between atoms: C_13  and  O_14
REMARK    6  A    between atoms: C_13  and  C_15
REMARK    7  A    between atoms: C_15  and  C_16
REMARK    8  A    between atoms: C_16  and  C_17
REMARK    9  A    between atoms: C_17  and  O_19
REMARK   10  A    between atoms: C_22  and  C_23
REMARK   11  A    between atoms: C_28  and  O_29
REMARK   12  A    between atoms: C_31  and  N_32
REMARK                            x       y       z     vdW  Elec       q    Type
REMARK                         _______ _______ _______ _____ _____    ______ ____
ROOT
ATOM      1  C   UNL     1       3.503   4.949  18.910  0.00  0.00    +0.000 A 
ATOM      2  C   UNL     1       3.460   6.068  18.055  0.00  0.00    +0.000 A 
ATOM      3  C   UNL     1       4.173   5.967  16.848  0.00  0.00    +0.000 A 
ATOM      4  C   UNL     1       4.848   4.801  16.497  0.00  0.00    +0.000 A 
ATOM      5  N   UNL     1       4.880   3.738  17.341  0.00  0.00    +0.000 NA
ATOM      6  C   UNL     1       4.231   3.820  18.519  0.00  0.00    +0.000 A 
ENDROOT
BRANCH   2   7
ATOM      7  C   UNL     1       2.757   7.344  18.360  0.00  0.00    +0.000 A 
ATOM      8  C   UNL     1       2.733   8.401  17.438  0.00  0.00    +0.000 A 
ATOM      9  C   UNL     1       2.073   9.593  17.722  0.00  0.00    +0.000 A 
ATOM     10  C   UNL     1       1.360   9.729  18.909  0.00  0.00    +0.000 A 
ATOM     11  C   UNL     1       1.296   8.683  19.827  0.00  0.00    +0.000 A 
ATOM     12  C   UNL     1       2.028   7.514  19.563  0.00  0.00    +0.000 A 
BRANCH  11  13
ATOM     13  N   UNL     1       0.504   8.741  20.998  0.00  0.00    +0.000 N 
ATOM     14  C   UNL     1       0.895   9.301  22.203  0.00  0.00    +0.000 C 
ATOM     15  O   UNL     1       2.001   9.777  22.460  0.00  0.00    +0.000 OA
ATOM     16  H   UNL     1      -0.472   8.481  20.904  0.00  0.00    +0.000 HD
BRANCH  14  17
ATOM     17  C   UNL     1      -0.184   9.280  23.298  0.00  0.00    +0.000 C 
BRANCH  17  18
ATOM     18  O   UNL     1       0.447   9.392  24.574  0.00  0.00    +0.000 OA
ATOM     19  H   UNL     1       1.407   9.468  24.408  0.00  0.00    +0.000 HD
ENDBRANCH  17  18
BRANCH  17  20
ATOM     20  C   UNL     1      -1.150  10.468  23.133  0.00  0.00    +0.000 C 
BRANCH  20  21
ATOM     21  C   UNL     1      -0.554  11.637  22.355  0.00  0.00    +0.000 C 
BRANCH  21  22
ATOM     22  C   UNL     1      -1.383  11.943  21.133  0.00  0.00    +0.000 C 
ATOM     23  O   UNL     1      -1.367  11.261  20.120  0.00  0.00    +0.000 OA
BRANCH  22  24
ATOM     24  O   UNL     1      -2.209  12.995  21.295  0.00  0.00    +0.000 OA
ATOM     25  H   UNL     1      -2.720  12.983  22.127  0.00  0.00    +0.000 HD
ENDBRANCH  22  24
ENDBRANCH  21  22
ENDBRANCH  20  21
ENDBRANCH  17  20
ENDBRANCH  14  17
ENDBRANCH  11  13
ENDBRANCH   2   7
BRANCH   4  26
ATOM     26  C   UNL     1       5.640   4.671  15.249  0.00  0.00    +0.000 A 
ATOM     27  C   UNL     1       5.124   3.912  14.178  0.00  0.00    +0.000 A 
ATOM     28  C   UNL     1       5.852   3.697  13.002  0.00  0.00    +0.000 A 
ATOM     29  C   UNL     1       7.122   4.244  12.863  0.00  0.00    +0.000 A 
ATOM     30  C   UNL     1       7.656   5.018  13.888  0.00  0.00    +0.000 A 
ATOM     31  C   UNL     1       6.921   5.235  15.060  0.00  0.00    +0.000 A 
BRANCH  31  32
ATOM     32  O   UNL     1       7.478   6.032  16.028  0.00  0.00    +0.000 OA
ATOM     33  H   UNL     1       6.772   6.367  16.608  0.00  0.00    +0.000 HD
ENDBRANCH  31  32
ENDBRANCH   4  26
BRANCH   6  34
ATOM     34  N   UNL     1       4.435   2.729  19.365  0.00  0.00    +0.000 N 
ATOM     35  H   UNL     1       3.595   2.595  19.921  0.00  0.00    +0.000 HD
ATOM     36  H   UNL     1       5.276   2.783  19.929  0.00  0.00    +0.000 HD
ENDBRANCH   6  34
BRANCH   1  38
ATOM     37  N   UNL     1       2.257   4.900  21.186  0.00  0.00    +0.000 NA
ATOM     38  C   UNL     1       2.825   4.919  20.172  0.00  0.00    +0.000 C 
ENDBRANCH   1  38
TORSDOF 12
ENDMDL
MODEL 8
REMARK VINA RESULT:      -7.2      5.685      9.563
REMARK  Name = 
REMARK  12 active torsions:
REMARK  status: ('A' for Active; 'I' for Inactive)
REMARK    1  A    between atoms: C_2  and  C_3
REMARK    2  A    between atoms: C_4  and  C_5
REMARK    3  A    between atoms: C_9  and  N_10
REMARK    4  A    between atoms: C_11  and  C_13
REMARK    5  A    between atoms: C_13  and  O_14
REMARK    6  A    between atoms: C_13  and  C_15
REMARK    7  A    between atoms: C_15  and  C_16
REMARK    8  A    between atoms: C_16  and  C_17
REMARK    9  A    between atoms: C_17  and  O_19
REMARK   10  A    between atoms: C_22  and  C_23
REMARK   11  A    between atoms: C_28  and  O_29
REMARK   12  A    between atoms: C_31  and  N_32
REMARK                            x       y       z     vdW  Elec       q    Type
REMARK                         _______ _______ _______ _____ _____    ______ ____
ROOT
ATOM      1  C   UNL     1      -3.492  11.516  17.850  0.00  0.00    +0.000 A 
ATOM      2  C   UNL     1      -2.617  11.870  18.896  0.00  0.00    +0.000 A 
ATOM      3  C   UNL     1      -3.200  12.438  20.041  0.00  0.00    +0.000 A 
ATOM      4  C   UNL     1      -4.579  12.600  20.153  0.00  0.00    +0.000 A 
ATOM      5  N   UNL     1      -5.401  12.257  19.129  0.00  0.00    +0.000 NA
ATOM      6  C   UNL     1      -4.865  11.738  18.006  0.00  0.00    +0.000 A 
ENDROOT
BRANCH   2   7
ATOM      7  C   UNL     1      -1.137  11.723  18.850  0.00  0.00    +0.000 A 
ATOM      8  C   UNL     1      -0.303  12.823  18.602  0.00  0.00    +0.000 A 
ATOM      9  C   UNL     1       1.082  12.687  18.562  0.00  0.00    +0.000 A 
ATOM     10  C   UNL     1       1.669  11.457  18.842  0.00  0.00    +0.000 A 
ATOM     11  C   UNL     1       0.887  10.350  19.163  0.00  0.00    +0.000 A 
ATOM     12  C   UNL     1      -0.510  10.481  19.126  0.00  0.00    +0.000 A 
BRANCH  11  13
ATOM     13  N   UNL     1       1.444   9.107  19.550  0.00  0.00    +0.000 N 
ATOM     14  C   UNL     1       2.042   8.196  18.696  0.00  0.00    +0.000 C 
ATOM     15  O   UNL     1       2.131   8.294  17.472  0.00  0.00    +0.000 OA
ATOM     16  H   UNL     1       1.537   8.938  20.546  0.00  0.00    +0.000 HD
BRANCH  14  17
ATOM     17  C   UNL     1       2.615   6.950  19.390  0.00  0.00    +0.000 C 
BRANCH  17  18
ATOM     18  O   UNL     1       1.902   6.729  20.608  0.00  0.00    +0.000 OA
ATOM     19  H   UNL     1       1.821   7.597  21.048  0.00  0.00    +0.000 HD
ENDBRANCH  17  18
BRANCH  17  20
ATOM     20  C   UNL     1       2.447   5.705  18.501  0.00  0.00    +0.000 C 
BRANCH  20  21
ATOM     21  C   UNL     1       1.874   4.499  19.239  0.00  0.00    +0.000 C 
BRANCH  21  22
ATOM     22  C   UNL     1       1.496   3.409  18.268  0.00  0.00    +0.000 C 
ATOM     23  O   UNL     1       1.998   3.289  17.162  0.00  0.00    +0.000 OA
BRANCH  22  24
ATOM     24  O   UNL     1       0.609   2.527  18.771  0.00  0.00    +0.000 OA
ATOM     25  H   UNL     1       0.809   1.593  18.568  0.00  0.00    +0.000 HD
ENDBRANCH  22  24
ENDBRANCH  21  22
ENDBRANCH  20  21
ENDBRANCH  17  20
ENDBRANCH  14  17
ENDBRANCH  11  13
ENDBRANCH   2   7
BRANCH   4  26
ATOM     26  C   UNL     1      -5.226  13.229  21.330  0.00  0.00    +0.000 A 
ATOM     27  C   UNL     1      -4.803  12.868  22.627  0.00  0.00    +0.000 A 
ATOM     28  C   UNL     1      -5.418  13.376  23.776  0.00  0.00    +0.000 A 
ATOM     29  C   UNL     1      -6.477  14.269  23.659  0.00  0.00    +0.000 A 
ATOM     30  C   UNL     1      -6.908  14.667  22.397  0.00  0.00    +0.000 A 
ATOM     31  C   UNL     1      -6.284  14.160  21.251  0.00  0.00    +0.000 A 
BRANCH  31  32
ATOM     32  O   UNL     1      -6.723  14.609  20.030  0.00  0.00    +0.000 OA
ATOM     33  H   UNL     1      -7.574  14.185  19.824  0.00  0.00    +0.000 HD
ENDBRANCH  31  32
ENDBRANCH   4  26
BRANCH   6  34
ATOM     34  N   UNL     1      -5.779  11.543  16.969  0.00  0.00    +0.000 N 
ATOM     35  H   UNL     1      -5.275  11.188  16.162  0.00  0.00    +0.000 HD
ATOM     36  H   UNL     1      -6.351  12.352  16.751  0.00  0.00    +0.000 HD
ENDBRANCH   6  34
BRANCH   1  38
ATOM     37  N   UNL     1      -2.666  10.473  15.622  0.00  0.00    +0.000 NA
ATOM     38  C   UNL     1      -3.032  10.931  16.626  0.00  0.00    +0.000 C 
ENDBRANCH   1  38
TORSDOF 12
ENDMDL
MODEL 9
REMARK VINA RESULT:      -7.1      4.152      9.775
REMARK  Name = 
REMARK  12 active torsions:
REMARK  status: ('A' for Active; 'I' for Inactive)
REMARK    1  A    between atoms: C_2  and  C_3
REMARK    2  A    between atoms: C_4  and  C_5
REMARK    3  A    between atoms: C_9  and  N_10
REMARK    4  A    between atoms: C_11  and  C_13
REMARK    5  A    between atoms: C_13  and  O_14
REMARK    6  A    between atoms: C_13  and  C_15
REMARK    7  A    between atoms: C_15  and  C_16
REMARK    8  A    between atoms: C_16  and  C_17
REMARK    9  A    between atoms: C_17  and  O_19
REMARK   10  A    between atoms: C_22  and  C_23
REMARK   11  A    between atoms: C_28  and  O_29
REMARK   12  A    between atoms: C_31  and  N_32
REMARK                            x       y       z     vdW  Elec       q    Type
REMARK                         _______ _______ _______ _____ _____    ______ ____
ROOT
ATOM      1  C   UNL     1       1.478   7.891  20.176  0.00  0.00    +0.000 A 
ATOM      2  C   UNL     1       1.720   8.654  19.017  0.00  0.00    +0.000 A 
ATOM      3  C   UNL     1       2.550   8.073  18.042  0.00  0.00    +0.000 A 
ATOM      4  C   UNL     1       3.067   6.790  18.196  0.00  0.00    +0.000 A 
ATOM      5  N   UNL     1       2.825   6.077  19.325  0.00  0.00    +0.000 NA
ATOM      6  C   UNL     1       2.058   6.622  20.290  0.00  0.00    +0.000 A 
ENDROOT
BRANCH   2   7
ATOM      7  C   UNL     1       1.198  10.027  18.780  0.00  0.00    +0.000 A 
ATOM      8  C   UNL     1       2.065  11.108  18.560  0.00  0.00    +0.000 A 
ATOM      9  C   UNL     1       1.577  12.392  18.336  0.00  0.00    +0.000 A 
ATOM     10  C   UNL     1       0.206  12.613  18.254  0.00  0.00    +0.000 A 
ATOM     11  C   UNL     1      -0.695  11.560  18.397  0.00  0.00    +0.000 A 
ATOM     12  C   UNL     1      -0.194  10.283  18.698  0.00  0.00    +0.000 A 
BRANCH  11  13
ATOM     13  N   UNL     1      -2.091  11.720  18.224  0.00  0.00    +0.000 N 
ATOM     14  C   UNL     1      -2.792  11.435  17.063  0.00  0.00    +0.000 C 
ATOM     15  O   UNL     1      -2.310  11.058  15.995  0.00  0.00    +0.000 OA
ATOM     16  H   UNL     1      -2.635  11.923  19.055  0.00  0.00    +0.000 HD
BRANCH  14  17
ATOM     17  C   UNL     1      -4.311  11.646  17.167  0.00  0.00    +0.000 C 
BRANCH  17  18
ATOM     18  O   UNL     1      -4.952  10.928  16.111  0.00  0.00    +0.000 OA
ATOM     19  H   UNL     1      -5.180  10.048  16.467  0.00  0.00    +0.000 HD
ENDBRANCH  17  18
BRANCH  17  20
ATOM     20  C   UNL     1      -4.846  11.110  18.507  0.00  0.00    +0.000 C 
BRANCH  20  21
ATOM     21  C   UNL     1      -5.622  12.146  19.314  0.00  0.00    +0.000 C 
BRANCH  21  22
ATOM     22  C   UNL     1      -4.806  12.629  20.487  0.00  0.00    +0.000 C 
ATOM     23  O   UNL     1      -5.036  12.312  21.643  0.00  0.00    +0.000 OA
BRANCH  22  24
ATOM     24  O   UNL     1      -3.744  13.379  20.129  0.00  0.00    +0.000 OA
ATOM     25  H   UNL     1      -3.478  14.045  20.792  0.00  0.00    +0.000 HD
ENDBRANCH  22  24
ENDBRANCH  21  22
ENDBRANCH  20  21
ENDBRANCH  17  20
ENDBRANCH  14  17
ENDBRANCH  11  13
ENDBRANCH   2   7
BRANCH   4  26
ATOM     26  C   UNL     1       3.975   6.161  17.206  0.00  0.00    +0.000 A 
ATOM     27  C   UNL     1       4.753   6.981  16.361  0.00  0.00    +0.000 A 
ATOM     28  C   UNL     1       5.577   6.448  15.364  0.00  0.00    +0.000 A 
ATOM     29  C   UNL     1       5.651   5.072  15.187  0.00  0.00    +0.000 A 
ATOM     30  C   UNL     1       4.917   4.229  16.016  0.00  0.00    +0.000 A 
ATOM     31  C   UNL     1       4.099   4.767  17.016  0.00  0.00    +0.000 A 
BRANCH  31  32
ATOM     32  O   UNL     1       3.421   3.893  17.829  0.00  0.00    +0.000 OA
ATOM     33  H   UNL     1       2.592   3.632  17.392  0.00  0.00    +0.000 HD
ENDBRANCH  31  32
ENDBRANCH   4  26
BRANCH   6  34
ATOM     34  N   UNL     1       1.980   5.865  21.460  0.00  0.00    +0.000 N 
ATOM     35  H   UNL     1       2.911   5.529  21.686  0.00  0.00    +0.000 HD
ATOM     36  H   UNL     1       1.288   5.123  21.439  0.00  0.00    +0.000 HD
ENDBRANCH   6  34
BRANCH   1  38
ATOM     37  N   UNL     1      -0.020   8.725  22.125  0.00  0.00    +0.000 NA
ATOM     38  C   UNL     1       0.655   8.362  21.249  0.00  0.00    +0.000 C 
ENDBRANCH   1  38
TORSDOF 12
ENDMDL
