MODEL 1
REMARK VINA RESULT:      -8.6      0.000      0.000
REMARK  Name = 
REMARK  7 active torsions:
REMARK  status: ('A' for Active; 'I' for Inactive)
REMARK    1  A    between atoms: C_1  and  C_2
REMARK    2  A    between atoms: C_4  and  C_5
REMARK    3  A    between atoms: C_7  and  C_8
REMARK    4  A    between atoms: C_13  and  N_14
REMARK    5  A    between atoms: C_15  and  C_17
REMARK    6  A    between atoms: C_28  and  C_29
REMARK    7  A    between atoms: C_29  and  C_30
REMARK                            x       y       z     vdW  Elec       q    Type
REMARK                         _______ _______ _______ _____ _____    ______ ____
ROOT
ATOM      1  C   UNL     1      -1.372  12.294  18.526  0.00  0.00    +0.000 C 
ATOM      2  O   UNL     1      -1.147  12.999  17.540  0.00  0.00    +0.000 OA
ATOM      3  N   UNL     1      -0.354  11.571  19.180  0.00  0.00    +0.000 N 
ATOM      4  C   UNL     1       1.045  11.821  18.804  0.00  0.00    +0.000 C 
ATOM      5  C   UNL     1       1.757  10.577  18.257  0.00  0.00    +0.000 C 
ATOM      6  C   UNL     1       1.494   9.329  19.106  0.00  0.00    +0.000 C 
ATOM      7  C   UNL     1      -0.010   9.160  19.306  0.00  0.00    +0.000 C 
ATOM      8  C   UNL     1      -0.575  10.381  20.040  0.00  0.00    +0.000 C 
ENDROOT
BRANCH   1  15
ATOM      9  C   UNL     1      -4.780  13.991  21.773  0.00  0.00    +0.000 C 
ATOM     10  C   UNL     1      -4.470  13.123  20.591  0.00  0.00    +0.000 A 
ATOM     11  C   UNL     1      -5.428  12.305  19.995  0.00  0.00    +0.000 A 
ATOM     12  C   UNL     1      -5.088  11.494  18.901  0.00  0.00    +0.000 A 
ATOM     13  C   UNL     1      -6.156  10.702  18.199  0.00  0.00    +0.000 C 
ATOM     14  C   UNL     1      -3.755  11.461  18.447  0.00  0.00    +0.000 A 
ATOM     15  C   UNL     1      -2.778  12.268  19.048  0.00  0.00    +0.000 A 
ATOM     16  C   UNL     1      -3.173  13.133  20.072  0.00  0.00    +0.000 A 
ENDBRANCH   1  15
BRANCH   6  17
ATOM     17  N   UNL     1       2.077   8.138  18.510  0.00  0.00    +0.000 N 
ATOM     18  C   UNL     1       2.364   7.018  19.280  0.00  0.00    +0.000 C 
ATOM     19  O   UNL     1       2.243   6.998  20.494  0.00  0.00    +0.000 OA
ATOM     20  H   UNL     1       2.031   8.047  17.503  0.00  0.00    +0.000 HD
BRANCH  18  21
ATOM     21  C   UNL     1       2.867   5.830  18.527  0.00  0.00    +0.000 A 
ATOM     22  C   UNL     1       3.938   6.029  17.649  0.00  0.00    +0.000 A 
ATOM     23  C   UNL     1       4.429   4.939  16.967  0.00  0.00    +0.000 A 
ATOM     24  N   UNL     1       3.945   3.692  17.113  0.00  0.00    +0.000 NA
ATOM     25  C   UNL     1       2.927   3.492  17.965  0.00  0.00    +0.000 A 
ATOM     26  C   UNL     1       2.458   2.192  18.102  0.00  0.00    +0.000 A 
ATOM     27  C   UNL     1       1.395   1.876  18.948  0.00  0.00    +0.000 A 
ATOM     28  C   UNL     1       0.778   2.882  19.672  0.00  0.00    +0.000 A 
ATOM     29  C   UNL     1       1.237   4.196  19.558  0.00  0.00    +0.000 A 
ATOM     30  C   UNL     1       2.325   4.530  18.711  0.00  0.00    +0.000 A 
ENDBRANCH  18  21
ENDBRANCH   6  17
BRANCH   8  31
ATOM     31  C   UNL     1       0.013  10.585  21.468  0.00  0.00    +0.000 C 
BRANCH  31  32
ATOM     32  C   UNL     1      -0.651  11.686  22.258  0.00  0.00    +0.000 A 
ATOM     33  C   UNL     1      -1.756  11.412  23.075  0.00  0.00    +0.000 A 
ATOM     34  C   UNL     1      -2.381  12.437  23.788  0.00  0.00    +0.000 A 
ATOM     35  C   UNL     1      -1.898  13.741  23.704  0.00  0.00    +0.000 A 
ATOM     36  C   UNL     1      -0.791  14.021  22.908  0.00  0.00    +0.000 A 
ATOM     37  C   UNL     1      -0.172  13.002  22.185  0.00  0.00    +0.000 A 
ENDBRANCH  31  32
ENDBRANCH   8  31
TORSDOF 5
ENDMDL
MODEL 2
REMARK VINA RESULT:      -8.6      0.206      1.658
REMARK  Name = 
REMARK  7 active torsions:
REMARK  status: ('A' for Active; 'I' for Inactive)
REMARK    1  A    between atoms: C_1  and  C_2
REMARK    2  A    between atoms: C_4  and  C_5
REMARK    3  A    between atoms: C_7  and  C_8
REMARK    4  A    between atoms: C_13  and  N_14
REMARK    5  A    between atoms: C_15  and  C_17
REMARK    6  A    between atoms: C_28  and  C_29
REMARK    7  A    between atoms: C_29  and  C_30
REMARK                            x       y       z     vdW  Elec       q    Type
REMARK                         _______ _______ _______ _____ _____    ______ ____
ROOT
ATOM      1  C   UNL     1      -1.172  12.448  18.467  0.00  0.00    +0.000 C 
ATOM      2  O   UNL     1      -0.881  13.191  17.527  0.00  0.00    +0.000 OA
ATOM      3  N   UNL     1      -0.208  11.661  19.129  0.00  0.00    +0.000 N 
ATOM      4  C   UNL     1       1.215  11.882  18.828  0.00  0.00    +0.000 C 
ATOM      5  C   UNL     1       1.911  10.642  18.251  0.00  0.00    +0.000 C 
ATOM      6  C   UNL     1       1.570   9.364  19.027  0.00  0.00    +0.000 C 
ATOM      7  C   UNL     1       0.054   9.237  19.152  0.00  0.00    +0.000 C 
ATOM      8  C   UNL     1      -0.505  10.440  19.920  0.00  0.00    +0.000 C 
ENDROOT
BRANCH   1  15
ATOM      9  C   UNL     1      -5.833  10.694  17.989  0.00  0.00    +0.000 C 
ATOM     10  C   UNL     1      -4.871  11.560  18.743  0.00  0.00    +0.000 A 
ATOM     11  C   UNL     1      -5.267  12.352  19.819  0.00  0.00    +0.000 A 
ATOM     12  C   UNL     1      -4.335  13.164  20.485  0.00  0.00    +0.000 A 
ATOM     13  C   UNL     1      -4.752  13.927  21.711  0.00  0.00    +0.000 C 
ATOM     14  C   UNL     1      -3.007  13.225  20.019  0.00  0.00    +0.000 A 
ATOM     15  C   UNL     1      -2.600  12.445  18.926  0.00  0.00    +0.000 A 
ATOM     16  C   UNL     1      -3.531  11.577  18.349  0.00  0.00    +0.000 A 
ENDBRANCH   1  15
BRANCH   6  17
ATOM     17  N   UNL     1       2.142   8.184  18.399  0.00  0.00    +0.000 N 
ATOM     18  C   UNL     1       2.482   7.066  19.151  0.00  0.00    +0.000 C 
ATOM     19  O   UNL     1       2.419   7.041  20.369  0.00  0.00    +0.000 OA
ATOM     20  H   UNL     1       2.050   8.095  17.396  0.00  0.00    +0.000 HD
BRANCH  18  21
ATOM     21  C   UNL     1       2.967   5.888  18.370  0.00  0.00    +0.000 A 
ATOM     22  C   UNL     1       4.034   6.092  17.489  0.00  0.00    +0.000 A 
ATOM     23  C   UNL     1       4.508   5.011  16.783  0.00  0.00    +0.000 A 
ATOM     24  N   UNL     1       4.010   3.767  16.906  0.00  0.00    +0.000 NA
ATOM     25  C   UNL     1       2.995   3.561  17.760  0.00  0.00    +0.000 A 
ATOM     26  C   UNL     1       2.511   2.264  17.874  0.00  0.00    +0.000 A 
ATOM     27  C   UNL     1       1.450   1.944  18.720  0.00  0.00    +0.000 A 
ATOM     28  C   UNL     1       0.849   2.942  19.468  0.00  0.00    +0.000 A 
ATOM     29  C   UNL     1       1.323   4.252  19.378  0.00  0.00    +0.000 A 
ATOM     30  C   UNL     1       2.410   4.591  18.531  0.00  0.00    +0.000 A 
ENDBRANCH  18  21
ENDBRANCH   6  17
BRANCH   8  31
ATOM     31  C   UNL     1       0.024  10.557  21.380  0.00  0.00    +0.000 C 
BRANCH  31  32
ATOM     32  C   UNL     1      -0.601  11.676  22.176  0.00  0.00    +0.000 A 
ATOM     33  C   UNL     1      -0.095  12.980  22.093  0.00  0.00    +0.000 A 
ATOM     34  C   UNL     1      -0.664  14.008  22.848  0.00  0.00    +0.000 A 
ATOM     35  C   UNL     1      -1.752  13.747  23.677  0.00  0.00    +0.000 A 
ATOM     36  C   UNL     1      -2.273  12.458  23.753  0.00  0.00    +0.000 A 
ATOM     37  C   UNL     1      -1.700  11.426  23.011  0.00  0.00    +0.000 A 
ENDBRANCH  31  32
ENDBRANCH   8  31
TORSDOF 5
ENDMDL
MODEL 3
REMARK VINA RESULT:      -8.4      0.710      2.275
REMARK  Name = 
REMARK  7 active torsions:
REMARK  status: ('A' for Active; 'I' for Inactive)
REMARK    1  A    between atoms: C_1  and  C_2
REMARK    2  A    between atoms: C_4  and  C_5
REMARK    3  A    between atoms: C_7  and  C_8
REMARK    4  A    between atoms: C_13  and  N_14
REMARK    5  A    between atoms: C_15  and  C_17
REMARK    6  A    between atoms: C_28  and  C_29
REMARK    7  A    between atoms: C_29  and  C_30
REMARK                            x       y       z     vdW  Elec       q    Type
REMARK                         _______ _______ _______ _____ _____    ______ ____
ROOT
ATOM      1  C   UNL     1      -1.242  12.292  18.440  0.00  0.00    +0.000 C 
ATOM      2  O   UNL     1      -0.995  13.004  17.463  0.00  0.00    +0.000 OA
ATOM      3  N   UNL     1      -0.248  11.526  19.082  0.00  0.00    +0.000 N 
ATOM      4  C   UNL     1       1.159  11.735  18.708  0.00  0.00    +0.000 C 
ATOM      5  C   UNL     1       1.828  10.475  18.141  0.00  0.00    +0.000 C 
ATOM      6  C   UNL     1       1.524   9.225  18.973  0.00  0.00    +0.000 C 
ATOM      7  C   UNL     1       0.015   9.104  19.173  0.00  0.00    +0.000 C 
ATOM      8  C   UNL     1      -0.508  10.333  19.925  0.00  0.00    +0.000 C 
ENDROOT
BRANCH   1  15
ATOM      9  C   UNL     1      -4.577  14.021  21.745  0.00  0.00    +0.000 C 
ATOM     10  C   UNL     1      -4.302  13.180  20.536  0.00  0.00    +0.000 A 
ATOM     11  C   UNL     1      -5.292  12.419  19.917  0.00  0.00    +0.000 A 
ATOM     12  C   UNL     1      -4.987  11.630  18.797  0.00  0.00    +0.000 A 
ATOM     13  C   UNL     1      -6.086  10.903  18.073  0.00  0.00    +0.000 C 
ATOM     14  C   UNL     1      -3.656  11.558  18.339  0.00  0.00    +0.000 A 
ATOM     15  C   UNL     1      -2.647  12.306  18.964  0.00  0.00    +0.000 A 
ATOM     16  C   UNL     1      -3.007  13.154  20.015  0.00  0.00    +0.000 A 
ENDBRANCH   1  15
BRANCH   6  17
ATOM     17  N   UNL     1       2.065   8.023  18.360  0.00  0.00    +0.000 N 
ATOM     18  C   UNL     1       2.347   6.895  19.119  0.00  0.00    +0.000 C 
ATOM     19  O   UNL     1       2.255   6.873  20.335  0.00  0.00    +0.000 OA
ATOM     20  H   UNL     1       1.994   7.937  17.354  0.00  0.00    +0.000 HD
BRANCH  18  21
ATOM     21  C   UNL     1       2.805   5.699  18.350  0.00  0.00    +0.000 A 
ATOM     22  C   UNL     1       1.955   4.589  18.316  0.00  0.00    +0.000 A 
ATOM     23  C   UNL     1       2.352   3.490  17.591  0.00  0.00    +0.000 A 
ATOM     24  N   UNL     1       3.506   3.432  16.902  0.00  0.00    +0.000 NA
ATOM     25  C   UNL     1       4.320   4.499  16.918  0.00  0.00    +0.000 A 
ATOM     26  C   UNL     1       5.498   4.413  16.187  0.00  0.00    +0.000 A 
ATOM     27  C   UNL     1       6.421   5.457  16.149  0.00  0.00    +0.000 A 
ATOM     28  C   UNL     1       6.169   6.615  16.864  0.00  0.00    +0.000 A 
ATOM     29  C   UNL     1       4.988   6.730  17.600  0.00  0.00    +0.000 A 
ATOM     30  C   UNL     1       4.033   5.681  17.638  0.00  0.00    +0.000 A 
ENDBRANCH  18  21
ENDBRANCH   6  17
BRANCH   8  31
ATOM     31  C   UNL     1       0.088  10.497  21.356  0.00  0.00    +0.000 C 
BRANCH  31  32
ATOM     32  C   UNL     1      -0.505  11.638  22.145  0.00  0.00    +0.000 A 
ATOM     33  C   UNL     1      -0.001  12.938  22.010  0.00  0.00    +0.000 A 
ATOM     34  C   UNL     1      -0.539  13.986  22.758  0.00  0.00    +0.000 A 
ATOM     35  C   UNL     1      -1.597  13.750  23.633  0.00  0.00    +0.000 A 
ATOM     36  C   UNL     1      -2.117  12.465  23.761  0.00  0.00    +0.000 A 
ATOM     37  C   UNL     1      -1.573  11.413  23.025  0.00  0.00    +0.000 A 
ENDBRANCH  31  32
ENDBRANCH   8  31
TORSDOF 5
ENDMDL
MODEL 4
REMARK VINA RESULT:      -8.3      2.127      3.690
REMARK  Name = 
REMARK  7 active torsions:
REMARK  status: ('A' for Active; 'I' for Inactive)
REMARK    1  A    between atoms: C_1  and  C_2
REMARK    2  A    between atoms: C_4  and  C_5
REMARK    3  A    between atoms: C_7  and  C_8
REMARK    4  A    between atoms: C_13  and  N_14
REMARK    5  A    between atoms: C_15  and  C_17
REMARK    6  A    between atoms: C_28  and  C_29
REMARK    7  A    between atoms: C_29  and  C_30
REMARK                            x       y       z     vdW  Elec       q    Type
REMARK                         _______ _______ _______ _____ _____    ______ ____
ROOT
ATOM      1  C   UNL     1      -2.873  12.351  19.833  0.00  0.00    +0.000 C 
ATOM      2  O   UNL     1      -3.817  11.956  19.145  0.00  0.00    +0.000 OA
ATOM      3  N   UNL     1      -1.531  12.104  19.478  0.00  0.00    +0.000 N 
ATOM      4  C   UNL     1      -1.241  11.540  18.151  0.00  0.00    +0.000 C 
ATOM      5  C   UNL     1      -0.531  10.182  18.213  0.00  0.00    +0.000 C 
ATOM      6  C   UNL     1       0.621  10.167  19.224  0.00  0.00    +0.000 C 
ATOM      7  C   UNL     1       0.118  10.680  20.572  0.00  0.00    +0.000 C 
ATOM      8  C   UNL     1      -0.386  12.120  20.423  0.00  0.00    +0.000 C 
ENDROOT
BRANCH   1  15
ATOM      9  C   UNL     1      -3.660  16.819  21.943  0.00  0.00    +0.000 C 
ATOM     10  C   UNL     1      -3.640  15.328  22.090  0.00  0.00    +0.000 A 
ATOM     11  C   UNL     1      -3.896  14.695  23.306  0.00  0.00    +0.000 A 
ATOM     12  C   UNL     1      -3.848  13.296  23.403  0.00  0.00    +0.000 A 
ATOM     13  C   UNL     1      -4.234  12.623  24.691  0.00  0.00    +0.000 C 
ATOM     14  C   UNL     1      -3.475  12.533  22.279  0.00  0.00    +0.000 A 
ATOM     15  C   UNL     1      -3.200  13.159  21.054  0.00  0.00    +0.000 A 
ATOM     16  C   UNL     1      -3.351  14.545  20.970  0.00  0.00    +0.000 A 
ENDBRANCH   1  15
BRANCH   6  17
ATOM     17  N   UNL     1       1.206   8.843  19.357  0.00  0.00    +0.000 N 
ATOM     18  C   UNL     1       2.102   8.358  18.412  0.00  0.00    +0.000 C 
ATOM     19  O   UNL     1       2.371   8.956  17.384  0.00  0.00    +0.000 OA
ATOM     20  H   UNL     1       1.150   8.394  20.261  0.00  0.00    +0.000 HD
BRANCH  18  21
ATOM     21  C   UNL     1       2.703   7.025  18.720  0.00  0.00    +0.000 A 
ATOM     22  C   UNL     1       2.233   6.351  19.852  0.00  0.00    +0.000 A 
ATOM     23  C   UNL     1       2.759   5.112  20.133  0.00  0.00    +0.000 A 
ATOM     24  N   UNL     1       3.688   4.508  19.370  0.00  0.00    +0.000 NA
ATOM     25  C   UNL     1       4.132   5.142  18.273  0.00  0.00    +0.000 A 
ATOM     26  C   UNL     1       5.081   4.488  17.499  0.00  0.00    +0.000 A 
ATOM     27  C   UNL     1       5.621   5.064  16.350  0.00  0.00    +0.000 A 
ATOM     28  C   UNL     1       5.210   6.329  15.964  0.00  0.00    +0.000 A 
ATOM     29  C   UNL     1       4.250   7.004  16.721  0.00  0.00    +0.000 A 
ATOM     30  C   UNL     1       3.683   6.425  17.886  0.00  0.00    +0.000 A 
ENDBRANCH  18  21
ENDBRANCH   6  17
BRANCH   8  31
ATOM     31  C   UNL     1       0.714  13.130  19.979  0.00  0.00    +0.000 C 
BRANCH  31  32
ATOM     32  C   UNL     1       0.285  14.575  20.037  0.00  0.00    +0.000 A 
ATOM     33  C   UNL     1      -0.174  15.230  18.886  0.00  0.00    +0.000 A 
ATOM     34  C   UNL     1      -0.550  16.573  18.939  0.00  0.00    +0.000 A 
ATOM     35  C   UNL     1      -0.489  17.269  20.144  0.00  0.00    +0.000 A 
ATOM     36  C   UNL     1      -0.050  16.623  21.297  0.00  0.00    +0.000 A 
ATOM     37  C   UNL     1       0.338  15.285  21.245  0.00  0.00    +0.000 A 
ENDBRANCH  31  32
ENDBRANCH   8  31
TORSDOF 5
ENDMDL
MODEL 5
REMARK VINA RESULT:      -8.3      0.675      2.671
REMARK  Name = 
REMARK  7 active torsions:
REMARK  status: ('A' for Active; 'I' for Inactive)
REMARK    1  A    between atoms: C_1  and  C_2
REMARK    2  A    between atoms: C_4  and  C_5
REMARK    3  A    between atoms: C_7  and  C_8
REMARK    4  A    between atoms: C_13  and  N_14
REMARK    5  A    between atoms: C_15  and  C_17
REMARK    6  A    between atoms: C_28  and  C_29
REMARK    7  A    between atoms: C_29  and  C_30
REMARK                            x       y       z     vdW  Elec       q    Type
REMARK                         _______ _______ _______ _____ _____    ______ ____
ROOT
ATOM      1  C   UNL     1      -1.160  12.406  18.455  0.00  0.00    +0.000 C 
ATOM      2  O   UNL     1      -0.857  13.121  17.496  0.00  0.00    +0.000 OA
ATOM      3  N   UNL     1      -0.213  11.600  19.119  0.00  0.00    +0.000 N 
ATOM      4  C   UNL     1       1.211  11.766  18.793  0.00  0.00    +0.000 C 
ATOM      5  C   UNL     1       1.856  10.492  18.233  0.00  0.00    +0.000 C 
ATOM      6  C   UNL     1       1.484   9.243  19.039  0.00  0.00    +0.000 C 
ATOM      7  C   UNL     1      -0.034   9.169  19.188  0.00  0.00    +0.000 C 
ATOM      8  C   UNL     1      -0.540  10.407  19.938  0.00  0.00    +0.000 C 
ENDROOT
BRANCH   1  15
ATOM      9  C   UNL     1      -5.888  10.816  18.066  0.00  0.00    +0.000 C 
ATOM     10  C   UNL     1      -4.884  11.657  18.793  0.00  0.00    +0.000 A 
ATOM     11  C   UNL     1      -5.236  12.478  19.864  0.00  0.00    +0.000 A 
ATOM     12  C   UNL     1      -4.266  13.264  20.505  0.00  0.00    +0.000 A 
ATOM     13  C   UNL     1      -4.637  14.058  21.726  0.00  0.00    +0.000 C 
ATOM     14  C   UNL     1      -2.944  13.271  20.020  0.00  0.00    +0.000 A 
ATOM     15  C   UNL     1      -2.581  12.461  18.933  0.00  0.00    +0.000 A 
ATOM     16  C   UNL     1      -3.550  11.620  18.382  0.00  0.00    +0.000 A 
ENDBRANCH   1  15
BRANCH   6  17
ATOM     17  N   UNL     1       2.006   8.031  18.428  0.00  0.00    +0.000 N 
ATOM     18  C   UNL     1       2.269   6.900  19.190  0.00  0.00    +0.000 C 
ATOM     19  O   UNL     1       2.177   6.883  20.406  0.00  0.00    +0.000 OA
ATOM     20  H   UNL     1       1.933   7.944  17.423  0.00  0.00    +0.000 HD
BRANCH  18  21
ATOM     21  C   UNL     1       2.708   5.695  18.424  0.00  0.00    +0.000 A 
ATOM     22  C   UNL     1       1.884   4.565  18.472  0.00  0.00    +0.000 A 
ATOM     23  C   UNL     1       2.262   3.456  17.751  0.00  0.00    +0.000 A 
ATOM     24  N   UNL     1       3.371   3.406  16.991  0.00  0.00    +0.000 NA
ATOM     25  C   UNL     1       4.159   4.492  16.929  0.00  0.00    +0.000 A 
ATOM     26  C   UNL     1       5.290   4.413  16.127  0.00  0.00    +0.000 A 
ATOM     27  C   UNL     1       6.184   5.477  16.005  0.00  0.00    +0.000 A 
ATOM     28  C   UNL     1       5.948   6.648  16.705  0.00  0.00    +0.000 A 
ATOM     29  C   UNL     1       4.813   6.755  17.511  0.00  0.00    +0.000 A 
ATOM     30  C   UNL     1       3.889   5.686  17.636  0.00  0.00    +0.000 A 
ENDBRANCH  18  21
ENDBRANCH   6  17
BRANCH   8  31
ATOM     31  C   UNL     1       0.014  10.534  21.389  0.00  0.00    +0.000 C 
BRANCH  31  32
ATOM     32  C   UNL     1      -0.590  11.666  22.183  0.00  0.00    +0.000 A 
ATOM     33  C   UNL     1      -0.069  12.963  22.086  0.00  0.00    +0.000 A 
ATOM     34  C   UNL     1      -0.617  14.004  22.838  0.00  0.00    +0.000 A 
ATOM     35  C   UNL     1      -1.701  13.762  23.680  0.00  0.00    +0.000 A 
ATOM     36  C   UNL     1      -2.236  12.480  23.771  0.00  0.00    +0.000 A 
ATOM     37  C   UNL     1      -1.683  11.436  23.031  0.00  0.00    +0.000 A 
ENDBRANCH  31  32
ENDBRANCH   8  31
TORSDOF 5
ENDMDL
MODEL 6
REMARK VINA RESULT:      -8.2      1.061      1.365
REMARK  Name = 
REMARK  7 active torsions:
REMARK  status: ('A' for Active; 'I' for Inactive)
REMARK    1  A    between atoms: C_1  and  C_2
REMARK    2  A    between atoms: C_4  and  C_5
REMARK    3  A    between atoms: C_7  and  C_8
REMARK    4  A    between atoms: C_13  and  N_14
REMARK    5  A    between atoms: C_15  and  C_17
REMARK    6  A    between atoms: C_28  and  C_29
REMARK    7  A    between atoms: C_29  and  C_30
REMARK                            x       y       z     vdW  Elec       q    Type
REMARK                         _______ _______ _______ _____ _____    ______ ____
ROOT
ATOM      1  C   UNL     1      -1.439  12.286  18.926  0.00  0.00    +0.000 C 
ATOM      2  O   UNL     1      -1.091  12.819  17.870  0.00  0.00    +0.000 OA
ATOM      3  N   UNL     1      -0.516  11.675  19.798  0.00  0.00    +0.000 N 
ATOM      4  C   UNL     1       0.922  11.854  19.547  0.00  0.00    +0.000 C 
ATOM      5  C   UNL     1       1.661  10.534  19.291  0.00  0.00    +0.000 C 
ATOM      6  C   UNL     1       1.277   9.443  20.297  0.00  0.00    +0.000 C 
ATOM      7  C   UNL     1      -0.243   9.316  20.352  0.00  0.00    +0.000 C 
ATOM      8  C   UNL     1      -0.857  10.644  20.810  0.00  0.00    +0.000 C 
ENDROOT
BRANCH   1  15
ATOM      9  C   UNL     1      -5.137  14.485  21.480  0.00  0.00    +0.000 C 
ATOM     10  C   UNL     1      -4.722  13.447  20.483  0.00  0.00    +0.000 A 
ATOM     11  C   UNL     1      -5.630  12.558  19.911  0.00  0.00    +0.000 A 
ATOM     12  C   UNL     1      -5.194  11.588  18.994  0.00  0.00    +0.000 A 
ATOM     13  C   UNL     1      -6.198  10.709  18.303  0.00  0.00    +0.000 C 
ATOM     14  C   UNL     1      -3.820  11.474  18.703  0.00  0.00    +0.000 A 
ATOM     15  C   UNL     1      -2.894  12.353  19.285  0.00  0.00    +0.000 A 
ATOM     16  C   UNL     1      -3.377  13.366  20.117  0.00  0.00    +0.000 A 
ENDBRANCH   1  15
BRANCH   6  17
ATOM     17  N   UNL     1       1.894   8.168  19.971  0.00  0.00    +0.000 N 
ATOM     18  C   UNL     1       2.108   7.792  18.652  0.00  0.00    +0.000 C 
ATOM     19  O   UNL     1       1.711   8.446  17.702  0.00  0.00    +0.000 OA
ATOM     20  H   UNL     1       2.388   7.683  20.710  0.00  0.00    +0.000 HD
BRANCH  18  21
ATOM     21  C   UNL     1       2.839   6.502  18.460  0.00  0.00    +0.000 A 
ATOM     22  C   UNL     1       3.919   6.499  17.570  0.00  0.00    +0.000 A 
ATOM     23  C   UNL     1       4.618   5.326  17.403  0.00  0.00    +0.000 A 
ATOM     24  N   UNL     1       4.327   4.188  18.059  0.00  0.00    +0.000 NA
ATOM     25  C   UNL     1       3.301   4.188  18.925  0.00  0.00    +0.000 A 
ATOM     26  C   UNL     1       3.034   3.002  19.596  0.00  0.00    +0.000 A 
ATOM     27  C   UNL     1       1.982   2.888  20.504  0.00  0.00    +0.000 A 
ATOM     28  C   UNL     1       1.170   3.983  20.746  0.00  0.00    +0.000 A 
ATOM     29  C   UNL     1       1.423   5.189  20.091  0.00  0.00    +0.000 A 
ATOM     30  C   UNL     1       2.497   5.323  19.173  0.00  0.00    +0.000 A 
ENDBRANCH  18  21
ENDBRANCH   6  17
BRANCH   8  31
ATOM     31  C   UNL     1      -0.425  11.077  22.243  0.00  0.00    +0.000 C 
BRANCH  31  32
ATOM     32  C   UNL     1      -1.333  12.100  22.879  0.00  0.00    +0.000 A 
ATOM     33  C   UNL     1      -0.933  13.439  22.989  0.00  0.00    +0.000 A 
ATOM     34  C   UNL     1      -1.767  14.378  23.597  0.00  0.00    +0.000 A 
ATOM     35  C   UNL     1      -3.015  13.995  24.084  0.00  0.00    +0.000 A 
ATOM     36  C   UNL     1      -3.429  12.670  23.965  0.00  0.00    +0.000 A 
ATOM     37  C   UNL     1      -2.593  11.727  23.369  0.00  0.00    +0.000 A 
ENDBRANCH  31  32
ENDBRANCH   8  31
TORSDOF 5
ENDMDL
MODEL 7
REMARK VINA RESULT:      -8.2      2.113      3.702
REMARK  Name = 
REMARK  7 active torsions:
REMARK  status: ('A' for Active; 'I' for Inactive)
REMARK    1  A    between atoms: C_1  and  C_2
REMARK    2  A    between atoms: C_4  and  C_5
REMARK    3  A    between atoms: C_7  and  C_8
REMARK    4  A    between atoms: C_13  and  N_14
REMARK    5  A    between atoms: C_15  and  C_17
REMARK    6  A    between atoms: C_28  and  C_29
REMARK    7  A    between atoms: C_29  and  C_30
REMARK                            x       y       z     vdW  Elec       q    Type
REMARK                         _______ _______ _______ _____ _____    ______ ____
ROOT
ATOM      1  C   UNL     1      -2.854  12.374  19.740  0.00  0.00    +0.000 C 
ATOM      2  O   UNL     1      -3.770  11.991  19.010  0.00  0.00    +0.000 OA
ATOM      3  N   UNL     1      -1.500  12.118  19.443  0.00  0.00    +0.000 N 
ATOM      4  C   UNL     1      -1.157  11.557  18.128  0.00  0.00    +0.000 C 
ATOM      5  C   UNL     1      -0.461  10.193  18.214  0.00  0.00    +0.000 C 
ATOM      6  C   UNL     1       0.645  10.164  19.275  0.00  0.00    +0.000 C 
ATOM      7  C   UNL     1       0.088  10.675  20.602  0.00  0.00    +0.000 C 
ATOM      8  C   UNL     1      -0.397  12.120  20.437  0.00  0.00    +0.000 C 
ENDROOT
BRANCH   1  15
ATOM      9  C   UNL     1      -4.102  12.526  24.583  0.00  0.00    +0.000 C 
ATOM     10  C   UNL     1      -3.786  13.278  23.326  0.00  0.00    +0.000 A 
ATOM     11  C   UNL     1      -3.846  14.669  23.255  0.00  0.00    +0.000 A 
ATOM     12  C   UNL     1      -3.561  15.332  22.051  0.00  0.00    +0.000 A 
ATOM     13  C   UNL     1      -3.521  16.834  22.018  0.00  0.00    +0.000 C 
ATOM     14  C   UNL     1      -3.275  14.581  20.894  0.00  0.00    +0.000 A 
ATOM     15  C   UNL     1      -3.227  13.180  20.949  0.00  0.00    +0.000 A 
ATOM     16  C   UNL     1      -3.423  12.559  22.186  0.00  0.00    +0.000 A 
ENDBRANCH   1  15
BRANCH   6  17
ATOM     17  N   UNL     1       1.213   8.834  19.427  0.00  0.00    +0.000 N 
ATOM     18  C   UNL     1       2.086   8.316  18.479  0.00  0.00    +0.000 C 
ATOM     19  O   UNL     1       2.347   8.888  17.433  0.00  0.00    +0.000 OA
ATOM     20  H   UNL     1       1.165   8.406  20.342  0.00  0.00    +0.000 HD
BRANCH  18  21
ATOM     21  C   UNL     1       2.673   6.981  18.805  0.00  0.00    +0.000 A 
ATOM     22  C   UNL     1       2.180   6.319  19.935  0.00  0.00    +0.000 A 
ATOM     23  C   UNL     1       2.692   5.078  20.233  0.00  0.00    +0.000 A 
ATOM     24  N   UNL     1       3.629   4.462  19.489  0.00  0.00    +0.000 NA
ATOM     25  C   UNL     1       4.096   5.085  18.396  0.00  0.00    +0.000 A 
ATOM     26  C   UNL     1       5.052   4.418  17.642  0.00  0.00    +0.000 A 
ATOM     27  C   UNL     1       5.615   4.982  16.497  0.00  0.00    +0.000 A 
ATOM     28  C   UNL     1       5.219   6.247  16.096  0.00  0.00    +0.000 A 
ATOM     29  C   UNL     1       4.252   6.934  16.832  0.00  0.00    +0.000 A 
ATOM     30  C   UNL     1       3.662   6.368  17.992  0.00  0.00    +0.000 A 
ENDBRANCH  18  21
ENDBRANCH   6  17
BRANCH   8  31
ATOM     31  C   UNL     1       0.730  13.122  20.046  0.00  0.00    +0.000 C 
BRANCH  31  32
ATOM     32  C   UNL     1       0.307  14.570  20.082  0.00  0.00    +0.000 A 
ATOM     33  C   UNL     1       0.389  15.309  21.270  0.00  0.00    +0.000 A 
ATOM     34  C   UNL     1      -0.023  16.642  21.304  0.00  0.00    +0.000 A 
ATOM     35  C   UNL     1      -0.503  17.255  20.149  0.00  0.00    +0.000 A 
ATOM     36  C   UNL     1      -0.572  16.535  18.959  0.00  0.00    +0.000 A 
ATOM     37  C   UNL     1      -0.173  15.200  18.924  0.00  0.00    +0.000 A 
ENDBRANCH  31  32
ENDBRANCH   8  31
TORSDOF 5
ENDMDL
MODEL 8
REMARK VINA RESULT:      -8.2      1.372      2.418
REMARK  Name = 
REMARK  7 active torsions:
REMARK  status: ('A' for Active; 'I' for Inactive)
REMARK    1  A    between atoms: C_1  and  C_2
REMARK    2  A    between atoms: C_4  and  C_5
REMARK    3  A    between atoms: C_7  and  C_8
REMARK    4  A    between atoms: C_13  and  N_14
REMARK    5  A    between atoms: C_15  and  C_17
REMARK    6  A    between atoms: C_28  and  C_29
REMARK    7  A    between atoms: C_29  and  C_30
REMARK                            x       y       z     vdW  Elec       q    Type
REMARK                         _______ _______ _______ _____ _____    ______ ____
ROOT
ATOM      1  C   UNL     1      -1.584  12.248  18.961  0.00  0.00    +0.000 C 
ATOM      2  O   UNL     1      -1.257  12.635  17.836  0.00  0.00    +0.000 OA
ATOM      3  N   UNL     1      -0.649  11.732  19.880  0.00  0.00    +0.000 N 
ATOM      4  C   UNL     1       0.784  11.844  19.570  0.00  0.00    +0.000 C 
ATOM      5  C   UNL     1       1.489  10.485  19.466  0.00  0.00    +0.000 C 
ATOM      6  C   UNL     1       1.114   9.540  20.612  0.00  0.00    +0.000 C 
ATOM      7  C   UNL     1      -0.407   9.456  20.722  0.00  0.00    +0.000 C 
ATOM      8  C   UNL     1      -0.981  10.845  21.023  0.00  0.00    +0.000 C 
ENDROOT
BRANCH   1  15
ATOM      9  C   UNL     1      -5.117  14.674  21.544  0.00  0.00    +0.000 C 
ATOM     10  C   UNL     1      -4.773  13.599  20.558  0.00  0.00    +0.000 A 
ATOM     11  C   UNL     1      -5.736  12.746  20.020  0.00  0.00    +0.000 A 
ATOM     12  C   UNL     1      -5.367  11.740  19.114  0.00  0.00    +0.000 A 
ATOM     13  C   UNL     1      -6.427  10.901  18.458  0.00  0.00    +0.000 C 
ATOM     14  C   UNL     1      -4.007  11.552  18.799  0.00  0.00    +0.000 A 
ATOM     15  C   UNL     1      -3.027  12.394  19.346  0.00  0.00    +0.000 A 
ATOM     16  C   UNL     1      -3.442  13.444  20.169  0.00  0.00    +0.000 A 
ENDBRANCH   1  15
BRANCH   6  17
ATOM     17  N   UNL     1       1.696   8.219  20.436  0.00  0.00    +0.000 N 
ATOM     18  C   UNL     1       2.025   7.744  19.173  0.00  0.00    +0.000 C 
ATOM     19  O   UNL     1       1.761   8.348  18.146  0.00  0.00    +0.000 OA
ATOM     20  H   UNL     1       2.085   7.766  21.252  0.00  0.00    +0.000 HD
BRANCH  18  21
ATOM     21  C   UNL     1       2.705   6.414  19.142  0.00  0.00    +0.000 A 
ATOM     22  C   UNL     1       2.318   5.469  20.097  0.00  0.00    +0.000 A 
ATOM     23  C   UNL     1       2.917   4.231  20.065  0.00  0.00    +0.000 A 
ATOM     24  N   UNL     1       3.843   3.877  19.156  0.00  0.00    +0.000 NA
ATOM     25  C   UNL     1       4.210   4.775  18.227  0.00  0.00    +0.000 A 
ATOM     26  C   UNL     1       5.158   4.376  17.295  0.00  0.00    +0.000 A 
ATOM     27  C   UNL     1       5.621   5.235  16.298  0.00  0.00    +0.000 A 
ATOM     28  C   UNL     1       5.130   6.528  16.231  0.00  0.00    +0.000 A 
ATOM     29  C   UNL     1       4.168   6.950  17.151  0.00  0.00    +0.000 A 
ATOM     30  C   UNL     1       3.680   6.084  18.163  0.00  0.00    +0.000 A 
ENDBRANCH  18  21
ENDBRANCH   6  17
BRANCH   8  31
ATOM     31  C   UNL     1      -0.499  11.446  22.377  0.00  0.00    +0.000 C 
BRANCH  31  32
ATOM     32  C   UNL     1      -1.524  12.312  23.068  0.00  0.00    +0.000 A 
ATOM     33  C   UNL     1      -1.254  13.660  23.339  0.00  0.00    +0.000 A 
ATOM     34  C   UNL     1      -2.196  14.451  23.997  0.00  0.00    +0.000 A 
ATOM     35  C   UNL     1      -3.423  13.910  24.375  0.00  0.00    +0.000 A 
ATOM     36  C   UNL     1      -3.708  12.576  24.095  0.00  0.00    +0.000 A 
ATOM     37  C   UNL     1      -2.764  11.779  23.449  0.00  0.00    +0.000 A 
ENDBRANCH  31  32
ENDBRANCH   8  31
TORSDOF 5
ENDMDL
MODEL 9
REMARK VINA RESULT:      -8.1      0.680      2.001
REMARK  Name = 
REMARK  7 active torsions:
REMARK  status: ('A' for Active; 'I' for Inactive)
REMARK    1  A    between atoms: C_1  and  C_2
REMARK    2  A    between atoms: C_4  and  C_5
REMARK    3  A    between atoms: C_7  and  C_8
REMARK    4  A    between atoms: C_13  and  N_14
REMARK    5  A    between atoms: C_15  and  C_17
REMARK    6  A    between atoms: C_28  and  C_29
REMARK    7  A    between atoms: C_29  and  C_30
REMARK                            x       y       z     vdW  Elec       q    Type
REMARK                         _______ _______ _______ _____ _____    ______ ____
ROOT
ATOM      1  C   UNL     1      -1.382  12.303  18.524  0.00  0.00    +0.000 C 
ATOM      2  O   UNL     1      -1.135  12.910  17.480  0.00  0.00    +0.000 OA
ATOM      3  N   UNL     1      -0.387  11.612  19.245  0.00  0.00    +0.000 N 
ATOM      4  C   UNL     1       1.020  11.786  18.855  0.00  0.00    +0.000 C 
ATOM      5  C   UNL     1       1.695  10.477  18.425  0.00  0.00    +0.000 C 
ATOM      6  C   UNL     1       1.393   9.319  19.382  0.00  0.00    +0.000 C 
ATOM      7  C   UNL     1      -0.116   9.213  19.589  0.00  0.00    +0.000 C 
ATOM      8  C   UNL     1      -0.645  10.512  20.208  0.00  0.00    +0.000 C 
ENDROOT
BRANCH   1  15
ATOM      9  C   UNL     1      -4.737  14.364  21.612  0.00  0.00    +0.000 C 
ATOM     10  C   UNL     1      -4.454  13.396  20.503  0.00  0.00    +0.000 A 
ATOM     11  C   UNL     1      -5.438  12.567  19.969  0.00  0.00    +0.000 A 
ATOM     12  C   UNL     1      -5.124  11.661  18.943  0.00  0.00    +0.000 A 
ATOM     13  C   UNL     1      -6.217  10.853  18.301  0.00  0.00    +0.000 C 
ATOM     14  C   UNL     1      -3.792  11.547  18.499  0.00  0.00    +0.000 A 
ATOM     15  C   UNL     1      -2.789  12.366  19.041  0.00  0.00    +0.000 A 
ATOM     16  C   UNL     1      -3.157  13.322  19.991  0.00  0.00    +0.000 A 
ENDBRANCH   1  15
BRANCH   6  17
ATOM     17  N   UNL     1       1.941   8.062  18.898  0.00  0.00    +0.000 N 
ATOM     18  C   UNL     1       2.042   6.956  19.732  0.00  0.00    +0.000 C 
ATOM     19  O   UNL     1       1.777   6.995  20.922  0.00  0.00    +0.000 OA
ATOM     20  H   UNL     1       2.008   7.935  17.896  0.00  0.00    +0.000 HD
BRANCH  18  21
ATOM     21  C   UNL     1       2.530   5.702  19.082  0.00  0.00    +0.000 A 
ATOM     22  C   UNL     1       1.981   4.493  19.521  0.00  0.00    +0.000 A 
ATOM     23  C   UNL     1       2.402   3.332  18.914  0.00  0.00    +0.000 A 
ATOM     24  N   UNL     1       3.300   3.300  17.914  0.00  0.00    +0.000 NA
ATOM     25  C   UNL     1       3.820   4.458  17.477  0.00  0.00    +0.000 A 
ATOM     26  C   UNL     1       4.735   4.394  16.435  0.00  0.00    +0.000 A 
ATOM     27  C   UNL     1       5.348   5.535  15.918  0.00  0.00    +0.000 A 
ATOM     28  C   UNL     1       5.045   6.774  16.458  0.00  0.00    +0.000 A 
ATOM     29  C   UNL     1       4.121   6.866  17.500  0.00  0.00    +0.000 A 
ATOM     30  C   UNL     1       3.482   5.715  18.028  0.00  0.00    +0.000 A 
ENDBRANCH  18  21
ENDBRANCH   6  17
BRANCH   8  31
ATOM     31  C   UNL     1      -0.054  10.827  21.615  0.00  0.00    +0.000 C 
BRANCH  31  32
ATOM     32  C   UNL     1      -0.860  11.820  22.415  0.00  0.00    +0.000 A 
ATOM     33  C   UNL     1      -2.003  11.413  23.116  0.00  0.00    +0.000 A 
ATOM     34  C   UNL     1      -2.757  12.339  23.837  0.00  0.00    +0.000 A 
ATOM     35  C   UNL     1      -2.368  13.676  23.881  0.00  0.00    +0.000 A 
ATOM     36  C   UNL     1      -1.224  14.088  23.202  0.00  0.00    +0.000 A 
ATOM     37  C   UNL     1      -0.475  13.167  22.470  0.00  0.00    +0.000 A 
ENDBRANCH  31  32
ENDBRANCH   8  31
TORSDOF 5
ENDMDL
