MODEL 1
REMARK VINA RESULT:      -7.0      0.000      0.000
REMARK  Name = 
REMARK  20 active torsions:
REMARK  status: ('A' for Active; 'I' for Inactive)
REMARK    1  A    between atoms: C_1  and  C_2
REMARK    2  A    between atoms: C_2  and  N_3
REMARK    3  A    between atoms: N_3  and  C_4
REMARK    4  A    between atoms: C_4  and  C_5
REMARK    5  A    between atoms: C_4  and  C_29
REMARK    6  A    between atoms: C_5  and  N_6
REMARK    7  A    between atoms: N_6  and  C_7
REMARK    8  A    between atoms: C_7  and  C_8
REMARK    9  A    between atoms: C_7  and  C_21
REMARK   10  A    between atoms: C_8  and  N_9
REMARK   11  A    between atoms: N_9  and  C_10
REMARK   12  A    between atoms: C_10  and  C_11
REMARK   13  A    between atoms: C_10  and  C_13
REMARK   14  A    between atoms: C_11  and  N_12
REMARK   15  A    between atoms: C_13  and  C_14
REMARK   16  A    between atoms: C_17  and  O_18
REMARK   17  A    between atoms: C_21  and  C_22
REMARK   18  A    between atoms: C_25  and  O_26
REMARK   19  A    between atoms: C_29  and  C_30
REMARK   20  A    between atoms: C_33  and  O_34
REMARK                            x       y       z     vdW  Elec       q    Type
REMARK                         _______ _______ _______ _____ _____    ______ ____
ROOT
ATOM      1  C   UNL     1       3.484   7.132  18.136  0.00  0.00    +0.000 C 
ENDROOT
BRANCH   1   2
ATOM      2  N   UNL     1       2.904   8.491  18.060  0.00  0.00    +0.000 NA
ATOM      3  H   UNL     1       3.089   9.008  18.920  0.00  0.00    +0.000 HD
BRANCH   2   4
ATOM      4  C   UNL     1       1.441   8.467  17.875  0.00  0.00    +0.000 C 
BRANCH   4   5
ATOM      5  C   UNL     1       0.669   9.269  18.965  0.00  0.00    +0.000 C 
BRANCH   5   6
ATOM      6  N   UNL     1       1.533   9.389  20.167  0.00  0.00    +0.000 NA
ATOM      7  H   UNL     1       2.074   8.529  20.264  0.00  0.00    +0.000 HD
BRANCH   6   9
ATOM      8  C   UNL     1      -0.330   8.562  21.507  0.00  0.00    +0.000 C 
ATOM      9  C   UNL     1       0.771   9.604  21.399  0.00  0.00    +0.000 C 
ENDBRANCH   6   9
ENDBRANCH   5   6
BRANCH   5  10
ATOM     10  C   UNL     1       0.176  10.643  18.438  0.00  0.00    +0.000 C 
BRANCH  10  11
ATOM     11  C   UNL     1      -1.295  10.714  18.098  0.00  0.00    +0.000 A 
ATOM     12  C   UNL     1      -1.844   9.911  17.089  0.00  0.00    +0.000 A 
ATOM     13  C   UNL     1      -3.207   9.987  16.789  0.00  0.00    +0.000 A 
ATOM     14  C   UNL     1      -4.016  10.866  17.502  0.00  0.00    +0.000 A 
ATOM     15  C   UNL     1      -3.487  11.671  18.501  0.00  0.00    +0.000 A 
ATOM     16  C   UNL     1      -2.128  11.593  18.803  0.00  0.00    +0.000 A 
BRANCH  14  17
ATOM     17  O   UNL     1      -5.351  10.969  17.249  0.00  0.00    +0.000 OA
ATOM     18  H   UNL     1      -5.553  10.467  16.443  0.00  0.00    +0.000 HD
ENDBRANCH  14  17
ENDBRANCH  10  11
ENDBRANCH   5  10
ENDBRANCH   4   5
ENDBRANCH   2   4
ENDBRANCH   1   2
BRANCH   1  19
ATOM     19  C   UNL     1       4.356   6.815  16.875  0.00  0.00    +0.000 C 
BRANCH  19  20
ATOM     20  N   UNL     1       5.812   6.984  17.003  0.00  0.00    +0.000 NA
ATOM     21  H   UNL     1       5.978   7.757  17.645  0.00  0.00    +0.000 HD
BRANCH  20  22
ATOM     22  C   UNL     1       6.590   5.802  17.446  0.00  0.00    +0.000 C 
BRANCH  22  23
ATOM     23  C   UNL     1       7.378   6.201  18.735  0.00  0.00    +0.000 C 
BRANCH  23  24
ATOM     24  N   UNL     1       7.176   5.290  19.872  0.00  0.00    +0.000 NA
ATOM     25  H   UNL     1       8.044   5.189  20.394  0.00  0.00    +0.000 HD
ATOM     26  H   UNL     1       6.929   4.368  19.514  0.00  0.00    +0.000 HD
ENDBRANCH  23  24
ENDBRANCH  22  23
BRANCH  22  27
ATOM     27  C   UNL     1       7.569   5.270  16.367  0.00  0.00    +0.000 C 
BRANCH  27  28
ATOM     28  C   UNL     1       6.921   4.647  15.142  0.00  0.00    +0.000 A 
ATOM     29  C   UNL     1       5.758   3.871  15.268  0.00  0.00    +0.000 A 
ATOM     30  C   UNL     1       5.101   3.378  14.132  0.00  0.00    +0.000 A 
ATOM     31  C   UNL     1       5.623   3.639  12.871  0.00  0.00    +0.000 A 
ATOM     32  C   UNL     1       6.799   4.362  12.726  0.00  0.00    +0.000 A 
ATOM     33  C   UNL     1       7.441   4.876  13.856  0.00  0.00    +0.000 A 
BRANCH  31  34
ATOM     34  O   UNL     1       4.986   3.223  11.740  0.00  0.00    +0.000 OA
ATOM     35  H   UNL     1       5.361   3.707  10.985  0.00  0.00    +0.000 HD
ENDBRANCH  31  34
ENDBRANCH  27  28
ENDBRANCH  22  27
ENDBRANCH  20  22
ENDBRANCH  19  20
ENDBRANCH   1  19
BRANCH   1  36
ATOM     36  C   UNL     1       2.362   6.061  18.277  0.00  0.00    +0.000 C 
BRANCH  36  37
ATOM     37  C   UNL     1       2.849   4.632  18.318  0.00  0.00    +0.000 A 
ATOM     38  C   UNL     1       2.391   3.688  17.385  0.00  0.00    +0.000 A 
ATOM     39  C   UNL     1       2.828   2.365  17.445  0.00  0.00    +0.000 A 
ATOM     40  C   UNL     1       3.743   1.991  18.419  0.00  0.00    +0.000 A 
ATOM     41  C   UNL     1       4.252   2.923  19.313  0.00  0.00    +0.000 A 
ATOM     42  C   UNL     1       3.808   4.245  19.262  0.00  0.00    +0.000 A 
BRANCH  40  43
ATOM     43  O   UNL     1       4.173   0.702  18.529  0.00  0.00    +0.000 OA
ATOM     44  H   UNL     1       5.126   0.713  18.715  0.00  0.00    +0.000 HD
ENDBRANCH  40  43
ENDBRANCH  36  37
ENDBRANCH   1  36
TORSDOF 19
ENDMDL
MODEL 2
REMARK VINA RESULT:      -7.0      2.934      8.567
REMARK  Name = 
REMARK  20 active torsions:
REMARK  status: ('A' for Active; 'I' for Inactive)
REMARK    1  A    between atoms: C_1  and  C_2
REMARK    2  A    between atoms: C_2  and  N_3
REMARK    3  A    between atoms: N_3  and  C_4
REMARK    4  A    between atoms: C_4  and  C_5
REMARK    5  A    between atoms: C_4  and  C_29
REMARK    6  A    between atoms: C_5  and  N_6
REMARK    7  A    between atoms: N_6  and  C_7
REMARK    8  A    between atoms: C_7  and  C_8
REMARK    9  A    between atoms: C_7  and  C_21
REMARK   10  A    between atoms: C_8  and  N_9
REMARK   11  A    between atoms: N_9  and  C_10
REMARK   12  A    between atoms: C_10  and  C_11
REMARK   13  A    between atoms: C_10  and  C_13
REMARK   14  A    between atoms: C_11  and  N_12
REMARK   15  A    between atoms: C_13  and  C_14
REMARK   16  A    between atoms: C_17  and  O_18
REMARK   17  A    between atoms: C_21  and  C_22
REMARK   18  A    between atoms: C_25  and  O_26
REMARK   19  A    between atoms: C_29  and  C_30
REMARK   20  A    between atoms: C_33  and  O_34
REMARK                            x       y       z     vdW  Elec       q    Type
REMARK                         _______ _______ _______ _____ _____    ______ ____
ROOT
ATOM      1  C   UNL     1       2.785   7.673  17.653  0.00  0.00    +0.000 C 
ENDROOT
BRANCH   1   2
ATOM      2  N   UNL     1       4.200   7.964  17.329  0.00  0.00    +0.000 NA
ATOM      3  H   UNL     1       4.275   8.839  16.811  0.00  0.00    +0.000 HD
BRANCH   2   4
ATOM      4  C   UNL     1       4.812   6.913  16.496  0.00  0.00    +0.000 C 
BRANCH   4   5
ATOM      5  C   UNL     1       6.285   6.593  16.890  0.00  0.00    +0.000 C 
BRANCH   5   6
ATOM      6  N   UNL     1       7.052   7.865  16.929  0.00  0.00    +0.000 NA
ATOM      7  H   UNL     1       7.539   7.977  16.039  0.00  0.00    +0.000 HD
BRANCH   6   9
ATOM      8  C   UNL     1       8.456   9.343  18.268  0.00  0.00    +0.000 C 
ATOM      9  C   UNL     1       8.038   7.905  18.011  0.00  0.00    +0.000 C 
ENDBRANCH   6   9
ENDBRANCH   5   6
BRANCH   5  10
ATOM     10  C   UNL     1       6.373   5.795  18.218  0.00  0.00    +0.000 C 
BRANCH  10  11
ATOM     11  C   UNL     1       5.550   4.528  18.265  0.00  0.00    +0.000 A 
ATOM     12  C   UNL     1       5.155   3.878  17.087  0.00  0.00    +0.000 A 
ATOM     13  C   UNL     1       4.395   2.706  17.149  0.00  0.00    +0.000 A 
ATOM     14  C   UNL     1       4.035   2.189  18.389  0.00  0.00    +0.000 A 
ATOM     15  C   UNL     1       4.415   2.823  19.564  0.00  0.00    +0.000 A 
ATOM     16  C   UNL     1       5.175   3.990  19.503  0.00  0.00    +0.000 A 
BRANCH  14  17
ATOM     17  O   UNL     1       3.301   1.046  18.498  0.00  0.00    +0.000 OA
ATOM     18  H   UNL     1       3.901   0.285  18.427  0.00  0.00    +0.000 HD
ENDBRANCH  14  17
ENDBRANCH  10  11
ENDBRANCH   5  10
ENDBRANCH   4   5
ENDBRANCH   2   4
ENDBRANCH   1   2
BRANCH   1  19
ATOM     19  C   UNL     1       1.891   8.948  17.486  0.00  0.00    +0.000 C 
BRANCH  19  20
ATOM     20  N   UNL     1       2.190  10.099  18.354  0.00  0.00    +0.000 NA
ATOM     21  H   UNL     1       3.165  10.352  18.207  0.00  0.00    +0.000 HD
BRANCH  20  22
ATOM     22  C   UNL     1       1.340  11.303  18.189  0.00  0.00    +0.000 C 
BRANCH  22  23
ATOM     23  C   UNL     1       2.058  12.498  18.894  0.00  0.00    +0.000 C 
BRANCH  23  24
ATOM     24  N   UNL     1       3.039  13.195  18.049  0.00  0.00    +0.000 NA
ATOM     25  H   UNL     1       3.684  13.726  18.632  0.00  0.00    +0.000 HD
ATOM     26  H   UNL     1       2.546  13.864  17.458  0.00  0.00    +0.000 HD
ENDBRANCH  23  24
ENDBRANCH  22  23
BRANCH  22  27
ATOM     27  C   UNL     1      -0.091  11.128  18.763  0.00  0.00    +0.000 C 
BRANCH  27  28
ATOM     28  C   UNL     1      -0.167  10.639  20.199  0.00  0.00    +0.000 A 
ATOM     29  C   UNL     1       0.139   9.307  20.515  0.00  0.00    +0.000 A 
ATOM     30  C   UNL     1       0.168   8.876  21.849  0.00  0.00    +0.000 A 
ATOM     31  C   UNL     1      -0.137   9.773  22.865  0.00  0.00    +0.000 A 
ATOM     32  C   UNL     1      -0.491  11.083  22.572  0.00  0.00    +0.000 A 
ATOM     33  C   UNL     1      -0.495  11.520  21.245  0.00  0.00    +0.000 A 
BRANCH  31  34
ATOM     34  O   UNL     1      -0.070   9.408  24.177  0.00  0.00    +0.000 OA
ATOM     35  H   UNL     1       0.852   9.497  24.469  0.00  0.00    +0.000 HD
ENDBRANCH  31  34
ENDBRANCH  27  28
ENDBRANCH  22  27
ENDBRANCH  20  22
ENDBRANCH  19  20
ENDBRANCH   1  19
BRANCH   1  36
ATOM     36  C   UNL     1       2.653   7.131  19.107  0.00  0.00    +0.000 C 
BRANCH  36  37
ATOM     37  C   UNL     1       1.990   5.779  19.223  0.00  0.00    +0.000 A 
ATOM     38  C   UNL     1       1.693   5.023  18.078  0.00  0.00    +0.000 A 
ATOM     39  C   UNL     1       1.059   3.786  18.192  0.00  0.00    +0.000 A 
ATOM     40  C   UNL     1       0.746   3.292  19.451  0.00  0.00    +0.000 A 
ATOM     41  C   UNL     1       1.084   3.998  20.597  0.00  0.00    +0.000 A 
ATOM     42  C   UNL     1       1.708   5.241  20.484  0.00  0.00    +0.000 A 
BRANCH  40  43
ATOM     43  O   UNL     1       0.101   2.101  19.603  0.00  0.00    +0.000 OA
ATOM     44  H   UNL     1       0.598   1.420  19.120  0.00  0.00    +0.000 HD
ENDBRANCH  40  43
ENDBRANCH  36  37
ENDBRANCH   1  36
TORSDOF 19
ENDMDL
MODEL 3
REMARK VINA RESULT:      -6.9      2.167      3.404
REMARK  Name = 
REMARK  20 active torsions:
REMARK  status: ('A' for Active; 'I' for Inactive)
REMARK    1  A    between atoms: C_1  and  C_2
REMARK    2  A    between atoms: C_2  and  N_3
REMARK    3  A    between atoms: N_3  and  C_4
REMARK    4  A    between atoms: C_4  and  C_5
REMARK    5  A    between atoms: C_4  and  C_29
REMARK    6  A    between atoms: C_5  and  N_6
REMARK    7  A    between atoms: N_6  and  C_7
REMARK    8  A    between atoms: C_7  and  C_8
REMARK    9  A    between atoms: C_7  and  C_21
REMARK   10  A    between atoms: C_8  and  N_9
REMARK   11  A    between atoms: N_9  and  C_10
REMARK   12  A    between atoms: C_10  and  C_11
REMARK   13  A    between atoms: C_10  and  C_13
REMARK   14  A    between atoms: C_11  and  N_12
REMARK   15  A    between atoms: C_13  and  C_14
REMARK   16  A    between atoms: C_17  and  O_18
REMARK   17  A    between atoms: C_21  and  C_22
REMARK   18  A    between atoms: C_25  and  O_26
REMARK   19  A    between atoms: C_29  and  C_30
REMARK   20  A    between atoms: C_33  and  O_34
REMARK                            x       y       z     vdW  Elec       q    Type
REMARK                         _______ _______ _______ _____ _____    ______ ____
ROOT
ATOM      1  C   UNL     1       3.260   7.095  18.247  0.00  0.00    +0.000 C 
ENDROOT
BRANCH   1   2
ATOM      2  N   UNL     1       2.744   8.361  17.681  0.00  0.00    +0.000 NA
ATOM      3  H   UNL     1       2.972   9.144  18.293  0.00  0.00    +0.000 HD
BRANCH   2   4
ATOM      4  C   UNL     1       1.279   8.348  17.521  0.00  0.00    +0.000 C 
BRANCH   4   5
ATOM      5  C   UNL     1       0.621   9.743  17.739  0.00  0.00    +0.000 C 
BRANCH   5   6
ATOM      6  N   UNL     1      -0.821   9.547  18.035  0.00  0.00    +0.000 NA
ATOM      7  H   UNL     1      -1.013   8.545  18.060  0.00  0.00    +0.000 HD
BRANCH   6   9
ATOM      8  C   UNL     1      -3.149   9.952  17.434  0.00  0.00    +0.000 C 
ATOM      9  C   UNL     1      -1.698  10.167  17.040  0.00  0.00    +0.000 C 
ENDBRANCH   6   9
ENDBRANCH   5   6
BRANCH   5  10
ATOM     10  C   UNL     1       1.353  10.568  18.831  0.00  0.00    +0.000 C 
BRANCH  10  11
ATOM     11  C   UNL     1       0.920  10.287  20.251  0.00  0.00    +0.000 A 
ATOM     12  C   UNL     1       0.124  11.198  20.960  0.00  0.00    +0.000 A 
ATOM     13  C   UNL     1      -0.269  10.920  22.272  0.00  0.00    +0.000 A 
ATOM     14  C   UNL     1       0.134   9.731  22.869  0.00  0.00    +0.000 A 
ATOM     15  C   UNL     1       0.925   8.820  22.184  0.00  0.00    +0.000 A 
ATOM     16  C   UNL     1       1.316   9.095  20.873  0.00  0.00    +0.000 A 
BRANCH  14  17
ATOM     17  O   UNL     1      -0.231   9.415  24.144  0.00  0.00    +0.000 OA
ATOM     18  H   UNL     1      -1.040   9.905  24.364  0.00  0.00    +0.000 HD
ENDBRANCH  14  17
ENDBRANCH  10  11
ENDBRANCH   5  10
ENDBRANCH   4   5
ENDBRANCH   2   4
ENDBRANCH   1   2
BRANCH   1  19
ATOM     19  C   UNL     1       4.688   6.765  17.693  0.00  0.00    +0.000 C 
BRANCH  19  20
ATOM     20  N   UNL     1       5.456   5.720  18.389  0.00  0.00    +0.000 NA
ATOM     21  H   UNL     1       4.828   4.936  18.557  0.00  0.00    +0.000 HD
BRANCH  20  22
ATOM     22  C   UNL     1       6.684   5.231  17.718  0.00  0.00    +0.000 C 
BRANCH  22  23
ATOM     23  C   UNL     1       7.892   5.499  18.672  0.00  0.00    +0.000 C 
BRANCH  23  24
ATOM     24  N   UNL     1       7.531   5.567  20.097  0.00  0.00    +0.000 NA
ATOM     25  H   UNL     1       7.873   6.437  20.500  0.00  0.00    +0.000 HD
ATOM     26  H   UNL     1       7.994   4.804  20.589  0.00  0.00    +0.000 HD
ENDBRANCH  23  24
ENDBRANCH  22  23
BRANCH  22  27
ATOM     27  C   UNL     1       6.938   5.896  16.339  0.00  0.00    +0.000 C 
BRANCH  27  28
ATOM     28  C   UNL     1       6.603   5.044  15.127  0.00  0.00    +0.000 A 
ATOM     29  C   UNL     1       5.412   4.303  15.085  0.00  0.00    +0.000 A 
ATOM     30  C   UNL     1       5.050   3.597  13.929  0.00  0.00    +0.000 A 
ATOM     31  C   UNL     1       5.893   3.610  12.826  0.00  0.00    +0.000 A 
ATOM     32  C   UNL     1       7.100   4.295  12.864  0.00  0.00    +0.000 A 
ATOM     33  C   UNL     1       7.449   5.021  14.005  0.00  0.00    +0.000 A 
BRANCH  31  34
ATOM     34  O   UNL     1       5.554   2.979  11.666  0.00  0.00    +0.000 OA
ATOM     35  H   UNL     1       5.408   3.656  10.985  0.00  0.00    +0.000 HD
ENDBRANCH  31  34
ENDBRANCH  27  28
ENDBRANCH  22  27
ENDBRANCH  20  22
ENDBRANCH  19  20
ENDBRANCH   1  19
BRANCH   1  36
ATOM     36  C   UNL     1       2.294   5.915  17.930  0.00  0.00    +0.000 C 
BRANCH  36  37
ATOM     37  C   UNL     1       2.052   4.965  19.079  0.00  0.00    +0.000 A 
ATOM     38  C   UNL     1       2.459   5.294  20.381  0.00  0.00    +0.000 A 
ATOM     39  C   UNL     1       2.254   4.401  21.433  0.00  0.00    +0.000 A 
ATOM     40  C   UNL     1       1.618   3.192  21.188  0.00  0.00    +0.000 A 
ATOM     41  C   UNL     1       1.155   2.875  19.918  0.00  0.00    +0.000 A 
ATOM     42  C   UNL     1       1.369   3.762  18.863  0.00  0.00    +0.000 A 
BRANCH  40  43
ATOM     43  O   UNL     1       1.423   2.280  22.183  0.00  0.00    +0.000 OA
ATOM     44  H   UNL     1       1.720   1.412  21.864  0.00  0.00    +0.000 HD
ENDBRANCH  40  43
ENDBRANCH  36  37
ENDBRANCH   1  36
TORSDOF 19
ENDMDL
MODEL 4
REMARK VINA RESULT:      -6.9      2.218      3.021
REMARK  Name = 
REMARK  20 active torsions:
REMARK  status: ('A' for Active; 'I' for Inactive)
REMARK    1  A    between atoms: C_1  and  C_2
REMARK    2  A    between atoms: C_2  and  N_3
REMARK    3  A    between atoms: N_3  and  C_4
REMARK    4  A    between atoms: C_4  and  C_5
REMARK    5  A    between atoms: C_4  and  C_29
REMARK    6  A    between atoms: C_5  and  N_6
REMARK    7  A    between atoms: N_6  and  C_7
REMARK    8  A    between atoms: C_7  and  C_8
REMARK    9  A    between atoms: C_7  and  C_21
REMARK   10  A    between atoms: C_8  and  N_9
REMARK   11  A    between atoms: N_9  and  C_10
REMARK   12  A    between atoms: C_10  and  C_11
REMARK   13  A    between atoms: C_10  and  C_13
REMARK   14  A    between atoms: C_11  and  N_12
REMARK   15  A    between atoms: C_13  and  C_14
REMARK   16  A    between atoms: C_17  and  O_18
REMARK   17  A    between atoms: C_21  and  C_22
REMARK   18  A    between atoms: C_25  and  O_26
REMARK   19  A    between atoms: C_29  and  C_30
REMARK   20  A    between atoms: C_33  and  O_34
REMARK                            x       y       z     vdW  Elec       q    Type
REMARK                         _______ _______ _______ _____ _____    ______ ____
ROOT
ATOM      1  C   UNL     1       2.544   7.400  18.194  0.00  0.00    +0.000 C 
ENDROOT
BRANCH   1   2
ATOM      2  N   UNL     1       1.497   8.375  17.815  0.00  0.00    +0.000 NA
ATOM      3  H   UNL     1       1.485   8.510  16.804  0.00  0.00    +0.000 HD
BRANCH   2   4
ATOM      4  C   UNL     1       1.715   9.698  18.427  0.00  0.00    +0.000 C 
BRANCH   4   5
ATOM      5  C   UNL     1       0.570  10.128  19.392  0.00  0.00    +0.000 C 
BRANCH   5   6
ATOM      6  N   UNL     1       1.128  10.254  20.763  0.00  0.00    +0.000 NA
ATOM      7  H   UNL     1       2.097  10.568  20.691  0.00  0.00    +0.000 HD
BRANCH   6   9
ATOM      8  C   UNL     1      -0.302   8.408  21.465  0.00  0.00    +0.000 C 
ATOM      9  C   UNL     1       1.099   8.994  21.509  0.00  0.00    +0.000 C 
ENDBRANCH   6   9
ENDBRANCH   5   6
BRANCH   5  10
ATOM     10  C   UNL     1      -0.144  11.419  18.911  0.00  0.00    +0.000 C 
BRANCH  10  11
ATOM     11  C   UNL     1      -1.584  11.240  18.487  0.00  0.00    +0.000 A 
ATOM     12  C   UNL     1      -1.938  10.305  17.505  0.00  0.00    +0.000 A 
ATOM     13  C   UNL     1      -3.275  10.151  17.127  0.00  0.00    +0.000 A 
ATOM     14  C   UNL     1      -4.252  10.932  17.734  0.00  0.00    +0.000 A 
ATOM     15  C   UNL     1      -3.918  11.865  18.705  0.00  0.00    +0.000 A 
ATOM     16  C   UNL     1      -2.585  12.017  19.085  0.00  0.00    +0.000 A 
BRANCH  14  17
ATOM     17  O   UNL     1      -5.568  10.811  17.402  0.00  0.00    +0.000 OA
ATOM     18  H   UNL     1      -5.744   9.886  17.166  0.00  0.00    +0.000 HD
ENDBRANCH  14  17
ENDBRANCH  10  11
ENDBRANCH   5  10
ENDBRANCH   4   5
ENDBRANCH   2   4
ENDBRANCH   1   2
BRANCH   1  19
ATOM     19  C   UNL     1       3.901   7.717  17.480  0.00  0.00    +0.000 C 
BRANCH  19  20
ATOM     20  N   UNL     1       4.860   6.611  17.334  0.00  0.00    +0.000 NA
ATOM     21  H   UNL     1       5.074   6.516  16.343  0.00  0.00    +0.000 HD
BRANCH  20  22
ATOM     22  C   UNL     1       6.125   6.713  18.102  0.00  0.00    +0.000 C 
BRANCH  22  23
ATOM     23  C   UNL     1       7.284   6.966  17.085  0.00  0.00    +0.000 C 
BRANCH  23  24
ATOM     24  N   UNL     1       7.326   6.010  15.968  0.00  0.00    +0.000 NA
ATOM     25  H   UNL     1       6.660   5.257  16.130  0.00  0.00    +0.000 HD
ATOM     26  H   UNL     1       8.254   5.590  15.931  0.00  0.00    +0.000 HD
ENDBRANCH  23  24
ENDBRANCH  22  23
BRANCH  22  27
ATOM     27  C   UNL     1       6.430   5.453  18.954  0.00  0.00    +0.000 C 
BRANCH  27  28
ATOM     28  C   UNL     1       5.565   4.239  18.664  0.00  0.00    +0.000 A 
ATOM     29  C   UNL     1       5.222   3.347  19.692  0.00  0.00    +0.000 A 
ATOM     30  C   UNL     1       4.343   2.282  19.450  0.00  0.00    +0.000 A 
ATOM     31  C   UNL     1       3.829   2.093  18.174  0.00  0.00    +0.000 A 
ATOM     32  C   UNL     1       4.194   2.933  17.131  0.00  0.00    +0.000 A 
ATOM     33  C   UNL     1       5.050   4.011  17.376  0.00  0.00    +0.000 A 
BRANCH  31  34
ATOM     34  O   UNL     1       2.932   1.101  17.910  0.00  0.00    +0.000 OA
ATOM     35  H   UNL     1       2.433   1.349  17.114  0.00  0.00    +0.000 HD
ENDBRANCH  31  34
ENDBRANCH  27  28
ENDBRANCH  22  27
ENDBRANCH  20  22
ENDBRANCH  19  20
ENDBRANCH   1  19
BRANCH   1  36
ATOM     36  C   UNL     1       2.098   5.949  17.845  0.00  0.00    +0.000 C 
BRANCH  36  37
ATOM     37  C   UNL     1       1.862   5.052  19.038  0.00  0.00    +0.000 A 
ATOM     38  C   UNL     1       2.386   5.380  20.298  0.00  0.00    +0.000 A 
ATOM     39  C   UNL     1       2.184   4.534  21.389  0.00  0.00    +0.000 A 
ATOM     40  C   UNL     1       1.436   3.376  21.226  0.00  0.00    +0.000 A 
ATOM     41  C   UNL     1       0.860   3.066  20.002  0.00  0.00    +0.000 A 
ATOM     42  C   UNL     1       1.071   3.905  18.907  0.00  0.00    +0.000 A 
BRANCH  40  43
ATOM     43  O   UNL     1       1.239   2.510  22.261  0.00  0.00    +0.000 OA
ATOM     44  H   UNL     1       1.967   1.867  22.263  0.00  0.00    +0.000 HD
ENDBRANCH  40  43
ENDBRANCH  36  37
ENDBRANCH   1  36
TORSDOF 19
ENDMDL
MODEL 5
REMARK VINA RESULT:      -6.8      0.990      1.583
REMARK  Name = 
REMARK  20 active torsions:
REMARK  status: ('A' for Active; 'I' for Inactive)
REMARK    1  A    between atoms: C_1  and  C_2
REMARK    2  A    between atoms: C_2  and  N_3
REMARK    3  A    between atoms: N_3  and  C_4
REMARK    4  A    between atoms: C_4  and  C_5
REMARK    5  A    between atoms: C_4  and  C_29
REMARK    6  A    between atoms: C_5  and  N_6
REMARK    7  A    between atoms: N_6  and  C_7
REMARK    8  A    between atoms: C_7  and  C_8
REMARK    9  A    between atoms: C_7  and  C_21
REMARK   10  A    between atoms: C_8  and  N_9
REMARK   11  A    between atoms: N_9  and  C_10
REMARK   12  A    between atoms: C_10  and  C_11
REMARK   13  A    between atoms: C_10  and  C_13
REMARK   14  A    between atoms: C_11  and  N_12
REMARK   15  A    between atoms: C_13  and  C_14
REMARK   16  A    between atoms: C_17  and  O_18
REMARK   17  A    between atoms: C_21  and  C_22
REMARK   18  A    between atoms: C_25  and  O_26
REMARK   19  A    between atoms: C_29  and  C_30
REMARK   20  A    between atoms: C_33  and  O_34
REMARK                            x       y       z     vdW  Elec       q    Type
REMARK                         _______ _______ _______ _____ _____    ______ ____
ROOT
ATOM      1  C   UNL     1       3.050   7.039  18.755  0.00  0.00    +0.000 C 
ENDROOT
BRANCH   1   2
ATOM      2  N   UNL     1       2.208   8.231  18.510  0.00  0.00    +0.000 NA
ATOM      3  H   UNL     1       2.762   8.980  18.095  0.00  0.00    +0.000 HD
BRANCH   2   4
ATOM      4  C   UNL     1       1.616   8.765  19.750  0.00  0.00    +0.000 C 
BRANCH   4   5
ATOM      5  C   UNL     1       0.121   9.173  19.595  0.00  0.00    +0.000 C 
BRANCH   5   6
ATOM      6  N   UNL     1      -0.471   9.328  20.949  0.00  0.00    +0.000 NA
ATOM      7  H   UNL     1      -1.467   9.524  20.846  0.00  0.00    +0.000 HD
BRANCH   6   9
ATOM      8  C   UNL     1      -0.673  10.668  22.976  0.00  0.00    +0.000 C 
ATOM      9  C   UNL     1       0.143  10.410  21.720  0.00  0.00    +0.000 C 
ENDBRANCH   6   9
ENDBRANCH   5   6
BRANCH   5  10
ATOM     10  C   UNL     1      -0.051  10.438  18.713  0.00  0.00    +0.000 C 
BRANCH  10  11
ATOM     11  C   UNL     1      -1.442  10.659  18.167  0.00  0.00    +0.000 A 
ATOM     12  C   UNL     1      -2.330  11.551  18.784  0.00  0.00    +0.000 A 
ATOM     13  C   UNL     1      -3.612  11.745  18.264  0.00  0.00    +0.000 A 
ATOM     14  C   UNL     1      -4.001  11.046  17.126  0.00  0.00    +0.000 A 
ATOM     15  C   UNL     1      -3.136  10.157  16.504  0.00  0.00    +0.000 A 
ATOM     16  C   UNL     1      -1.855   9.965  17.021  0.00  0.00    +0.000 A 
BRANCH  14  17
ATOM     17  O   UNL     1      -5.239  11.209  16.579  0.00  0.00    +0.000 OA
ATOM     18  H   UNL     1      -5.192  10.986  15.635  0.00  0.00    +0.000 HD
ENDBRANCH  14  17
ENDBRANCH  10  11
ENDBRANCH   5  10
ENDBRANCH   4   5
ENDBRANCH   2   4
ENDBRANCH   1   2
BRANCH   1  19
ATOM     19  C   UNL     1       3.701   6.520  17.428  0.00  0.00    +0.000 C 
BRANCH  19  20
ATOM     20  N   UNL     1       5.092   6.920  17.160  0.00  0.00    +0.000 NA
ATOM     21  H   UNL     1       5.134   7.936  17.200  0.00  0.00    +0.000 HD
BRANCH  20  22
ATOM     22  C   UNL     1       6.136   6.350  18.045  0.00  0.00    +0.000 C 
BRANCH  22  23
ATOM     23  C   UNL     1       7.411   7.245  17.922  0.00  0.00    +0.000 C 
BRANCH  23  24
ATOM     24  N   UNL     1       8.410   7.020  18.977  0.00  0.00    +0.000 NA
ATOM     25  H   UNL     1       8.224   6.137  19.450  0.00  0.00    +0.000 HD
ATOM     26  H   UNL     1       8.324   7.759  19.673  0.00  0.00    +0.000 HD
ENDBRANCH  23  24
ENDBRANCH  22  23
BRANCH  22  27
ATOM     27  C   UNL     1       6.488   4.876  17.710  0.00  0.00    +0.000 C 
BRANCH  27  28
ATOM     28  C   UNL     1       6.436   4.506  16.238  0.00  0.00    +0.000 A 
ATOM     29  C   UNL     1       5.394   3.708  15.740  0.00  0.00    +0.000 A 
ATOM     30  C   UNL     1       5.287   3.448  14.367  0.00  0.00    +0.000 A 
ATOM     31  C   UNL     1       6.237   3.964  13.495  0.00  0.00    +0.000 A 
ATOM     32  C   UNL     1       7.303   4.714  13.971  0.00  0.00    +0.000 A 
ATOM     33  C   UNL     1       7.397   4.996  15.337  0.00  0.00    +0.000 A 
BRANCH  31  34
ATOM     34  O   UNL     1       6.140   3.777  12.148  0.00  0.00    +0.000 OA
ATOM     35  H   UNL     1       5.198   3.769  11.910  0.00  0.00    +0.000 HD
ENDBRANCH  31  34
ENDBRANCH  27  28
ENDBRANCH  22  27
ENDBRANCH  20  22
ENDBRANCH  19  20
ENDBRANCH   1  19
BRANCH   1  36
ATOM     36  C   UNL     1       2.212   5.897  19.406  0.00  0.00    +0.000 C 
BRANCH  36  37
ATOM     37  C   UNL     1       2.696   4.500  19.097  0.00  0.00    +0.000 A 
ATOM     38  C   UNL     1       3.694   3.896  19.878  0.00  0.00    +0.000 A 
ATOM     39  C   UNL     1       4.152   2.615  19.571  0.00  0.00    +0.000 A 
ATOM     40  C   UNL     1       3.595   1.927  18.502  0.00  0.00    +0.000 A 
ATOM     41  C   UNL     1       2.565   2.485  17.756  0.00  0.00    +0.000 A 
ATOM     42  C   UNL     1       2.114   3.771  18.054  0.00  0.00    +0.000 A 
BRANCH  40  43
ATOM     43  O   UNL     1       4.034   0.685  18.153  0.00  0.00    +0.000 OA
ATOM     44  H   UNL     1       4.933   0.569  18.503  0.00  0.00    +0.000 HD
ENDBRANCH  40  43
ENDBRANCH  36  37
ENDBRANCH   1  36
TORSDOF 19
ENDMDL
MODEL 6
REMARK VINA RESULT:      -6.8      1.855      2.404
REMARK  Name = 
REMARK  20 active torsions:
REMARK  status: ('A' for Active; 'I' for Inactive)
REMARK    1  A    between atoms: C_1  and  C_2
REMARK    2  A    between atoms: C_2  and  N_3
REMARK    3  A    between atoms: N_3  and  C_4
REMARK    4  A    between atoms: C_4  and  C_5
REMARK    5  A    between atoms: C_4  and  C_29
REMARK    6  A    between atoms: C_5  and  N_6
REMARK    7  A    between atoms: N_6  and  C_7
REMARK    8  A    between atoms: C_7  and  C_8
REMARK    9  A    between atoms: C_7  and  C_21
REMARK   10  A    between atoms: C_8  and  N_9
REMARK   11  A    between atoms: N_9  and  C_10
REMARK   12  A    between atoms: C_10  and  C_11
REMARK   13  A    between atoms: C_10  and  C_13
REMARK   14  A    between atoms: C_11  and  N_12
REMARK   15  A    between atoms: C_13  and  C_14
REMARK   16  A    between atoms: C_17  and  O_18
REMARK   17  A    between atoms: C_21  and  C_22
REMARK   18  A    between atoms: C_25  and  O_26
REMARK   19  A    between atoms: C_29  and  C_30
REMARK   20  A    between atoms: C_33  and  O_34
REMARK                            x       y       z     vdW  Elec       q    Type
REMARK                         _______ _______ _______ _____ _____    ______ ____
ROOT
ATOM      1  C   UNL     1       2.672   6.963  18.204  0.00  0.00    +0.000 C 
ENDROOT
BRANCH   1   2
ATOM      2  N   UNL     1       1.907   8.091  17.627  0.00  0.00    +0.000 NA
ATOM      3  H   UNL     1       1.902   8.035  16.608  0.00  0.00    +0.000 HD
BRANCH   2   4
ATOM      4  C   UNL     1       2.481   9.400  17.986  0.00  0.00    +0.000 C 
BRANCH   4   5
ATOM      5  C   UNL     1       1.529  10.274  18.857  0.00  0.00    +0.000 C 
BRANCH   5   6
ATOM      6  N   UNL     1       1.373  11.600  18.205  0.00  0.00    +0.000 NA
ATOM      7  H   UNL     1       1.451  11.475  17.195  0.00  0.00    +0.000 HD
BRANCH   6   9
ATOM      8  C   UNL     1       2.090  13.922  18.009  0.00  0.00    +0.000 C 
ATOM      9  C   UNL     1       2.382  12.569  18.636  0.00  0.00    +0.000 C 
ENDBRANCH   6   9
ENDBRANCH   5   6
BRANCH   5  10
ATOM     10  C   UNL     1       0.171   9.569  19.122  0.00  0.00    +0.000 C 
BRANCH  10  11
ATOM     11  C   UNL     1      -1.027  10.211  18.462  0.00  0.00    +0.000 A 
ATOM     12  C   UNL     1      -1.423   9.847  17.168  0.00  0.00    +0.000 A 
ATOM     13  C   UNL     1      -2.535  10.450  16.574  0.00  0.00    +0.000 A 
ATOM     14  C   UNL     1      -3.249  11.413  17.279  0.00  0.00    +0.000 A 
ATOM     15  C   UNL     1      -2.869  11.788  18.560  0.00  0.00    +0.000 A 
ATOM     16  C   UNL     1      -1.760  11.185  19.154  0.00  0.00    +0.000 A 
BRANCH  14  17
ATOM     17  O   UNL     1      -4.344  12.023  16.743  0.00  0.00    +0.000 OA
ATOM     18  H   UNL     1      -4.061  12.550  15.978  0.00  0.00    +0.000 HD
ENDBRANCH  14  17
ENDBRANCH  10  11
ENDBRANCH   5  10
ENDBRANCH   4   5
ENDBRANCH   2   4
ENDBRANCH   1   2
BRANCH   1  19
ATOM     19  C   UNL     1       4.138   6.931  17.653  0.00  0.00    +0.000 C 
BRANCH  19  20
ATOM     20  N   UNL     1       5.050   5.927  18.226  0.00  0.00    +0.000 NA
ATOM     21  H   UNL     1       4.809   5.024  17.821  0.00  0.00    +0.000 HD
BRANCH  20  22
ATOM     22  C   UNL     1       6.503   6.169  18.058  0.00  0.00    +0.000 C 
BRANCH  22  23
ATOM     23  C   UNL     1       6.680   7.472  17.215  0.00  0.00    +0.000 C 
BRANCH  23  24
ATOM     24  N   UNL     1       7.941   8.186  17.464  0.00  0.00    +0.000 NA
ATOM     25  H   UNL     1       8.486   7.693  18.169  0.00  0.00    +0.000 HD
ATOM     26  H   UNL     1       7.726   9.109  17.839  0.00  0.00    +0.000 HD
ENDBRANCH  23  24
ENDBRANCH  22  23
BRANCH  22  27
ATOM     27  C   UNL     1       7.248   4.990  17.378  0.00  0.00    +0.000 C 
BRANCH  27  28
ATOM     28  C   UNL     1       6.794   4.652  15.969  0.00  0.00    +0.000 A 
ATOM     29  C   UNL     1       7.500   5.139  14.857  0.00  0.00    +0.000 A 
ATOM     30  C   UNL     1       7.146   4.749  13.558  0.00  0.00    +0.000 A 
ATOM     31  C   UNL     1       6.069   3.893  13.369  0.00  0.00    +0.000 A 
ATOM     32  C   UNL     1       5.326   3.439  14.451  0.00  0.00    +0.000 A 
ATOM     33  C   UNL     1       5.694   3.806  15.748  0.00  0.00    +0.000 A 
BRANCH  31  34
ATOM     34  O   UNL     1       5.725   3.449  12.127  0.00  0.00    +0.000 OA
ATOM     35  H   UNL     1       4.771   3.591  12.008  0.00  0.00    +0.000 HD
ENDBRANCH  31  34
ENDBRANCH  27  28
ENDBRANCH  22  27
ENDBRANCH  20  22
ENDBRANCH  19  20
ENDBRANCH   1  19
BRANCH   1  36
ATOM     36  C   UNL     1       1.970   5.607  17.897  0.00  0.00    +0.000 C 
BRANCH  36  37
ATOM     37  C   UNL     1       1.833   4.681  19.083  0.00  0.00    +0.000 A 
ATOM     38  C   UNL     1       1.286   3.397  18.933  0.00  0.00    +0.000 A 
ATOM     39  C   UNL     1       1.141   2.557  20.037  0.00  0.00    +0.000 A 
ATOM     40  C   UNL     1       1.567   2.990  21.285  0.00  0.00    +0.000 A 
ATOM     41  C   UNL     1       2.164   4.233  21.442  0.00  0.00    +0.000 A 
ATOM     42  C   UNL     1       2.300   5.079  20.341  0.00  0.00    +0.000 A 
BRANCH  40  43
ATOM     43  O   UNL     1       1.417   2.210  22.394  0.00  0.00    +0.000 OA
ATOM     44  H   UNL     1       2.108   2.451  23.032  0.00  0.00    +0.000 HD
ENDBRANCH  40  43
ENDBRANCH  36  37
ENDBRANCH   1  36
TORSDOF 19
ENDMDL
MODEL 7
REMARK VINA RESULT:      -6.8      2.295      9.026
REMARK  Name = 
REMARK  20 active torsions:
REMARK  status: ('A' for Active; 'I' for Inactive)
REMARK    1  A    between atoms: C_1  and  C_2
REMARK    2  A    between atoms: C_2  and  N_3
REMARK    3  A    between atoms: N_3  and  C_4
REMARK    4  A    between atoms: C_4  and  C_5
REMARK    5  A    between atoms: C_4  and  C_29
REMARK    6  A    between atoms: C_5  and  N_6
REMARK    7  A    between atoms: N_6  and  C_7
REMARK    8  A    between atoms: C_7  and  C_8
REMARK    9  A    between atoms: C_7  and  C_21
REMARK   10  A    between atoms: C_8  and  N_9
REMARK   11  A    between atoms: N_9  and  C_10
REMARK   12  A    between atoms: C_10  and  C_11
REMARK   13  A    between atoms: C_10  and  C_13
REMARK   14  A    between atoms: C_11  and  N_12
REMARK   15  A    between atoms: C_13  and  C_14
REMARK   16  A    between atoms: C_17  and  O_18
REMARK   17  A    between atoms: C_21  and  C_22
REMARK   18  A    between atoms: C_25  and  O_26
REMARK   19  A    between atoms: C_29  and  C_30
REMARK   20  A    between atoms: C_33  and  O_34
REMARK                            x       y       z     vdW  Elec       q    Type
REMARK                         _______ _______ _______ _____ _____    ______ ____
ROOT
ATOM      1  C   UNL     1       2.699   7.663  18.096  0.00  0.00    +0.000 C 
ENDROOT
BRANCH   1   2
ATOM      2  N   UNL     1       4.167   7.564  17.939  0.00  0.00    +0.000 NA
ATOM      3  H   UNL     1       4.576   8.491  17.819  0.00  0.00    +0.000 HD
BRANCH   2   4
ATOM      4  C   UNL     1       4.553   6.763  16.763  0.00  0.00    +0.000 C 
BRANCH   4   5
ATOM      5  C   UNL     1       5.478   5.559  17.113  0.00  0.00    +0.000 C 
BRANCH   5   6
ATOM      6  N   UNL     1       5.400   5.311  18.576  0.00  0.00    +0.000 NA
ATOM      7  H   UNL     1       4.704   5.943  18.975  0.00  0.00    +0.000 HD
BRANCH   6   9
ATOM      8  C   UNL     1       7.813   5.018  18.392  0.00  0.00    +0.000 C 
ATOM      9  C   UNL     1       6.675   5.527  19.261  0.00  0.00    +0.000 C 
ENDBRANCH   6   9
ENDBRANCH   5   6
BRANCH   5  10
ATOM     10  C   UNL     1       5.141   4.301  16.270  0.00  0.00    +0.000 C 
BRANCH  10  11
ATOM     11  C   UNL     1       5.761   4.265  14.892  0.00  0.00    +0.000 A 
ATOM     12  C   UNL     1       5.158   3.553  13.845  0.00  0.00    +0.000 A 
ATOM     13  C   UNL     1       5.744   3.532  12.577  0.00  0.00    +0.000 A 
ATOM     14  C   UNL     1       6.930   4.224  12.360  0.00  0.00    +0.000 A 
ATOM     15  C   UNL     1       7.543   4.930  13.385  0.00  0.00    +0.000 A 
ATOM     16  C   UNL     1       6.957   4.954  14.651  0.00  0.00    +0.000 A 
BRANCH  14  17
ATOM     17  O   UNL     1       7.534   4.237  11.137  0.00  0.00    +0.000 OA
ATOM     18  H   UNL     1       8.240   3.570  11.134  0.00  0.00    +0.000 HD
ENDBRANCH  14  17
ENDBRANCH  10  11
ENDBRANCH   5  10
ENDBRANCH   4   5
ENDBRANCH   2   4
ENDBRANCH   1   2
BRANCH   1  19
ATOM     19  C   UNL     1       2.226   9.156  18.089  0.00  0.00    +0.000 C 
BRANCH  19  20
ATOM     20  N   UNL     1       0.867   9.430  17.594  0.00  0.00    +0.000 NA
ATOM     21  H   UNL     1       0.272   8.655  17.880  0.00  0.00    +0.000 HD
BRANCH  20  22
ATOM     22  C   UNL     1       0.245  10.709  18.013  0.00  0.00    +0.000 C 
BRANCH  22  23
ATOM     23  C   UNL     1       1.316  11.529  18.800  0.00  0.00    +0.000 C 
BRANCH  23  24
ATOM     24  N   UNL     1       1.766  12.749  18.113  0.00  0.00    +0.000 NA
ATOM     25  H   UNL     1       1.126  12.977  17.355  0.00  0.00    +0.000 HD
ATOM     26  H   UNL     1       2.678  12.573  17.695  0.00  0.00    +0.000 HD
ENDBRANCH  23  24
ENDBRANCH  22  23
BRANCH  22  27
ATOM     27  C   UNL     1      -1.024  10.518  18.884  0.00  0.00    +0.000 C 
BRANCH  27  28
ATOM     28  C   UNL     1      -0.774  10.230  20.355  0.00  0.00    +0.000 A 
ATOM     29  C   UNL     1      -0.323   8.967  20.767  0.00  0.00    +0.000 A 
ATOM     30  C   UNL     1       0.005   8.728  22.109  0.00  0.00    +0.000 A 
ATOM     31  C   UNL     1      -0.145   9.744  23.043  0.00  0.00    +0.000 A 
ATOM     32  C   UNL     1      -0.636  10.987  22.666  0.00  0.00    +0.000 A 
ATOM     33  C   UNL     1      -0.939  11.235  21.325  0.00  0.00    +0.000 A 
BRANCH  31  34
ATOM     34  O   UNL     1       0.212   9.568  24.347  0.00  0.00    +0.000 OA
ATOM     35  H   UNL     1      -0.084  10.346  24.849  0.00  0.00    +0.000 HD
ENDBRANCH  31  34
ENDBRANCH  27  28
ENDBRANCH  22  27
ENDBRANCH  20  22
ENDBRANCH  19  20
ENDBRANCH   1  19
BRANCH   1  36
ATOM     36  C   UNL     1       2.238   6.976  19.416  0.00  0.00    +0.000 C 
BRANCH  36  37
ATOM     37  C   UNL     1       2.060   5.479  19.325  0.00  0.00    +0.000 A 
ATOM     38  C   UNL     1       2.120   4.676  20.474  0.00  0.00    +0.000 A 
ATOM     39  C   UNL     1       1.979   3.292  20.377  0.00  0.00    +0.000 A 
ATOM     40  C   UNL     1       1.751   2.713  19.137  0.00  0.00    +0.000 A 
ATOM     41  C   UNL     1       1.629   3.496  17.997  0.00  0.00    +0.000 A 
ATOM     42  C   UNL     1       1.781   4.880  18.090  0.00  0.00    +0.000 A 
BRANCH  40  43
ATOM     43  O   UNL     1       1.636   1.361  18.996  0.00  0.00    +0.000 OA
ATOM     44  H   UNL     1       1.669   0.959  19.880  0.00  0.00    +0.000 HD
ENDBRANCH  40  43
ENDBRANCH  36  37
ENDBRANCH   1  36
TORSDOF 19
ENDMDL
MODEL 8
REMARK VINA RESULT:      -6.8      2.236      9.241
REMARK  Name = 
REMARK  20 active torsions:
REMARK  status: ('A' for Active; 'I' for Inactive)
REMARK    1  A    between atoms: C_1  and  C_2
REMARK    2  A    between atoms: C_2  and  N_3
REMARK    3  A    between atoms: N_3  and  C_4
REMARK    4  A    between atoms: C_4  and  C_5
REMARK    5  A    between atoms: C_4  and  C_29
REMARK    6  A    between atoms: C_5  and  N_6
REMARK    7  A    between atoms: N_6  and  C_7
REMARK    8  A    between atoms: C_7  and  C_8
REMARK    9  A    between atoms: C_7  and  C_21
REMARK   10  A    between atoms: C_8  and  N_9
REMARK   11  A    between atoms: N_9  and  C_10
REMARK   12  A    between atoms: C_10  and  C_11
REMARK   13  A    between atoms: C_10  and  C_13
REMARK   14  A    between atoms: C_11  and  N_12
REMARK   15  A    between atoms: C_13  and  C_14
REMARK   16  A    between atoms: C_17  and  O_18
REMARK   17  A    between atoms: C_21  and  C_22
REMARK   18  A    between atoms: C_25  and  O_26
REMARK   19  A    between atoms: C_29  and  C_30
REMARK   20  A    between atoms: C_33  and  O_34
REMARK                            x       y       z     vdW  Elec       q    Type
REMARK                         _______ _______ _______ _____ _____    ______ ____
ROOT
ATOM      1  C   UNL     1       2.836   7.408  17.971  0.00  0.00    +0.000 C 
ENDROOT
BRANCH   1   2
ATOM      2  N   UNL     1       4.105   6.987  17.334  0.00  0.00    +0.000 NA
ATOM      3  H   UNL     1       3.926   6.297  16.605  0.00  0.00    +0.000 HD
BRANCH   2   4
ATOM      4  C   UNL     1       5.037   6.371  18.296  0.00  0.00    +0.000 C 
BRANCH   4   5
ATOM      5  C   UNL     1       5.608   5.004  17.812  0.00  0.00    +0.000 C 
BRANCH   5   6
ATOM      6  N   UNL     1       5.654   4.074  18.970  0.00  0.00    +0.000 NA
ATOM      7  H   UNL     1       6.609   3.729  19.070  0.00  0.00    +0.000 HD
BRANCH   6   9
ATOM      8  C   UNL     1       4.564   2.248  20.163  0.00  0.00    +0.000 C 
ATOM      9  C   UNL     1       4.756   2.928  18.818  0.00  0.00    +0.000 C 
ENDBRANCH   6   9
ENDBRANCH   5   6
BRANCH   5  10
ATOM     10  C   UNL     1       4.811   4.432  16.610  0.00  0.00    +0.000 C 
BRANCH  10  11
ATOM     11  C   UNL     1       5.554   4.413  15.294  0.00  0.00    +0.000 A 
ATOM     12  C   UNL     1       6.814   5.014  15.165  0.00  0.00    +0.000 A 
ATOM     13  C   UNL     1       7.488   4.986  13.942  0.00  0.00    +0.000 A 
ATOM     14  C   UNL     1       6.899   4.354  12.851  0.00  0.00    +0.000 A 
ATOM     15  C   UNL     1       5.651   3.758  12.960  0.00  0.00    +0.000 A 
ATOM     16  C   UNL     1       4.979   3.783  14.182  0.00  0.00    +0.000 A 
BRANCH  14  17
ATOM     17  O   UNL     1       7.522   4.296  11.640  0.00  0.00    +0.000 OA
ATOM     18  H   UNL     1       8.048   5.104  11.524  0.00  0.00    +0.000 HD
ENDBRANCH  14  17
ENDBRANCH  10  11
ENDBRANCH   5  10
ENDBRANCH   4   5
ENDBRANCH   2   4
ENDBRANCH   1   2
BRANCH   1  19
ATOM     19  C   UNL     1       2.811   8.954  18.218  0.00  0.00    +0.000 C 
BRANCH  19  20
ATOM     20  N   UNL     1       1.752   9.726  17.548  0.00  0.00    +0.000 NA
ATOM     21  H   UNL     1       1.160   9.067  17.046  0.00  0.00    +0.000 HD
BRANCH  20  22
ATOM     22  C   UNL     1       0.906  10.591  18.406  0.00  0.00    +0.000 C 
BRANCH  22  23
ATOM     23  C   UNL     1       1.723  11.879  18.744  0.00  0.00    +0.000 C 
BRANCH  23  24
ATOM     24  N   UNL     1       2.509  12.407  17.618  0.00  0.00    +0.000 NA
ATOM     25  H   UNL     1       3.102  11.674  17.234  0.00  0.00    +0.000 HD
ATOM     26  H   UNL     1       3.124  13.142  17.965  0.00  0.00    +0.000 HD
ENDBRANCH  23  24
ENDBRANCH  22  23
BRANCH  22  27
ATOM     27  C   UNL     1       0.445   9.895  19.714  0.00  0.00    +0.000 C 
BRANCH  27  28
ATOM     28  C   UNL     1      -0.404  10.744  20.645  0.00  0.00    +0.000 A 
ATOM     29  C   UNL     1      -1.365  11.626  20.127  0.00  0.00    +0.000 A 
ATOM     30  C   UNL     1      -2.219  12.335  20.983  0.00  0.00    +0.000 A 
ATOM     31  C   UNL     1      -2.093  12.183  22.358  0.00  0.00    +0.000 A 
ATOM     32  C   UNL     1      -1.117  11.354  22.893  0.00  0.00    +0.000 A 
ATOM     33  C   UNL     1      -0.282  10.626  22.041  0.00  0.00    +0.000 A 
BRANCH  31  34
ATOM     34  O   UNL     1      -2.938  12.814  23.222  0.00  0.00    +0.000 OA
ATOM     35  H   UNL     1      -2.450  13.540  23.646  0.00  0.00    +0.000 HD
ENDBRANCH  31  34
ENDBRANCH  27  28
ENDBRANCH  22  27
ENDBRANCH  20  22
ENDBRANCH  19  20
ENDBRANCH   1  19
BRANCH   1  36
ATOM     36  C   UNL     1       2.623   6.660  19.321  0.00  0.00    +0.000 C 
BRANCH  36  37
ATOM     37  C   UNL     1       2.005   5.288  19.196  0.00  0.00    +0.000 A 
ATOM     38  C   UNL     1       1.840   4.684  17.939  0.00  0.00    +0.000 A 
ATOM     39  C   UNL     1       1.247   3.427  17.831  0.00  0.00    +0.000 A 
ATOM     40  C   UNL     1       0.843   2.761  18.980  0.00  0.00    +0.000 A 
ATOM     41  C   UNL     1       1.051   3.316  20.235  0.00  0.00    +0.000 A 
ATOM     42  C   UNL     1       1.634   4.578  20.345  0.00  0.00    +0.000 A 
BRANCH  40  43
ATOM     43  O   UNL     1       0.233   1.543  18.914  0.00  0.00    +0.000 OA
ATOM     44  H   UNL     1       0.693   1.007  18.247  0.00  0.00    +0.000 HD
ENDBRANCH  40  43
ENDBRANCH  36  37
ENDBRANCH   1  36
TORSDOF 19
ENDMDL
MODEL 9
REMARK VINA RESULT:      -6.8      1.488      1.943
REMARK  Name = 
REMARK  20 active torsions:
REMARK  status: ('A' for Active; 'I' for Inactive)
REMARK    1  A    between atoms: C_1  and  C_2
REMARK    2  A    between atoms: C_2  and  N_3
REMARK    3  A    between atoms: N_3  and  C_4
REMARK    4  A    between atoms: C_4  and  C_5
REMARK    5  A    between atoms: C_4  and  C_29
REMARK    6  A    between atoms: C_5  and  N_6
REMARK    7  A    between atoms: N_6  and  C_7
REMARK    8  A    between atoms: C_7  and  C_8
REMARK    9  A    between atoms: C_7  and  C_21
REMARK   10  A    between atoms: C_8  and  N_9
REMARK   11  A    between atoms: N_9  and  C_10
REMARK   12  A    between atoms: C_10  and  C_11
REMARK   13  A    between atoms: C_10  and  C_13
REMARK   14  A    between atoms: C_11  and  N_12
REMARK   15  A    between atoms: C_13  and  C_14
REMARK   16  A    between atoms: C_17  and  O_18
REMARK   17  A    between atoms: C_21  and  C_22
REMARK   18  A    between atoms: C_25  and  O_26
REMARK   19  A    between atoms: C_29  and  C_30
REMARK   20  A    between atoms: C_33  and  O_34
REMARK                            x       y       z     vdW  Elec       q    Type
REMARK                         _______ _______ _______ _____ _____    ______ ____
ROOT
ATOM      1  C   UNL     1       2.329   7.239  19.782  0.00  0.00    +0.000 C 
ENDROOT
BRANCH   1   2
ATOM      2  N   UNL     1       1.560   8.500  19.865  0.00  0.00    +0.000 NA
ATOM      3  H   UNL     1       2.163   9.299  19.670  0.00  0.00    +0.000 HD
BRANCH   2   4
ATOM      4  C   UNL     1       0.976   8.714  21.202  0.00  0.00    +0.000 C 
BRANCH   4   5
ATOM      5  C   UNL     1      -0.072   9.866  21.241  0.00  0.00    +0.000 C 
BRANCH   5   6
ATOM      6  N   UNL     1       0.027  10.553  22.554  0.00  0.00    +0.000 NA
ATOM      7  H   UNL     1       0.390   9.890  23.240  0.00  0.00    +0.000 HD
BRANCH   6   9
ATOM      8  C   UNL     1      -1.262  12.582  22.965  0.00  0.00    +0.000 C 
ATOM      9  C   UNL     1      -1.260  11.063  23.030  0.00  0.00    +0.000 C 
ENDBRANCH   6   9
ENDBRANCH   5   6
BRANCH   5  10
ATOM     10  C   UNL     1       0.083  10.836  20.039  0.00  0.00    +0.000 C 
BRANCH  10  11
ATOM     11  C   UNL     1      -1.093  10.880  19.091  0.00  0.00    +0.000 A 
ATOM     12  C   UNL     1      -2.189  11.718  19.335  0.00  0.00    +0.000 A 
ATOM     13  C   UNL     1      -3.267  11.748  18.446  0.00  0.00    +0.000 A 
ATOM     14  C   UNL     1      -3.243  10.939  17.315  0.00  0.00    +0.000 A 
ATOM     15  C   UNL     1      -2.168  10.100  17.060  0.00  0.00    +0.000 A 
ATOM     16  C   UNL     1      -1.090  10.072  17.945  0.00  0.00    +0.000 A 
BRANCH  14  17
ATOM     17  O   UNL     1      -4.269  10.940  16.417  0.00  0.00    +0.000 OA
ATOM     18  H   UNL     1      -4.923  10.277  16.694  0.00  0.00    +0.000 HD
ENDBRANCH  14  17
ENDBRANCH  10  11
ENDBRANCH   5  10
ENDBRANCH   4   5
ENDBRANCH   2   4
ENDBRANCH   1   2
BRANCH   1  19
ATOM     19  C   UNL     1       2.875   7.001  18.333  0.00  0.00    +0.000 C 
BRANCH  19  20
ATOM     20  N   UNL     1       4.329   7.115  18.135  0.00  0.00    +0.000 NA
ATOM     21  H   UNL     1       4.713   7.604  18.941  0.00  0.00    +0.000 HD
BRANCH  20  22
ATOM     22  C   UNL     1       5.079   5.853  17.924  0.00  0.00    +0.000 C 
BRANCH  22  23
ATOM     23  C   UNL     1       5.511   5.311  19.324  0.00  0.00    +0.000 C 
BRANCH  23  24
ATOM     24  N   UNL     1       6.946   5.458  19.611  0.00  0.00    +0.000 NA
ATOM     25  H   UNL     1       7.415   4.560  19.505  0.00  0.00    +0.000 HD
ATOM     26  H   UNL     1       7.058   5.744  20.582  0.00  0.00    +0.000 HD
ENDBRANCH  23  24
ENDBRANCH  22  23
BRANCH  22  27
ATOM     27  C   UNL     1       6.322   6.022  17.012  0.00  0.00    +0.000 C 
BRANCH  27  28
ATOM     28  C   UNL     1       6.332   5.177  15.750  0.00  0.00    +0.000 A 
ATOM     29  C   UNL     1       5.327   4.223  15.524  0.00  0.00    +0.000 A 
ATOM     30  C   UNL     1       5.275   3.513  14.316  0.00  0.00    +0.000 A 
ATOM     31  C   UNL     1       6.243   3.737  13.346  0.00  0.00    +0.000 A 
ATOM     32  C   UNL     1       7.273   4.640  13.569  0.00  0.00    +0.000 A 
ATOM     33  C   UNL     1       7.312   5.368  14.761  0.00  0.00    +0.000 A 
BRANCH  31  34
ATOM     34  O   UNL     1       6.197   3.106  12.139  0.00  0.00    +0.000 OA
ATOM     35  H   UNL     1       6.316   2.153  12.291  0.00  0.00    +0.000 HD
ENDBRANCH  31  34
ENDBRANCH  27  28
ENDBRANCH  22  27
ENDBRANCH  20  22
ENDBRANCH  19  20
ENDBRANCH   1  19
BRANCH   1  36
ATOM     36  C   UNL     1       1.449   6.027  20.212  0.00  0.00    +0.000 C 
BRANCH  36  37
ATOM     37  C   UNL     1       1.941   4.683  19.731  0.00  0.00    +0.000 A 
ATOM     38  C   UNL     1       1.726   4.268  18.408  0.00  0.00    +0.000 A 
ATOM     39  C   UNL     1       2.162   3.015  17.979  0.00  0.00    +0.000 A 
ATOM     40  C   UNL     1       2.838   2.187  18.865  0.00  0.00    +0.000 A 
ATOM     41  C   UNL     1       3.112   2.603  20.161  0.00  0.00    +0.000 A 
ATOM     42  C   UNL     1       2.666   3.852  20.594  0.00  0.00    +0.000 A 
BRANCH  40  43
ATOM     43  O   UNL     1       3.256   0.944  18.493  0.00  0.00    +0.000 OA
ATOM     44  H   UNL     1       2.537   0.315  18.668  0.00  0.00    +0.000 HD
ENDBRANCH  40  43
ENDBRANCH  36  37
ENDBRANCH   1  36
TORSDOF 19
ENDMDL
