MODEL 1
REMARK VINA RESULT:      -8.3      0.000      0.000
REMARK  Name = 
REMARK  8 active torsions:
REMARK  status: ('A' for Active; 'I' for Inactive)
REMARK    1  A    between atoms: C_1  and  C_2
REMARK    2  A    between atoms: C_2  and  C_3
REMARK    3  A    between atoms: C_4  and  N_5
REMARK    4  A    between atoms: N_5  and  C_6
REMARK    5  A    between atoms: C_6  and  C_7
REMARK    6  A    between atoms: C_9  and  O_10
REMARK    7  A    between atoms: N_12  and  C_13
REMARK    8  A    between atoms: C_13  and  C_14
REMARK                            x       y       z     vdW  Elec       q    Type
REMARK                         _______ _______ _______ _____ _____    ______ ____
ROOT
ATOM      1  C   UNL     1       2.643   5.144  20.164  0.00  0.00    +0.000 C 
ATOM      2  C   UNL     1       1.373   4.516  20.757  0.00  0.00    +0.000 C 
ATOM      3  C   UNL     1       1.684   3.034  20.810  0.00  0.00    +0.000 C 
ATOM      4  C   UNL     1       2.509   2.808  19.552  0.00  0.00    +0.000 C 
ATOM      5  N   UNL     1       3.182   4.092  19.243  0.00  0.00    +0.000 NA
ENDROOT
BRANCH   3   6
ATOM      6  O   UNL     1       2.430   2.721  21.986  0.00  0.00    +0.000 OA
ATOM      7  H   UNL     1       2.164   1.834  22.282  0.00  0.00    +0.000 HD
ENDBRANCH   3   6
BRANCH   1   8
ATOM      8  C   UNL     1       2.347   6.508  19.439  0.00  0.00    +0.000 C 
BRANCH   8   9
ATOM      9  N   UNL     1       2.272   7.711  20.320  0.00  0.00    +0.000 NA
ATOM     10  H   UNL     1       2.735   7.504  21.204  0.00  0.00    +0.000 HD
BRANCH   9  14
ATOM     11  C   UNL     1       1.487   9.881  18.444  0.00  0.00    +0.000 C 
ATOM     12  C   UNL     1       0.665   9.634  19.715  0.00  0.00    +0.000 C 
ATOM     13  C   UNL     1      -0.781  10.064  19.367  0.00  0.00    +0.000 C 
ATOM     14  C   UNL     1       0.864   8.209  20.436  0.00  0.00    +0.000 C 
ATOM     15  C   UNL     1       0.743   8.967  21.797  0.00  0.00    +0.000 C 
ATOM     16  C   UNL     1      -0.643   9.020  22.425  0.00  0.00    +0.000 C 
ATOM     17  C   UNL     1      -0.800  10.341  23.167  0.00  0.00    +0.000 C 
ATOM     18  C   UNL     1      -0.476  11.583  22.335  0.00  0.00    +0.000 C 
ATOM     19  O   UNL     1       0.699  11.521  21.535  0.00  0.00    +0.000 OA
ATOM     20  C   UNL     1       1.198  10.257  21.058  0.00  0.00    +0.000 C 
ENDBRANCH   9  14
ENDBRANCH   8   9
ENDBRANCH   1   8
BRANCH   5  21
ATOM     21  C   UNL     1       4.651   3.969  19.304  0.00  0.00    +0.000 C 
BRANCH  21  22
ATOM     22  C   UNL     1       5.353   4.227  17.975  0.00  0.00    +0.000 A 
ATOM     23  C   UNL     1       6.705   4.610  17.946  0.00  0.00    +0.000 A 
ATOM     24  C   UNL     1       7.359   4.835  16.732  0.00  0.00    +0.000 A 
ATOM     25  C   UNL     1       6.678   4.687  15.528  0.00  0.00    +0.000 A 
ATOM     26  C   UNL     1       5.335   4.312  15.536  0.00  0.00    +0.000 A 
ATOM     27  C   UNL     1       4.678   4.083  16.752  0.00  0.00    +0.000 A 
ENDBRANCH  21  22
ENDBRANCH   5  21
TORSDOF 6
ENDMDL
MODEL 2
REMARK VINA RESULT:      -8.2      0.639      1.195
REMARK  Name = 
REMARK  8 active torsions:
REMARK  status: ('A' for Active; 'I' for Inactive)
REMARK    1  A    between atoms: C_1  and  C_2
REMARK    2  A    between atoms: C_2  and  C_3
REMARK    3  A    between atoms: C_4  and  N_5
REMARK    4  A    between atoms: N_5  and  C_6
REMARK    5  A    between atoms: C_6  and  C_7
REMARK    6  A    between atoms: C_9  and  O_10
REMARK    7  A    between atoms: N_12  and  C_13
REMARK    8  A    between atoms: C_13  and  C_14
REMARK                            x       y       z     vdW  Elec       q    Type
REMARK                         _______ _______ _______ _____ _____    ______ ____
ROOT
ATOM      1  C   UNL     1       2.582   5.068  20.195  0.00  0.00    +0.000 C 
ATOM      2  C   UNL     1       1.224   4.530  20.674  0.00  0.00    +0.000 C 
ATOM      3  C   UNL     1       1.441   3.034  20.793  0.00  0.00    +0.000 C 
ATOM      4  C   UNL     1       2.371   2.727  19.629  0.00  0.00    +0.000 C 
ATOM      5  N   UNL     1       3.145   3.962  19.357  0.00  0.00    +0.000 NA
ENDROOT
BRANCH   3   6
ATOM      6  O   UNL     1       2.049   2.715  22.043  0.00  0.00    +0.000 OA
ATOM      7  H   UNL     1       1.722   3.347  22.706  0.00  0.00    +0.000 HD
ENDBRANCH   3   6
BRANCH   1   8
ATOM      8  C   UNL     1       2.438   6.425  19.413  0.00  0.00    +0.000 C 
BRANCH   8   9
ATOM      9  N   UNL     1       2.356   7.657  20.254  0.00  0.00    +0.000 NA
ATOM     10  H   UNL     1       2.840   7.489  21.134  0.00  0.00    +0.000 HD
BRANCH   9  14
ATOM     11  C   UNL     1       1.533   9.844  18.414  0.00  0.00    +0.000 C 
ATOM     12  C   UNL     1       0.718   9.564  19.682  0.00  0.00    +0.000 C 
ATOM     13  C   UNL     1      -0.735   9.977  19.345  0.00  0.00    +0.000 C 
ATOM     14  C   UNL     1       0.940   8.130  20.380  0.00  0.00    +0.000 C 
ATOM     15  C   UNL     1       0.811   8.865  21.754  0.00  0.00    +0.000 C 
ATOM     16  C   UNL     1      -0.574   8.886  22.386  0.00  0.00    +0.000 C 
ATOM     17  C   UNL     1      -0.750  10.194  23.149  0.00  0.00    +0.000 C 
ATOM     18  C   UNL     1      -0.446  11.453  22.335  0.00  0.00    +0.000 C 
ATOM     19  O   UNL     1       0.728  11.422  21.532  0.00  0.00    +0.000 OA
ATOM     20  C   UNL     1       1.244  10.174  21.034  0.00  0.00    +0.000 C 
ENDBRANCH   9  14
ENDBRANCH   8   9
ENDBRANCH   1   8
BRANCH   5  21
ATOM     21  C   UNL     1       4.591   3.758  19.567  0.00  0.00    +0.000 C 
BRANCH  21  22
ATOM     22  C   UNL     1       5.477   4.588  18.644  0.00  0.00    +0.000 A 
ATOM     23  C   UNL     1       5.273   4.569  17.253  0.00  0.00    +0.000 A 
ATOM     24  C   UNL     1       6.070   5.338  16.402  0.00  0.00    +0.000 A 
ATOM     25  C   UNL     1       7.088   6.133  16.919  0.00  0.00    +0.000 A 
ATOM     26  C   UNL     1       7.309   6.161  18.296  0.00  0.00    +0.000 A 
ATOM     27  C   UNL     1       6.508   5.394  19.152  0.00  0.00    +0.000 A 
ENDBRANCH  21  22
ENDBRANCH   5  21
TORSDOF 6
ENDMDL
MODEL 3
REMARK VINA RESULT:      -8.2      0.943      1.059
REMARK  Name = 
REMARK  8 active torsions:
REMARK  status: ('A' for Active; 'I' for Inactive)
REMARK    1  A    between atoms: C_1  and  C_2
REMARK    2  A    between atoms: C_2  and  C_3
REMARK    3  A    between atoms: C_4  and  N_5
REMARK    4  A    between atoms: N_5  and  C_6
REMARK    5  A    between atoms: C_6  and  C_7
REMARK    6  A    between atoms: C_9  and  O_10
REMARK    7  A    between atoms: N_12  and  C_13
REMARK    8  A    between atoms: C_13  and  C_14
REMARK                            x       y       z     vdW  Elec       q    Type
REMARK                         _______ _______ _______ _____ _____    ______ ____
ROOT
ATOM      1  C   UNL     1       2.635   5.146  20.239  0.00  0.00    +0.000 C 
ATOM      2  C   UNL     1       1.312   4.429  20.554  0.00  0.00    +0.000 C 
ATOM      3  C   UNL     1       1.668   2.957  20.500  0.00  0.00    +0.000 C 
ATOM      4  C   UNL     1       2.688   2.889  19.372  0.00  0.00    +0.000 C 
ATOM      5  N   UNL     1       3.350   4.214  19.310  0.00  0.00    +0.000 NA
ENDROOT
BRANCH   3   6
ATOM      6  O   UNL     1       2.234   2.534  21.740  0.00  0.00    +0.000 OA
ATOM      7  H   UNL     1       1.958   1.616  21.897  0.00  0.00    +0.000 HD
ENDBRANCH   3   6
BRANCH   1   8
ATOM      8  C   UNL     1       2.402   6.575  19.623  0.00  0.00    +0.000 C 
BRANCH   8   9
ATOM      9  N   UNL     1       2.254   7.691  20.604  0.00  0.00    +0.000 NA
ATOM     10  H   UNL     1       2.634   7.395  21.502  0.00  0.00    +0.000 HD
BRANCH   9  14
ATOM     11  C   UNL     1       1.560   9.791  18.615  0.00  0.00    +0.000 C 
ATOM     12  C   UNL     1       0.683   9.594  19.858  0.00  0.00    +0.000 C 
ATOM     13  C   UNL     1      -0.745  10.013  19.431  0.00  0.00    +0.000 C 
ATOM     14  C   UNL     1       0.844   8.196  20.640  0.00  0.00    +0.000 C 
ATOM     15  C   UNL     1       0.667   9.005  21.965  0.00  0.00    +0.000 C 
ATOM     16  C   UNL     1      -0.745   9.085  22.530  0.00  0.00    +0.000 C 
ATOM     17  C   UNL     1      -0.929  10.434  23.214  0.00  0.00    +0.000 C 
ATOM     18  C   UNL     1      -0.564  11.642  22.350  0.00  0.00    +0.000 C 
ATOM     19  O   UNL     1       0.645  11.548  21.605  0.00  0.00    +0.000 OA
ATOM     20  C   UNL     1       1.159  10.266  21.198  0.00  0.00    +0.000 C 
ENDBRANCH   9  14
ENDBRANCH   8   9
ENDBRANCH   1   8
BRANCH   5  21
ATOM     21  C   UNL     1       4.795   4.117  19.590  0.00  0.00    +0.000 C 
BRANCH  21  22
ATOM     22  C   UNL     1       5.653   5.076  18.773  0.00  0.00    +0.000 A 
ATOM     23  C   UNL     1       6.904   5.501  19.255  0.00  0.00    +0.000 A 
ATOM     24  C   UNL     1       7.703   6.369  18.507  0.00  0.00    +0.000 A 
ATOM     25  C   UNL     1       7.269   6.833  17.269  0.00  0.00    +0.000 A 
ATOM     26  C   UNL     1       6.029   6.427  16.776  0.00  0.00    +0.000 A 
ATOM     27  C   UNL     1       5.228   5.554  17.523  0.00  0.00    +0.000 A 
ENDBRANCH  21  22
ENDBRANCH   5  21
TORSDOF 6
ENDMDL
MODEL 4
REMARK VINA RESULT:      -7.9      3.627      6.116
REMARK  Name = 
REMARK  8 active torsions:
REMARK  status: ('A' for Active; 'I' for Inactive)
REMARK    1  A    between atoms: C_1  and  C_2
REMARK    2  A    between atoms: C_2  and  C_3
REMARK    3  A    between atoms: C_4  and  N_5
REMARK    4  A    between atoms: N_5  and  C_6
REMARK    5  A    between atoms: C_6  and  C_7
REMARK    6  A    between atoms: C_9  and  O_10
REMARK    7  A    between atoms: N_12  and  C_13
REMARK    8  A    between atoms: C_13  and  C_14
REMARK                            x       y       z     vdW  Elec       q    Type
REMARK                         _______ _______ _______ _____ _____    ______ ____
ROOT
ATOM      1  C   UNL     1       5.816   6.428  17.391  0.00  0.00    +0.000 C 
ATOM      2  C   UNL     1       5.995   6.296  18.911  0.00  0.00    +0.000 C 
ATOM      3  C   UNL     1       7.360   5.656  19.069  0.00  0.00    +0.000 C 
ATOM      4  C   UNL     1       7.430   4.697  17.889  0.00  0.00    +0.000 C 
ATOM      5  N   UNL     1       6.561   5.257  16.827  0.00  0.00    +0.000 NA
ENDROOT
BRANCH   3   6
ATOM      6  O   UNL     1       8.387   6.644  18.998  0.00  0.00    +0.000 OA
ATOM      7  H   UNL     1       8.679   6.837  19.905  0.00  0.00    +0.000 HD
ENDBRANCH   3   6
BRANCH   1   8
ATOM      8  C   UNL     1       4.300   6.456  16.973  0.00  0.00    +0.000 C 
BRANCH   8   9
ATOM      9  N   UNL     1       3.316   6.500  18.095  0.00  0.00    +0.000 NA
ATOM     10  H   UNL     1       3.813   6.685  18.965  0.00  0.00    +0.000 HD
BRANCH   9  14
ATOM     11  C   UNL     1       1.961   5.861  20.665  0.00  0.00    +0.000 C 
ATOM     12  C   UNL     1       2.121   4.776  19.594  0.00  0.00    +0.000 C 
ATOM     13  C   UNL     1       0.914   3.824  19.780  0.00  0.00    +0.000 C 
ATOM     14  C   UNL     1       2.448   5.279  18.100  0.00  0.00    +0.000 C 
ATOM     15  C   UNL     1       3.385   4.035  17.968  0.00  0.00    +0.000 C 
ATOM     16  C   UNL     1       2.774   2.787  17.345  0.00  0.00    +0.000 C 
ATOM     17  C   UNL     1       3.398   1.556  17.990  0.00  0.00    +0.000 C 
ATOM     18  C   UNL     1       3.350   1.543  19.519  0.00  0.00    +0.000 C 
ATOM     19  O   UNL     1       3.693   2.759  20.175  0.00  0.00    +0.000 OA
ATOM     20  C   UNL     1       3.503   4.026  19.518  0.00  0.00    +0.000 C 
ENDBRANCH   9  14
ENDBRANCH   8   9
ENDBRANCH   1   8
BRANCH   5  21
ATOM     21  C   UNL     1       7.329   5.592  15.613  0.00  0.00    +0.000 C 
BRANCH  21  22
ATOM     22  C   UNL     1       6.858   4.866  14.358  0.00  0.00    +0.000 A 
ATOM     23  C   UNL     1       7.623   4.910  13.178  0.00  0.00    +0.000 A 
ATOM     24  C   UNL     1       7.205   4.236  12.029  0.00  0.00    +0.000 A 
ATOM     25  C   UNL     1       6.018   3.511  12.030  0.00  0.00    +0.000 A 
ATOM     26  C   UNL     1       5.243   3.459  13.189  0.00  0.00    +0.000 A 
ATOM     27  C   UNL     1       5.661   4.132  14.344  0.00  0.00    +0.000 A 
ENDBRANCH  21  22
ENDBRANCH   5  21
TORSDOF 6
ENDMDL
MODEL 5
REMARK VINA RESULT:      -7.5      1.465      1.850
REMARK  Name = 
REMARK  8 active torsions:
REMARK  status: ('A' for Active; 'I' for Inactive)
REMARK    1  A    between atoms: C_1  and  C_2
REMARK    2  A    between atoms: C_2  and  C_3
REMARK    3  A    between atoms: C_4  and  N_5
REMARK    4  A    between atoms: N_5  and  C_6
REMARK    5  A    between atoms: C_6  and  C_7
REMARK    6  A    between atoms: C_9  and  O_10
REMARK    7  A    between atoms: N_12  and  C_13
REMARK    8  A    between atoms: C_13  and  C_14
REMARK                            x       y       z     vdW  Elec       q    Type
REMARK                         _______ _______ _______ _____ _____    ______ ____
ROOT
ATOM      1  C   UNL     1       2.414   4.486  20.073  0.00  0.00    +0.000 C 
ATOM      2  C   UNL     1       1.023   3.957  19.687  0.00  0.00    +0.000 C 
ATOM      3  C   UNL     1       1.283   3.090  18.471  0.00  0.00    +0.000 C 
ATOM      4  C   UNL     1       2.391   3.838  17.744  0.00  0.00    +0.000 C 
ATOM      5  N   UNL     1       3.143   4.598  18.770  0.00  0.00    +0.000 NA
ENDROOT
BRANCH   3   6
ATOM      6  O   UNL     1       1.707   1.787  18.868  0.00  0.00    +0.000 OA
ATOM      7  H   UNL     1       2.668   1.731  18.734  0.00  0.00    +0.000 HD
ENDBRANCH   3   6
BRANCH   1   8
ATOM      8  C   UNL     1       2.333   5.848  20.855  0.00  0.00    +0.000 C 
BRANCH   8   9
ATOM      9  N   UNL     1       2.310   7.083  20.014  0.00  0.00    +0.000 NA
ATOM     10  H   UNL     1       3.107   7.667  20.262  0.00  0.00    +0.000 HD
BRANCH   9  14
ATOM     11  C   UNL     1       1.948   9.457  18.259  0.00  0.00    +0.000 C 
ATOM     12  C   UNL     1       1.015   9.241  19.457  0.00  0.00    +0.000 C 
ATOM     13  C   UNL     1      -0.335   9.885  19.057  0.00  0.00    +0.000 C 
ATOM     14  C   UNL     1       0.974   7.758  20.082  0.00  0.00    +0.000 C 
ATOM     15  C   UNL     1       0.860   8.434  21.486  0.00  0.00    +0.000 C 
ATOM     16  C   UNL     1      -0.547   8.634  22.032  0.00  0.00    +0.000 C 
ATOM     17  C   UNL     1      -0.581   9.913  22.859  0.00  0.00    +0.000 C 
ATOM     18  C   UNL     1      -0.040  11.151  22.141  0.00  0.00    +0.000 C 
ATOM     19  O   UNL     1       1.170  10.983  21.411  0.00  0.00    +0.000 OA
ATOM     20  C   UNL     1       1.530   9.697  20.872  0.00  0.00    +0.000 C 
ENDBRANCH   9  14
ENDBRANCH   8   9
ENDBRANCH   1   8
BRANCH   5  21
ATOM     21  C   UNL     1       4.548   4.156  18.856  0.00  0.00    +0.000 C 
BRANCH  21  22
ATOM     22  C   UNL     1       5.561   5.215  18.434  0.00  0.00    +0.000 A 
ATOM     23  C   UNL     1       5.264   6.109  17.390  0.00  0.00    +0.000 A 
ATOM     24  C   UNL     1       6.180   7.092  17.007  0.00  0.00    +0.000 A 
ATOM     25  C   UNL     1       7.409   7.198  17.652  0.00  0.00    +0.000 A 
ATOM     26  C   UNL     1       7.723   6.317  18.686  0.00  0.00    +0.000 A 
ATOM     27  C   UNL     1       6.804   5.334  19.074  0.00  0.00    +0.000 A 
ENDBRANCH  21  22
ENDBRANCH   5  21
TORSDOF 6
ENDMDL
MODEL 6
REMARK VINA RESULT:      -7.4      2.507      6.856
REMARK  Name = 
REMARK  8 active torsions:
REMARK  status: ('A' for Active; 'I' for Inactive)
REMARK    1  A    between atoms: C_1  and  C_2
REMARK    2  A    between atoms: C_2  and  C_3
REMARK    3  A    between atoms: C_4  and  N_5
REMARK    4  A    between atoms: N_5  and  C_6
REMARK    5  A    between atoms: C_6  and  C_7
REMARK    6  A    between atoms: C_9  and  O_10
REMARK    7  A    between atoms: N_12  and  C_13
REMARK    8  A    between atoms: C_13  and  C_14
REMARK                            x       y       z     vdW  Elec       q    Type
REMARK                         _______ _______ _______ _____ _____    ______ ____
ROOT
ATOM      1  C   UNL     1       2.704   7.288  19.432  0.00  0.00    +0.000 C 
ATOM      2  C   UNL     1       1.904   8.565  19.735  0.00  0.00    +0.000 C 
ATOM      3  C   UNL     1       1.097   8.210  20.967  0.00  0.00    +0.000 C 
ATOM      4  C   UNL     1       0.744   6.747  20.741  0.00  0.00    +0.000 C 
ATOM      5  N   UNL     1       1.813   6.175  19.888  0.00  0.00    +0.000 NA
ENDROOT
BRANCH   3   6
ATOM      6  O   UNL     1       1.882   8.380  22.146  0.00  0.00    +0.000 OA
ATOM      7  H   UNL     1       1.276   8.525  22.892  0.00  0.00    +0.000 HD
ENDBRANCH   3   6
BRANCH   1   8
ATOM      8  C   UNL     1       3.098   7.182  17.913  0.00  0.00    +0.000 C 
BRANCH   8   9
ATOM      9  N   UNL     1       4.560   7.252  17.612  0.00  0.00    +0.000 NA
ATOM     10  H   UNL     1       4.705   7.874  16.819  0.00  0.00    +0.000 HD
BRANCH   9  14
ATOM     11  C   UNL     1       7.488   7.020  18.076  0.00  0.00    +0.000 C 
ATOM     12  C   UNL     1       6.747   5.923  17.303  0.00  0.00    +0.000 C 
ATOM     13  C   UNL     1       7.529   4.616  17.580  0.00  0.00    +0.000 C 
ATOM     14  C   UNL     1       5.146   5.881  17.467  0.00  0.00    +0.000 C 
ATOM     15  C   UNL     1       5.078   5.498  15.953  0.00  0.00    +0.000 C 
ATOM     16  C   UNL     1       5.020   4.011  15.630  0.00  0.00    +0.000 C 
ATOM     17  C   UNL     1       5.754   3.761  14.318  0.00  0.00    +0.000 C 
ATOM     18  C   UNL     1       7.174   4.327  14.264  0.00  0.00    +0.000 C 
ATOM     19  O   UNL     1       7.351   5.647  14.766  0.00  0.00    +0.000 OA
ATOM     20  C   UNL     1       6.468   6.173  15.775  0.00  0.00    +0.000 C 
ENDBRANCH   9  14
ENDBRANCH   8   9
ENDBRANCH   1   8
BRANCH   5  21
ATOM     21  C   UNL     1       2.544   5.095  20.579  0.00  0.00    +0.000 C 
BRANCH  21  22
ATOM     22  C   UNL     1       2.863   3.894  19.696  0.00  0.00    +0.000 A 
ATOM     23  C   UNL     1       3.974   3.079  19.974  0.00  0.00    +0.000 A 
ATOM     24  C   UNL     1       4.264   1.969  19.178  0.00  0.00    +0.000 A 
ATOM     25  C   UNL     1       3.458   1.653  18.089  0.00  0.00    +0.000 A 
ATOM     26  C   UNL     1       2.354   2.452  17.794  0.00  0.00    +0.000 A 
ATOM     27  C   UNL     1       2.059   3.565  18.593  0.00  0.00    +0.000 A 
ENDBRANCH  21  22
ENDBRANCH   5  21
TORSDOF 6
ENDMDL
MODEL 7
REMARK VINA RESULT:      -7.3      1.959      6.570
REMARK  Name = 
REMARK  8 active torsions:
REMARK  status: ('A' for Active; 'I' for Inactive)
REMARK    1  A    between atoms: C_1  and  C_2
REMARK    2  A    between atoms: C_2  and  C_3
REMARK    3  A    between atoms: C_4  and  N_5
REMARK    4  A    between atoms: N_5  and  C_6
REMARK    5  A    between atoms: C_6  and  C_7
REMARK    6  A    between atoms: C_9  and  O_10
REMARK    7  A    between atoms: N_12  and  C_13
REMARK    8  A    between atoms: C_13  and  C_14
REMARK                            x       y       z     vdW  Elec       q    Type
REMARK                         _______ _______ _______ _____ _____    ______ ____
ROOT
ATOM      1  C   UNL     1       2.209   7.856  19.777  0.00  0.00    +0.000 C 
ATOM      2  C   UNL     1       1.513   9.199  20.050  0.00  0.00    +0.000 C 
ATOM      3  C   UNL     1       0.879   9.017  21.414  0.00  0.00    +0.000 C 
ATOM      4  C   UNL     1       0.440   7.560  21.399  0.00  0.00    +0.000 C 
ATOM      5  N   UNL     1       1.349   6.846  20.472  0.00  0.00    +0.000 NA
ENDROOT
BRANCH   3   6
ATOM      6  O   UNL     1       1.834   9.262  22.446  0.00  0.00    +0.000 OA
ATOM      7  H   UNL     1       2.053  10.209  22.433  0.00  0.00    +0.000 HD
ENDBRANCH   3   6
BRANCH   1   8
ATOM      8  C   UNL     1       2.373   7.576  18.239  0.00  0.00    +0.000 C 
BRANCH   8   9
ATOM      9  N   UNL     1       2.749   6.179  17.868  0.00  0.00    +0.000 NA
ATOM     10  H   UNL     1       2.774   5.608  18.711  0.00  0.00    +0.000 HD
BRANCH   9  14
ATOM     11  C   UNL     1       3.565   3.530  16.788  0.00  0.00    +0.000 C 
ATOM     12  C   UNL     1       4.589   4.669  16.877  0.00  0.00    +0.000 C 
ATOM     13  C   UNL     1       5.590   4.420  15.723  0.00  0.00    +0.000 C 
ATOM     14  C   UNL     1       3.999   6.157  17.042  0.00  0.00    +0.000 C 
ATOM     15  C   UNL     1       5.200   6.445  17.999  0.00  0.00    +0.000 C 
ATOM     16  C   UNL     1       6.436   7.073  17.369  0.00  0.00    +0.000 C 
ATOM     17  C   UNL     1       7.675   6.558  18.090  0.00  0.00    +0.000 C 
ATOM     18  C   UNL     1       7.768   5.034  18.191  0.00  0.00    +0.000 C 
ATOM     19  O   UNL     1       6.576   4.349  18.558  0.00  0.00    +0.000 OA
ATOM     20  C   UNL     1       5.284   4.915  18.267  0.00  0.00    +0.000 C 
ENDBRANCH   9  14
ENDBRANCH   8   9
ENDBRANCH   1   8
BRANCH   5  21
ATOM     21  C   UNL     1       2.129   5.804  21.167  0.00  0.00    +0.000 C 
BRANCH  21  22
ATOM     22  C   UNL     1       2.005   4.416  20.547  0.00  0.00    +0.000 A 
ATOM     23  C   UNL     1       3.082   3.514  20.596  0.00  0.00    +0.000 A 
ATOM     24  C   UNL     1       2.972   2.236  20.044  0.00  0.00    +0.000 A 
ATOM     25  C   UNL     1       1.790   1.835  19.428  0.00  0.00    +0.000 A 
ATOM     26  C   UNL     1       0.712   2.718  19.365  0.00  0.00    +0.000 A 
ATOM     27  C   UNL     1       0.819   3.999  19.922  0.00  0.00    +0.000 A 
ENDBRANCH  21  22
ENDBRANCH   5  21
TORSDOF 6
ENDMDL
MODEL 8
REMARK VINA RESULT:      -7.2      1.400      1.817
REMARK  Name = 
REMARK  8 active torsions:
REMARK  status: ('A' for Active; 'I' for Inactive)
REMARK    1  A    between atoms: C_1  and  C_2
REMARK    2  A    between atoms: C_2  and  C_3
REMARK    3  A    between atoms: C_4  and  N_5
REMARK    4  A    between atoms: N_5  and  C_6
REMARK    5  A    between atoms: C_6  and  C_7
REMARK    6  A    between atoms: C_9  and  O_10
REMARK    7  A    between atoms: N_12  and  C_13
REMARK    8  A    between atoms: C_13  and  C_14
REMARK                            x       y       z     vdW  Elec       q    Type
REMARK                         _______ _______ _______ _____ _____    ______ ____
ROOT
ATOM      1  C   UNL     1       3.489   5.292  18.752  0.00  0.00    +0.000 C 
ATOM      2  C   UNL     1       3.030   4.437  19.944  0.00  0.00    +0.000 C 
ATOM      3  C   UNL     1       3.508   3.040  19.602  0.00  0.00    +0.000 C 
ATOM      4  C   UNL     1       3.323   2.971  18.093  0.00  0.00    +0.000 C 
ATOM      5  N   UNL     1       3.432   4.359  17.582  0.00  0.00    +0.000 NA
ENDROOT
BRANCH   3   6
ATOM      6  O   UNL     1       4.878   2.877  19.967  0.00  0.00    +0.000 OA
ATOM      7  H   UNL     1       5.252   3.759  20.130  0.00  0.00    +0.000 HD
ENDBRANCH   3   6
BRANCH   1   8
ATOM      8  C   UNL     1       2.598   6.574  18.564  0.00  0.00    +0.000 C 
BRANCH   8   9
ATOM      9  N   UNL     1       2.485   7.470  19.754  0.00  0.00    +0.000 NA
ATOM     10  H   UNL     1       2.869   6.990  20.567  0.00  0.00    +0.000 HD
BRANCH   9  14
ATOM     11  C   UNL     1       1.811   9.946  18.251  0.00  0.00    +0.000 C 
ATOM     12  C   UNL     1       0.945   9.513  19.439  0.00  0.00    +0.000 C 
ATOM     13  C   UNL     1      -0.479  10.036  19.130  0.00  0.00    +0.000 C 
ATOM     14  C   UNL     1       1.086   7.981  19.914  0.00  0.00    +0.000 C 
ATOM     15  C   UNL     1       0.941   8.503  21.380  0.00  0.00    +0.000 C 
ATOM     16  C   UNL     1      -0.463   8.489  21.971  0.00  0.00    +0.000 C 
ATOM     17  C   UNL     1      -0.612   9.671  22.921  0.00  0.00    +0.000 C 
ATOM     18  C   UNL     1      -0.232  11.025  22.319  0.00  0.00    +0.000 C 
ATOM     19  O   UNL     1       0.966  11.065  21.552  0.00  0.00    +0.000 OA
ATOM     20  C   UNL     1       1.449   9.885  20.882  0.00  0.00    +0.000 C 
ENDBRANCH   9  14
ENDBRANCH   8   9
ENDBRANCH   1   8
BRANCH   5  21
ATOM     21  C   UNL     1       4.576   4.514  16.663  0.00  0.00    +0.000 C 
BRANCH  21  22
ATOM     22  C   UNL     1       5.720   5.348  17.229  0.00  0.00    +0.000 A 
ATOM     23  C   UNL     1       6.651   4.776  18.113  0.00  0.00    +0.000 A 
ATOM     24  C   UNL     1       7.710   5.530  18.624  0.00  0.00    +0.000 A 
ATOM     25  C   UNL     1       7.859   6.867  18.269  0.00  0.00    +0.000 A 
ATOM     26  C   UNL     1       6.942   7.454  17.397  0.00  0.00    +0.000 A 
ATOM     27  C   UNL     1       5.881   6.699  16.880  0.00  0.00    +0.000 A 
ENDBRANCH  21  22
ENDBRANCH   5  21
TORSDOF 6
ENDMDL
MODEL 9
REMARK VINA RESULT:      -7.2      1.033      1.436
REMARK  Name = 
REMARK  8 active torsions:
REMARK  status: ('A' for Active; 'I' for Inactive)
REMARK    1  A    between atoms: C_1  and  C_2
REMARK    2  A    between atoms: C_2  and  C_3
REMARK    3  A    between atoms: C_4  and  N_5
REMARK    4  A    between atoms: N_5  and  C_6
REMARK    5  A    between atoms: C_6  and  C_7
REMARK    6  A    between atoms: C_9  and  O_10
REMARK    7  A    between atoms: N_12  and  C_13
REMARK    8  A    between atoms: C_13  and  C_14
REMARK                            x       y       z     vdW  Elec       q    Type
REMARK                         _______ _______ _______ _____ _____    ______ ____
ROOT
ATOM      1  C   UNL     1       2.795   5.447  19.498  0.00  0.00    +0.000 C 
ATOM      2  C   UNL     1       2.163   4.916  20.795  0.00  0.00    +0.000 C 
ATOM      3  C   UNL     1       2.080   3.418  20.578  0.00  0.00    +0.000 C 
ATOM      4  C   UNL     1       1.756   3.300  19.096  0.00  0.00    +0.000 C 
ATOM      5  N   UNL     1       2.310   4.507  18.438  0.00  0.00    +0.000 NA
ENDROOT
BRANCH   3   6
ATOM      6  O   UNL     1       3.326   2.797  20.890  0.00  0.00    +0.000 OA
ATOM      7  H   UNL     1       3.963   3.039  20.197  0.00  0.00    +0.000 HD
ENDBRANCH   3   6
BRANCH   1   8
ATOM      8  C   UNL     1       2.407   6.946  19.221  0.00  0.00    +0.000 C 
BRANCH   8   9
ATOM      9  N   UNL     1       2.216   7.803  20.429  0.00  0.00    +0.000 NA
ATOM     10  H   UNL     1       2.558   7.303  21.248  0.00  0.00    +0.000 HD
BRANCH   9  14
ATOM     11  C   UNL     1       1.449   9.964  18.534  0.00  0.00    +0.000 C 
ATOM     12  C   UNL     1       0.610   9.718  19.794  0.00  0.00    +0.000 C 
ATOM     13  C   UNL     1      -0.832  10.141  19.424  0.00  0.00    +0.000 C 
ATOM     14  C   UNL     1       0.804   8.295  20.523  0.00  0.00    +0.000 C 
ATOM     15  C   UNL     1       0.661   9.058  21.880  0.00  0.00    +0.000 C 
ATOM     16  C   UNL     1      -0.735   9.107  22.488  0.00  0.00    +0.000 C 
ATOM     17  C   UNL     1      -0.907  10.431  23.223  0.00  0.00    +0.000 C 
ATOM     18  C   UNL     1      -0.576  11.671  22.391  0.00  0.00    +0.000 C 
ATOM     19  O   UNL     1       0.611  11.611  21.608  0.00  0.00    +0.000 OA
ATOM     20  C   UNL     1       1.121  10.347  21.142  0.00  0.00    +0.000 C 
ENDBRANCH   9  14
ENDBRANCH   8   9
ENDBRANCH   1   8
BRANCH   5  21
ATOM     21  C   UNL     1       3.353   4.162  17.452  0.00  0.00    +0.000 C 
BRANCH  21  22
ATOM     22  C   UNL     1       4.660   4.925  17.635  0.00  0.00    +0.000 A 
ATOM     23  C   UNL     1       4.968   6.020  16.809  0.00  0.00    +0.000 A 
ATOM     24  C   UNL     1       6.157   6.734  16.979  0.00  0.00    +0.000 A 
ATOM     25  C   UNL     1       7.061   6.367  17.971  0.00  0.00    +0.000 A 
ATOM     26  C   UNL     1       6.776   5.281  18.798  0.00  0.00    +0.000 A 
ATOM     27  C   UNL     1       5.582   4.566  18.631  0.00  0.00    +0.000 A 
ENDBRANCH  21  22
ENDBRANCH   5  21
TORSDOF 6
ENDMDL
