MODEL 1
REMARK VINA RESULT:      -7.3      0.000      0.000
REMARK  Name = 
REMARK  8 active torsions:
REMARK  status: ('A' for Active; 'I' for Inactive)
REMARK    1  A    between atoms: C_1  and  C_2
REMARK    2  A    between atoms: C_2  and  O_3
REMARK    3  A    between atoms: O_3  and  C_4
REMARK    4  A    between atoms: C_4  and  C_6
REMARK    5  A    between atoms: C_6  and  C_7
REMARK    6  A    between atoms: C_7  and  C_8
REMARK    7  A    between atoms: N_17  and  C_18
REMARK    8  A    between atoms: C_22  and  C_23
REMARK                            x       y       z     vdW  Elec       q    Type
REMARK                         _______ _______ _______ _____ _____    ______ ____
ROOT
ATOM      1  C   UNL     1       6.315   5.084  15.193  0.00  0.00    +0.000 C 
ATOM      2  C   UNL     1       5.505   6.410  15.108  0.00  0.00    +0.000 C 
ATOM      3  C   UNL     1       4.677   6.667  16.362  0.00  0.00    +0.000 C 
ATOM      4  C   UNL     1       3.786   5.471  16.688  0.00  0.00    +0.000 C 
ATOM      5  N   UNL     1       4.592   4.266  16.830  0.00  0.00    +0.000 NA
ATOM      6  C   UNL     1       5.334   3.955  15.587  0.00  0.00    +0.000 C 
ENDROOT
BRANCH   5   7
ATOM      7  C   UNL     1       3.954   3.063  17.404  0.00  0.00    +0.000 C 
ATOM      8  C   UNL     1       2.469   3.185  17.772  0.00  0.00    +0.000 C 
ATOM      9  C   UNL     1       2.228   3.762  19.157  0.00  0.00    +0.000 C 
ATOM     10  N   UNL     1       2.962   3.012  20.172  0.00  0.00    +0.000 N 
ATOM     11  C   UNL     1       2.462   2.609  21.401  0.00  0.00    +0.000 C 
ATOM     12  C   UNL     1       0.994   2.779  21.708  0.00  0.00    +0.000 C 
ATOM     13  O   UNL     1       3.177   2.075  22.255  0.00  0.00    +0.000 OA
ATOM     14  C   UNL     1       4.408   2.931  19.954  0.00  0.00    +0.000 C 
ATOM     15  C   UNL     1       4.758   2.431  18.556  0.00  0.00    +0.000 C 
ENDBRANCH   5   7
BRANCH   1  16
ATOM     16  C   UNL     1       7.421   5.175  16.255  0.00  0.00    +0.000 C 
ATOM     17  O   UNL     1       7.882   4.229  16.881  0.00  0.00    +0.000 OA
BRANCH  16  18
ATOM     18  O   UNL     1       7.818   6.467  16.441  0.00  0.00    +0.000 OA
BRANCH  18  20
ATOM     19  C   UNL     1       7.957   8.418  17.919  0.00  0.00    +0.000 C 
ATOM     20  C   UNL     1       7.802   6.914  17.805  0.00  0.00    +0.000 C 
ENDBRANCH  18  20
ENDBRANCH  16  18
ENDBRANCH   1  16
BRANCH   1  21
ATOM     21  C   UNL     1       6.946   4.849  13.799  0.00  0.00    +0.000 C 
BRANCH  21  22
ATOM     22  C   UNL     1       6.241   3.890  12.871  0.00  0.00    +0.000 A 
ATOM     23  C   UNL     1       4.890   4.079  12.542  0.00  0.00    +0.000 A 
ATOM     24  C   UNL     1       4.255   3.216  11.651  0.00  0.00    +0.000 A 
ATOM     25  C   UNL     1       4.964   2.159  11.081  0.00  0.00    +0.000 A 
ATOM     26  C   UNL     1       6.302   1.961  11.400  0.00  0.00    +0.000 A 
ATOM     27  C   UNL     1       6.939   2.821  12.297  0.00  0.00    +0.000 A 
ENDBRANCH  21  22
ENDBRANCH   1  21
TORSDOF 6
ENDMDL
MODEL 2
REMARK VINA RESULT:      -6.9      4.980      7.625
REMARK  Name = 
REMARK  8 active torsions:
REMARK  status: ('A' for Active; 'I' for Inactive)
REMARK    1  A    between atoms: C_1  and  C_2
REMARK    2  A    between atoms: C_2  and  O_3
REMARK    3  A    between atoms: O_3  and  C_4
REMARK    4  A    between atoms: C_4  and  C_6
REMARK    5  A    between atoms: C_6  and  C_7
REMARK    6  A    between atoms: C_7  and  C_8
REMARK    7  A    between atoms: N_17  and  C_18
REMARK    8  A    between atoms: C_22  and  C_23
REMARK                            x       y       z     vdW  Elec       q    Type
REMARK                         _______ _______ _______ _____ _____    ______ ____
ROOT
ATOM      1  C   UNL     1       2.899   5.629  18.499  0.00  0.00    +0.000 C 
ATOM      2  C   UNL     1       3.055   5.777  20.040  0.00  0.00    +0.000 C 
ATOM      3  C   UNL     1       1.962   6.644  20.654  0.00  0.00    +0.000 C 
ATOM      4  C   UNL     1       1.875   7.998  19.955  0.00  0.00    +0.000 C 
ATOM      5  N   UNL     1       1.656   7.815  18.526  0.00  0.00    +0.000 NA
ATOM      6  C   UNL     1       2.757   7.047  17.899  0.00  0.00    +0.000 C 
ENDROOT
BRANCH   5   7
ATOM      7  C   UNL     1       1.280   8.994  17.720  0.00  0.00    +0.000 C 
ATOM      8  C   UNL     1       2.112  10.265  17.937  0.00  0.00    +0.000 C 
ATOM      9  C   UNL     1       1.631  11.121  19.097  0.00  0.00    +0.000 C 
ATOM     10  N   UNL     1       0.212  11.437  18.961  0.00  0.00    +0.000 N 
ATOM     11  C   UNL     1      -0.365  12.679  19.177  0.00  0.00    +0.000 C 
ATOM     12  C   UNL     1       0.512  13.886  19.407  0.00  0.00    +0.000 C 
ATOM     13  O   UNL     1      -1.589  12.845  19.153  0.00  0.00    +0.000 OA
ATOM     14  C   UNL     1      -0.671  10.274  18.851  0.00  0.00    +0.000 C 
ATOM     15  C   UNL     1      -0.228   9.309  17.757  0.00  0.00    +0.000 C 
ENDBRANCH   5   7
BRANCH   1  16
ATOM     16  C   UNL     1       1.647   4.812  18.143  0.00  0.00    +0.000 C 
ATOM     17  O   UNL     1       1.083   4.816  17.056  0.00  0.00    +0.000 OA
BRANCH  16  18
ATOM     18  O   UNL     1       1.214   4.086  19.213  0.00  0.00    +0.000 OA
BRANCH  18  20
ATOM     19  C   UNL     1       2.268   1.899  18.865  0.00  0.00    +0.000 C 
ATOM     20  C   UNL     1       0.980   2.695  18.944  0.00  0.00    +0.000 C 
ENDBRANCH  18  20
ENDBRANCH  16  18
ENDBRANCH   1  16
BRANCH   1  21
ATOM     21  C   UNL     1       4.164   4.900  17.984  0.00  0.00    +0.000 C 
BRANCH  21  22
ATOM     22  C   UNL     1       5.486   5.610  18.144  0.00  0.00    +0.000 A 
ATOM     23  C   UNL     1       6.386   5.223  19.147  0.00  0.00    +0.000 A 
ATOM     24  C   UNL     1       7.625   5.852  19.264  0.00  0.00    +0.000 A 
ATOM     25  C   UNL     1       7.973   6.871  18.379  0.00  0.00    +0.000 A 
ATOM     26  C   UNL     1       7.089   7.264  17.381  0.00  0.00    +0.000 A 
ATOM     27  C   UNL     1       5.846   6.639  17.266  0.00  0.00    +0.000 A 
ENDBRANCH  21  22
ENDBRANCH   1  21
TORSDOF 6
ENDMDL
MODEL 3
REMARK VINA RESULT:      -6.7      4.809      7.256
REMARK  Name = 
REMARK  8 active torsions:
REMARK  status: ('A' for Active; 'I' for Inactive)
REMARK    1  A    between atoms: C_1  and  C_2
REMARK    2  A    between atoms: C_2  and  O_3
REMARK    3  A    between atoms: O_3  and  C_4
REMARK    4  A    between atoms: C_4  and  C_6
REMARK    5  A    between atoms: C_6  and  C_7
REMARK    6  A    between atoms: C_7  and  C_8
REMARK    7  A    between atoms: N_17  and  C_18
REMARK    8  A    between atoms: C_22  and  C_23
REMARK                            x       y       z     vdW  Elec       q    Type
REMARK                         _______ _______ _______ _____ _____    ______ ____
ROOT
ATOM      1  C   UNL     1       3.279   5.216  19.129  0.00  0.00    +0.000 C 
ATOM      2  C   UNL     1       2.680   4.645  20.448  0.00  0.00    +0.000 C 
ATOM      3  C   UNL     1       1.354   5.301  20.816  0.00  0.00    +0.000 C 
ATOM      4  C   UNL     1       1.486   6.822  20.858  0.00  0.00    +0.000 C 
ATOM      5  N   UNL     1       1.980   7.321  19.581  0.00  0.00    +0.000 NA
ATOM      6  C   UNL     1       3.310   6.757  19.253  0.00  0.00    +0.000 C 
ENDROOT
BRANCH   5   7
ATOM      7  C   UNL     1       1.922   8.775  19.330  0.00  0.00    +0.000 C 
ATOM      8  C   UNL     1       1.191   9.622  20.380  0.00  0.00    +0.000 C 
ATOM      9  C   UNL     1      -0.311   9.701  20.163  0.00  0.00    +0.000 C 
ATOM     10  N   UNL     1      -0.622  10.154  18.811  0.00  0.00    +0.000 N 
ATOM     11  C   UNL     1      -1.583  11.095  18.473  0.00  0.00    +0.000 C 
ATOM     12  C   UNL     1      -2.283  11.878  19.557  0.00  0.00    +0.000 C 
ATOM     13  O   UNL     1      -1.869  11.345  17.298  0.00  0.00    +0.000 OA
ATOM     14  C   UNL     1      -0.047   9.339  17.740  0.00  0.00    +0.000 C 
ATOM     15  C   UNL     1       1.455   9.136  17.907  0.00  0.00    +0.000 C 
ENDBRANCH   5   7
BRANCH   1  16
ATOM     16  C   UNL     1       2.418   4.831  17.916  0.00  0.00    +0.000 C 
ATOM     17  O   UNL     1       1.395   5.404  17.562  0.00  0.00    +0.000 OA
BRANCH  16  18
ATOM     18  O   UNL     1       2.928   3.737  17.280  0.00  0.00    +0.000 OA
BRANCH  18  20
ATOM     19  C   UNL     1       3.300   1.523  18.264  0.00  0.00    +0.000 C 
ATOM     20  C   UNL     1       2.314   2.490  17.639  0.00  0.00    +0.000 C 
ENDBRANCH  18  20
ENDBRANCH  16  18
ENDBRANCH   1  16
BRANCH   1  21
ATOM     21  C   UNL     1       4.697   4.613  18.979  0.00  0.00    +0.000 C 
BRANCH  21  22
ATOM     22  C   UNL     1       5.809   5.550  18.575  0.00  0.00    +0.000 A 
ATOM     23  C   UNL     1       6.990   5.621  19.328  0.00  0.00    +0.000 A 
ATOM     24  C   UNL     1       8.033   6.456  18.927  0.00  0.00    +0.000 A 
ATOM     25  C   UNL     1       7.902   7.224  17.771  0.00  0.00    +0.000 A 
ATOM     26  C   UNL     1       6.736   7.163  17.017  0.00  0.00    +0.000 A 
ATOM     27  C   UNL     1       5.689   6.332  17.420  0.00  0.00    +0.000 A 
ENDBRANCH  21  22
ENDBRANCH   1  21
TORSDOF 6
ENDMDL
MODEL 4
REMARK VINA RESULT:      -6.7      8.741     11.502
REMARK  Name = 
REMARK  8 active torsions:
REMARK  status: ('A' for Active; 'I' for Inactive)
REMARK    1  A    between atoms: C_1  and  C_2
REMARK    2  A    between atoms: C_2  and  O_3
REMARK    3  A    between atoms: O_3  and  C_4
REMARK    4  A    between atoms: C_4  and  C_6
REMARK    5  A    between atoms: C_6  and  C_7
REMARK    6  A    between atoms: C_7  and  C_8
REMARK    7  A    between atoms: N_17  and  C_18
REMARK    8  A    between atoms: C_22  and  C_23
REMARK                            x       y       z     vdW  Elec       q    Type
REMARK                         _______ _______ _______ _____ _____    ______ ____
ROOT
ATOM      1  C   UNL     1       0.147  10.303  19.489  0.00  0.00    +0.000 C 
ATOM      2  C   UNL     1       0.830   9.964  18.133  0.00  0.00    +0.000 C 
ATOM      3  C   UNL     1       2.221  10.576  18.014  0.00  0.00    +0.000 C 
ATOM      4  C   UNL     1       2.185  12.079  18.277  0.00  0.00    +0.000 C 
ATOM      5  N   UNL     1       1.606  12.349  19.586  0.00  0.00    +0.000 NA
ATOM      6  C   UNL     1       0.220  11.835  19.685  0.00  0.00    +0.000 C 
ENDROOT
BRANCH   5   7
ATOM      7  C   UNL     1       1.726  13.714  20.135  0.00  0.00    +0.000 C 
ATOM      8  C   UNL     1       0.442  14.553  20.174  0.00  0.00    +0.000 C 
ATOM      9  C   UNL     1       0.152  15.288  18.876  0.00  0.00    +0.000 C 
ATOM     10  N   UNL     1       1.296  16.096  18.464  0.00  0.00    +0.000 N 
ATOM     11  C   UNL     1       1.239  17.396  17.988  0.00  0.00    +0.000 C 
ATOM     12  C   UNL     1      -0.063  18.158  18.034  0.00  0.00    +0.000 C 
ATOM     13  O   UNL     1       2.238  17.978  17.552  0.00  0.00    +0.000 OA
ATOM     14  C   UNL     1       2.549  15.354  18.302  0.00  0.00    +0.000 C 
ATOM     15  C   UNL     1       2.893  14.519  19.531  0.00  0.00    +0.000 C 
ENDBRANCH   5   7
BRANCH   1  16
ATOM     16  C   UNL     1       0.866   9.618  20.661  0.00  0.00    +0.000 C 
ATOM     17  O   UNL     1       1.392   8.512  20.622  0.00  0.00    +0.000 OA
BRANCH  16  18
ATOM     18  O   UNL     1       0.827  10.394  21.783  0.00  0.00    +0.000 OA
BRANCH  18  20
ATOM     19  C   UNL     1      -1.196  10.756  23.119  0.00  0.00    +0.000 C 
ATOM     20  C   UNL     1       0.010   9.879  22.845  0.00  0.00    +0.000 C 
ENDBRANCH  18  20
ENDBRANCH  16  18
ENDBRANCH   1  16
BRANCH   1  21
ATOM     21  C   UNL     1      -1.313   9.794  19.401  0.00  0.00    +0.000 C 
BRANCH  21  22
ATOM     22  C   UNL     1      -2.136  10.251  18.221  0.00  0.00    +0.000 A 
ATOM     23  C   UNL     1      -3.161  11.193  18.390  0.00  0.00    +0.000 A 
ATOM     24  C   UNL     1      -3.891  11.645  17.290  0.00  0.00    +0.000 A 
ATOM     25  C   UNL     1      -3.600  11.160  16.016  0.00  0.00    +0.000 A 
ATOM     26  C   UNL     1      -2.587  10.225  15.837  0.00  0.00    +0.000 A 
ATOM     27  C   UNL     1      -1.859   9.768  16.937  0.00  0.00    +0.000 A 
ENDBRANCH  21  22
ENDBRANCH   1  21
TORSDOF 6
ENDMDL
MODEL 5
REMARK VINA RESULT:      -6.5      4.781      7.261
REMARK  Name = 
REMARK  8 active torsions:
REMARK  status: ('A' for Active; 'I' for Inactive)
REMARK    1  A    between atoms: C_1  and  C_2
REMARK    2  A    between atoms: C_2  and  O_3
REMARK    3  A    between atoms: O_3  and  C_4
REMARK    4  A    between atoms: C_4  and  C_6
REMARK    5  A    between atoms: C_6  and  C_7
REMARK    6  A    between atoms: C_7  and  C_8
REMARK    7  A    between atoms: N_17  and  C_18
REMARK    8  A    between atoms: C_22  and  C_23
REMARK                            x       y       z     vdW  Elec       q    Type
REMARK                         _______ _______ _______ _____ _____    ______ ____
ROOT
ATOM      1  C   UNL     1       3.148   5.094  18.785  0.00  0.00    +0.000 C 
ATOM      2  C   UNL     1       2.815   4.596  20.222  0.00  0.00    +0.000 C 
ATOM      3  C   UNL     1       1.618   5.321  20.825  0.00  0.00    +0.000 C 
ATOM      4  C   UNL     1       1.808   6.834  20.774  0.00  0.00    +0.000 C 
ATOM      5  N   UNL     1       2.045   7.267  19.403  0.00  0.00    +0.000 NA
ATOM      6  C   UNL     1       3.257   6.636  18.833  0.00  0.00    +0.000 C 
ENDROOT
BRANCH   5   7
ATOM      7  C   UNL     1       1.987   8.713  19.107  0.00  0.00    +0.000 C 
ATOM      8  C   UNL     1       1.351   9.606  20.180  0.00  0.00    +0.000 C 
ATOM      9  C   UNL     1      -0.162   9.702  20.078  0.00  0.00    +0.000 C 
ATOM     10  N   UNL     1      -0.572  10.114  18.739  0.00  0.00    +0.000 N 
ATOM     11  C   UNL     1      -1.544  11.058  18.444  0.00  0.00    +0.000 C 
ATOM     12  C   UNL     1      -2.146  11.888  19.551  0.00  0.00    +0.000 C 
ATOM     13  O   UNL     1      -1.917  11.273  17.286  0.00  0.00    +0.000 OA
ATOM     14  C   UNL     1      -0.092   9.254  17.655  0.00  0.00    +0.000 C 
ATOM     15  C   UNL     1       1.415   9.033  17.712  0.00  0.00    +0.000 C 
ENDBRANCH   5   7
BRANCH   1  16
ATOM     16  C   UNL     1       2.043   4.705  17.792  0.00  0.00    +0.000 C 
ATOM     17  O   UNL     1       1.061   5.385  17.521  0.00  0.00    +0.000 OA
BRANCH  16  18
ATOM     18  O   UNL     1       2.278   3.473  17.254  0.00  0.00    +0.000 OA
BRANCH  18  20
ATOM     19  C   UNL     1       0.599   2.378  18.667  0.00  0.00    +0.000 C 
ATOM     20  C   UNL     1       2.019   2.370  18.135  0.00  0.00    +0.000 C 
ENDBRANCH  18  20
ENDBRANCH  16  18
ENDBRANCH   1  16
BRANCH   1  21
ATOM     21  C   UNL     1       4.483   4.426  18.373  0.00  0.00    +0.000 C 
BRANCH  21  22
ATOM     22  C   UNL     1       5.702   5.311  18.285  0.00  0.00    +0.000 A 
ATOM     23  C   UNL     1       5.851   6.217  17.225  0.00  0.00    +0.000 A 
ATOM     24  C   UNL     1       6.958   7.063  17.171  0.00  0.00    +0.000 A 
ATOM     25  C   UNL     1       7.923   7.010  18.176  0.00  0.00    +0.000 A 
ATOM     26  C   UNL     1       7.787   6.115  19.231  0.00  0.00    +0.000 A 
ATOM     27  C   UNL     1       6.683   5.264  19.284  0.00  0.00    +0.000 A 
ENDBRANCH  21  22
ENDBRANCH   1  21
TORSDOF 6
ENDMDL
MODEL 6
REMARK VINA RESULT:      -6.5      4.791      7.201
REMARK  Name = 
REMARK  8 active torsions:
REMARK  status: ('A' for Active; 'I' for Inactive)
REMARK    1  A    between atoms: C_1  and  C_2
REMARK    2  A    between atoms: C_2  and  O_3
REMARK    3  A    between atoms: O_3  and  C_4
REMARK    4  A    between atoms: C_4  and  C_6
REMARK    5  A    between atoms: C_6  and  C_7
REMARK    6  A    between atoms: C_7  and  C_8
REMARK    7  A    between atoms: N_17  and  C_18
REMARK    8  A    between atoms: C_22  and  C_23
REMARK                            x       y       z     vdW  Elec       q    Type
REMARK                         _______ _______ _______ _____ _____    ______ ____
ROOT
ATOM      1  C   UNL     1       2.971   5.524  19.104  0.00  0.00    +0.000 C 
ATOM      2  C   UNL     1       2.719   5.749  20.623  0.00  0.00    +0.000 C 
ATOM      3  C   UNL     1       1.497   6.622  20.887  0.00  0.00    +0.000 C 
ATOM      4  C   UNL     1       1.586   7.939  20.120  0.00  0.00    +0.000 C 
ATOM      5  N   UNL     1       1.748   7.683  18.695  0.00  0.00    +0.000 NA
ATOM      6  C   UNL     1       2.980   6.909  18.416  0.00  0.00    +0.000 C 
ENDROOT
BRANCH   5   7
ATOM      7  C   UNL     1       1.587   8.815  17.759  0.00  0.00    +0.000 C 
ATOM      8  C   UNL     1       2.385  10.085  18.077  0.00  0.00    +0.000 C 
ATOM      9  C   UNL     1       1.686  11.018  19.053  0.00  0.00    +0.000 C 
ATOM     10  N   UNL     1       0.340  11.343  18.594  0.00  0.00    +0.000 N 
ATOM     11  C   UNL     1      -0.238  12.604  18.606  0.00  0.00    +0.000 C 
ATOM     12  C   UNL     1       0.600  13.811  18.951  0.00  0.00    +0.000 C 
ATOM     13  O   UNL     1      -1.423  12.784  18.307  0.00  0.00    +0.000 OA
ATOM     14  C   UNL     1      -0.529  10.187  18.362  0.00  0.00    +0.000 C 
ATOM     15  C   UNL     1       0.115   9.150  17.449  0.00  0.00    +0.000 C 
ENDBRANCH   5   7
BRANCH   1  16
ATOM     16  C   UNL     1       1.861   4.666  18.478  0.00  0.00    +0.000 C 
ATOM     17  O   UNL     1       1.387   4.825  17.359  0.00  0.00    +0.000 OA
BRANCH  16  18
ATOM     18  O   UNL     1       1.438   3.701  19.345  0.00  0.00    +0.000 OA
BRANCH  18  20
ATOM     19  C   UNL     1       2.625   1.729  18.499  0.00  0.00    +0.000 C 
ATOM     20  C   UNL     1       1.290   2.395  18.768  0.00  0.00    +0.000 C 
ENDBRANCH  18  20
ENDBRANCH  16  18
ENDBRANCH   1  16
BRANCH   1  21
ATOM     21  C   UNL     1       4.331   4.798  18.974  0.00  0.00    +0.000 C 
BRANCH  21  22
ATOM     22  C   UNL     1       5.073   4.944  17.668  0.00  0.00    +0.000 A 
ATOM     23  C   UNL     1       6.192   5.786  17.574  0.00  0.00    +0.000 A 
ATOM     24  C   UNL     1       6.901   5.885  16.377  0.00  0.00    +0.000 A 
ATOM     25  C   UNL     1       6.498   5.144  15.267  0.00  0.00    +0.000 A 
ATOM     26  C   UNL     1       5.390   4.308  15.348  0.00  0.00    +0.000 A 
ATOM     27  C   UNL     1       4.676   4.211  16.543  0.00  0.00    +0.000 A 
ENDBRANCH  21  22
ENDBRANCH   1  21
TORSDOF 6
ENDMDL
MODEL 7
REMARK VINA RESULT:      -6.5      3.290      4.447
REMARK  Name = 
REMARK  8 active torsions:
REMARK  status: ('A' for Active; 'I' for Inactive)
REMARK    1  A    between atoms: C_1  and  C_2
REMARK    2  A    between atoms: C_2  and  O_3
REMARK    3  A    between atoms: O_3  and  C_4
REMARK    4  A    between atoms: C_4  and  C_6
REMARK    5  A    between atoms: C_6  and  C_7
REMARK    6  A    between atoms: C_7  and  C_8
REMARK    7  A    between atoms: N_17  and  C_18
REMARK    8  A    between atoms: C_22  and  C_23
REMARK                            x       y       z     vdW  Elec       q    Type
REMARK                         _______ _______ _______ _____ _____    ______ ____
ROOT
ATOM      1  C   UNL     1       5.346   4.811  16.975  0.00  0.00    +0.000 C 
ATOM      2  C   UNL     1       6.164   6.021  16.437  0.00  0.00    +0.000 C 
ATOM      3  C   UNL     1       5.860   7.309  17.194  0.00  0.00    +0.000 C 
ATOM      4  C   UNL     1       4.361   7.595  17.214  0.00  0.00    +0.000 C 
ATOM      5  N   UNL     1       3.640   6.468  17.791  0.00  0.00    +0.000 NA
ATOM      6  C   UNL     1       3.856   5.226  17.013  0.00  0.00    +0.000 C 
ENDROOT
BRANCH   5   7
ATOM      7  C   UNL     1       2.217   6.655  18.143  0.00  0.00    +0.000 C 
ATOM      8  C   UNL     1       1.597   8.012  17.786  0.00  0.00    +0.000 C 
ATOM      9  C   UNL     1       1.819   9.082  18.843  0.00  0.00    +0.000 C 
ATOM     10  N   UNL     1       1.369   8.626  20.154  0.00  0.00    +0.000 N 
ATOM     11  C   UNL     1       0.632   9.370  21.061  0.00  0.00    +0.000 C 
ATOM     12  C   UNL     1       0.068  10.710  20.654  0.00  0.00    +0.000 C 
ATOM     13  O   UNL     1       0.384   8.956  22.199  0.00  0.00    +0.000 OA
ATOM     14  C   UNL     1       1.990   7.384  20.621  0.00  0.00    +0.000 C 
ATOM     15  C   UNL     1       1.886   6.261  19.595  0.00  0.00    +0.000 C 
ENDBRANCH   5   7
BRANCH   1  16
ATOM     16  C   UNL     1       5.790   4.425  18.394  0.00  0.00    +0.000 C 
ATOM     17  O   UNL     1       6.950   4.376  18.785  0.00  0.00    +0.000 OA
BRANCH  16  18
ATOM     18  O   UNL     1       4.717   4.114  19.177  0.00  0.00    +0.000 OA
BRANCH  18  20
ATOM     19  C   UNL     1       3.615   1.965  18.759  0.00  0.00    +0.000 C 
ATOM     20  C   UNL     1       4.636   2.736  19.570  0.00  0.00    +0.000 C 
ENDBRANCH  18  20
ENDBRANCH  16  18
ENDBRANCH   1  16
BRANCH   1  21
ATOM     21  C   UNL     1       5.598   3.629  16.007  0.00  0.00    +0.000 C 
BRANCH  21  22
ATOM     22  C   UNL     1       6.121   3.959  14.631  0.00  0.00    +0.000 A 
ATOM     23  C   UNL     1       7.264   4.756  14.475  0.00  0.00    +0.000 A 
ATOM     24  C   UNL     1       7.770   5.023  13.203  0.00  0.00    +0.000 A 
ATOM     25  C   UNL     1       7.137   4.494  12.079  0.00  0.00    +0.000 A 
ATOM     26  C   UNL     1       6.002   3.704  12.221  0.00  0.00    +0.000 A 
ATOM     27  C   UNL     1       5.492   3.440  13.492  0.00  0.00    +0.000 A 
ENDBRANCH  21  22
ENDBRANCH   1  21
TORSDOF 6
ENDMDL
MODEL 8
REMARK VINA RESULT:      -6.4      5.053      7.231
REMARK  Name = 
REMARK  8 active torsions:
REMARK  status: ('A' for Active; 'I' for Inactive)
REMARK    1  A    between atoms: C_1  and  C_2
REMARK    2  A    between atoms: C_2  and  O_3
REMARK    3  A    between atoms: O_3  and  C_4
REMARK    4  A    between atoms: C_4  and  C_6
REMARK    5  A    between atoms: C_6  and  C_7
REMARK    6  A    between atoms: C_7  and  C_8
REMARK    7  A    between atoms: N_17  and  C_18
REMARK    8  A    between atoms: C_22  and  C_23
REMARK                            x       y       z     vdW  Elec       q    Type
REMARK                         _______ _______ _______ _____ _____    ______ ____
ROOT
ATOM      1  C   UNL     1       3.111   6.074  18.928  0.00  0.00    +0.000 C 
ATOM      2  C   UNL     1       2.900   6.179  20.466  0.00  0.00    +0.000 C 
ATOM      3  C   UNL     1       1.580   6.849  20.827  0.00  0.00    +0.000 C 
ATOM      4  C   UNL     1       1.443   8.204  20.137  0.00  0.00    +0.000 C 
ATOM      5  N   UNL     1       1.574   8.051  18.694  0.00  0.00    +0.000 NA
ATOM      6  C   UNL     1       2.890   7.481  18.324  0.00  0.00    +0.000 C 
ENDROOT
BRANCH   5   7
ATOM      7  C   UNL     1       1.209   9.195  17.834  0.00  0.00    +0.000 C 
ATOM      8  C   UNL     1       2.100  10.439  17.935  0.00  0.00    +0.000 C 
ATOM      9  C   UNL     1       1.708  11.383  19.060  0.00  0.00    +0.000 C 
ATOM     10  N   UNL     1       0.299  11.751  18.968  0.00  0.00    +0.000 N 
ATOM     11  C   UNL     1      -0.217  13.027  19.132  0.00  0.00    +0.000 C 
ATOM     12  C   UNL     1       0.717  14.207  19.248  0.00  0.00    +0.000 C 
ATOM     13  O   UNL     1      -1.433  13.244  19.151  0.00  0.00    +0.000 OA
ATOM     14  C   UNL     1      -0.635  10.622  18.969  0.00  0.00    +0.000 C 
ATOM     15  C   UNL     1      -0.282   9.575  17.918  0.00  0.00    +0.000 C 
ENDBRANCH   5   7
BRANCH   1  16
ATOM     16  C   UNL     1       2.109   5.098  18.294  0.00  0.00    +0.000 C 
ATOM     17  O   UNL     1       1.304   5.380  17.415  0.00  0.00    +0.000 OA
BRANCH  16  18
ATOM     18  O   UNL     1       2.207   3.859  18.857  0.00  0.00    +0.000 OA
BRANCH  18  20
ATOM     19  C   UNL     1       1.201   2.932  20.892  0.00  0.00    +0.000 C 
ATOM     20  C   UNL     1       0.997   3.371  19.455  0.00  0.00    +0.000 C 
ENDBRANCH  18  20
ENDBRANCH  16  18
ENDBRANCH   1  16
BRANCH   1  21
ATOM     21  C   UNL     1       4.555   5.563  18.703  0.00  0.00    +0.000 C 
BRANCH  21  22
ATOM     22  C   UNL     1       4.964   5.241  17.287  0.00  0.00    +0.000 A 
ATOM     23  C   UNL     1       5.097   6.261  16.333  0.00  0.00    +0.000 A 
ATOM     24  C   UNL     1       5.517   5.965  15.037  0.00  0.00    +0.000 A 
ATOM     25  C   UNL     1       5.808   4.647  14.685  0.00  0.00    +0.000 A 
ATOM     26  C   UNL     1       5.679   3.627  15.621  0.00  0.00    +0.000 A 
ATOM     27  C   UNL     1       5.253   3.921  16.917  0.00  0.00    +0.000 A 
ENDBRANCH  21  22
ENDBRANCH   1  21
TORSDOF 6
ENDMDL
MODEL 9
REMARK VINA RESULT:      -6.4      8.738     11.480
REMARK  Name = 
REMARK  8 active torsions:
REMARK  status: ('A' for Active; 'I' for Inactive)
REMARK    1  A    between atoms: C_1  and  C_2
REMARK    2  A    between atoms: C_2  and  O_3
REMARK    3  A    between atoms: O_3  and  C_4
REMARK    4  A    between atoms: C_4  and  C_6
REMARK    5  A    between atoms: C_6  and  C_7
REMARK    6  A    between atoms: C_7  and  C_8
REMARK    7  A    between atoms: N_17  and  C_18
REMARK    8  A    between atoms: C_22  and  C_23
REMARK                            x       y       z     vdW  Elec       q    Type
REMARK                         _______ _______ _______ _____ _____    ______ ____
ROOT
ATOM      1  C   UNL     1      -0.182  10.078  19.344  0.00  0.00    +0.000 C 
ATOM      2  C   UNL     1       0.640   9.775  18.058  0.00  0.00    +0.000 C 
ATOM      3  C   UNL     1       2.036  10.386  18.104  0.00  0.00    +0.000 C 
ATOM      4  C   UNL     1       1.973  11.882  18.404  0.00  0.00    +0.000 C 
ATOM      5  N   UNL     1       1.259  12.115  19.653  0.00  0.00    +0.000 NA
ATOM      6  C   UNL     1      -0.130  11.604  19.591  0.00  0.00    +0.000 C 
ENDROOT
BRANCH   5   7
ATOM      7  C   UNL     1       1.321  13.465  20.251  0.00  0.00    +0.000 C 
ATOM      8  C   UNL     1       0.045  14.312  20.163  0.00  0.00    +0.000 C 
ATOM      9  C   UNL     1      -0.088  15.084  18.861  0.00  0.00    +0.000 C 
ATOM     10  N   UNL     1       1.100  15.894  18.609  0.00  0.00    +0.000 N 
ATOM     11  C   UNL     1       1.106  17.208  18.165  0.00  0.00    +0.000 C 
ATOM     12  C   UNL     1      -0.189  17.978  18.080  0.00  0.00    +0.000 C 
ATOM     13  O   UNL     1       2.152  17.793  17.866  0.00  0.00    +0.000 OA
ATOM     14  C   UNL     1       2.359  15.147  18.573  0.00  0.00    +0.000 C 
ATOM     15  C   UNL     1       2.554  14.277  19.809  0.00  0.00    +0.000 C 
ENDBRANCH   5   7
BRANCH   1  16
ATOM     16  C   UNL     1       0.410   9.357  20.565  0.00  0.00    +0.000 C 
ATOM     17  O   UNL     1       1.553   8.924  20.648  0.00  0.00    +0.000 OA
BRANCH  16  18
ATOM     18  O   UNL     1      -0.517   9.233  21.559  0.00  0.00    +0.000 OA
BRANCH  18  20
ATOM     19  C   UNL     1      -1.229  10.999  23.102  0.00  0.00    +0.000 C 
ATOM     20  C   UNL     1      -0.201   9.936  22.770  0.00  0.00    +0.000 C 
ENDBRANCH  18  20
ENDBRANCH  16  18
ENDBRANCH   1  16
BRANCH   1  21
ATOM     21  C   UNL     1      -1.624   9.576  19.088  0.00  0.00    +0.000 C 
BRANCH  21  22
ATOM     22  C   UNL     1      -2.354  10.145  17.896  0.00  0.00    +0.000 A 
ATOM     23  C   UNL     1      -2.046   9.711  16.598  0.00  0.00    +0.000 A 
ATOM     24  C   UNL     1      -2.753  10.207  15.503  0.00  0.00    +0.000 A 
ATOM     25  C   UNL     1      -3.772  11.138  15.697  0.00  0.00    +0.000 A 
ATOM     26  C   UNL     1      -4.085  11.577  16.979  0.00  0.00    +0.000 A 
ATOM     27  C   UNL     1      -3.375  11.086  18.075  0.00  0.00    +0.000 A 
ENDBRANCH  21  22
ENDBRANCH   1  21
TORSDOF 6
ENDMDL
