MODEL 1
REMARK VINA RESULT:      -6.4      0.000      0.000
REMARK  Name = 
REMARK  9 active torsions:
REMARK  status: ('A' for Active; 'I' for Inactive)
REMARK    1  A    between atoms: C_1  and  N_2
REMARK    2  A    between atoms: C_6  and  C_8
REMARK    3  A    between atoms: N_11  and  C_12
REMARK    4  A    between atoms: C_19  and  C_20
REMARK    5  A    between atoms: C_24  and  O_26
REMARK    6  A    between atoms: O_26  and  C_27
REMARK    7  A    between atoms: C_27  and  C_28
REMARK    8  A    between atoms: C_27  and  C_29
REMARK    9  A    between atoms: C_27  and  C_30
REMARK                            x       y       z     vdW  Elec       q    Type
REMARK                         _______ _______ _______ _____ _____    ______ ____
ROOT
ATOM      1  C   UNL     1       6.012  15.672  19.780  0.00  0.00    +0.000 A 
ATOM      2  C   UNL     1       5.663  15.206  18.495  0.00  0.00    +0.000 A 
ATOM      3  N   UNL     1       6.697  14.763  17.802  0.00  0.00    +0.000 NA
ATOM      4  N   UNL     1       7.691  14.663  18.710  0.00  0.00    +0.000 N 
ATOM      5  C   UNL     1       7.358  15.278  19.936  0.00  0.00    +0.000 A 
ENDROOT
BRANCH   1  11
ATOM      6  C   UNL     1       0.273  13.948  21.627  0.00  0.00    +0.000 C 
ATOM      7  N   UNL     1       1.637  14.336  21.976  0.00  0.00    +0.000 NA
ATOM      8  C   UNL     1       1.792  15.807  22.028  0.00  0.00    +0.000 C 
ATOM      9  C   UNL     1       3.247  16.228  22.354  0.00  0.00    +0.000 C 
ATOM     10  N   UNL     1       4.208  15.583  21.445  0.00  0.00    +0.000 N 
ATOM     11  C   UNL     1       5.079  16.365  20.677  0.00  0.00    +0.000 C 
ATOM     12  O   UNL     1       5.073  17.590  20.758  0.00  0.00    +0.000 OA
ATOM     13  C   UNL     1       4.021  14.130  21.358  0.00  0.00    +0.000 C 
ATOM     14  C   UNL     1       2.578  13.776  20.994  0.00  0.00    +0.000 C 
ENDBRANCH   1  11
BRANCH   5  15
ATOM     15  C   UNL     1       8.393  15.423  21.056  0.00  0.00    +0.000 C 
ATOM     16  C   UNL     1       9.318  14.235  21.320  0.00  0.00    +0.000 C 
ATOM     17  C   UNL     1       8.623  13.121  22.080  0.00  0.00    +0.000 C 
ATOM     18  N   UNL     1       8.032  13.632  23.317  0.00  0.00    +0.000 N 
ATOM     19  C   UNL     1       8.156  12.860  24.444  0.00  0.00    +0.000 C 
ATOM     20  O   UNL     1       8.786  11.805  24.453  0.00  0.00    +0.000 OA
ATOM     21  C   UNL     1       7.134  14.759  23.191  0.00  0.00    +0.000 C 
ATOM     22  C   UNL     1       7.802  15.881  22.416  0.00  0.00    +0.000 C 
BRANCH  19  23
ATOM     23  O   UNL     1       7.523  13.380  25.540  0.00  0.00    +0.000 OA
BRANCH  23  24
ATOM     24  C   UNL     1       6.443  12.608  26.119  0.00  0.00    +0.000 C 
ATOM     25  C   UNL     1       5.946  11.526  25.146  0.00  0.00    +0.000 C 
ATOM     26  C   UNL     1       7.031  11.911  27.357  0.00  0.00    +0.000 C 
ATOM     27  C   UNL     1       5.313  13.534  26.595  0.00  0.00    +0.000 C 
ENDBRANCH  23  24
ENDBRANCH  19  23
ENDBRANCH   5  15
BRANCH   4  28
ATOM     28  C   UNL     1       8.904  14.060  18.278  0.00  0.00    +0.000 A 
ATOM     29  C   UNL     1       9.991  14.815  17.822  0.00  0.00    +0.000 A 
ATOM     30  C   UNL     1      11.103  14.178  17.268  0.00  0.00    +0.000 A 
ATOM     31  C   UNL     1      11.151  12.786  17.210  0.00  0.00    +0.000 A 
ATOM     32  C   UNL     1      10.096  12.041  17.724  0.00  0.00    +0.000 A 
ATOM     33  F   UNL     1      10.144  10.704  17.663  0.00  0.00    +0.000 F 
ATOM     34  C   UNL     1       8.977  12.659  18.267  0.00  0.00    +0.000 A 
ENDBRANCH   4  28
TORSDOF 5
ENDMDL
MODEL 2
REMARK VINA RESULT:      -6.3      4.756      8.317
REMARK  Name = 
REMARK  9 active torsions:
REMARK  status: ('A' for Active; 'I' for Inactive)
REMARK    1  A    between atoms: C_1  and  N_2
REMARK    2  A    between atoms: C_6  and  C_8
REMARK    3  A    between atoms: N_11  and  C_12
REMARK    4  A    between atoms: C_19  and  C_20
REMARK    5  A    between atoms: C_24  and  O_26
REMARK    6  A    between atoms: O_26  and  C_27
REMARK    7  A    between atoms: C_27  and  C_28
REMARK    8  A    between atoms: C_27  and  C_29
REMARK    9  A    between atoms: C_27  and  C_30
REMARK                            x       y       z     vdW  Elec       q    Type
REMARK                         _______ _______ _______ _____ _____    ______ ____
ROOT
ATOM      1  C   UNL     1      -1.670  13.102  20.255  0.00  0.00    +0.000 A 
ATOM      2  C   UNL     1      -2.446  12.162  19.544  0.00  0.00    +0.000 A 
ATOM      3  N   UNL     1      -1.732  11.174  19.036  0.00  0.00    +0.000 NA
ATOM      4  N   UNL     1      -0.528  11.288  19.636  0.00  0.00    +0.000 N 
ATOM      5  C   UNL     1      -0.397  12.501  20.345  0.00  0.00    +0.000 A 
ENDROOT
BRANCH   1  11
ATOM      6  C   UNL     1      -6.710  14.138  23.839  0.00  0.00    +0.000 C 
ATOM      7  N   UNL     1      -5.272  14.275  23.632  0.00  0.00    +0.000 NA
ATOM      8  C   UNL     1      -4.947  15.467  22.815  0.00  0.00    +0.000 C 
ATOM      9  C   UNL     1      -3.426  15.596  22.553  0.00  0.00    +0.000 C 
ATOM     10  N   UNL     1      -2.869  14.352  21.997  0.00  0.00    +0.000 N 
ATOM     11  C   UNL     1      -2.198  14.372  20.769  0.00  0.00    +0.000 C 
ATOM     12  O   UNL     1      -2.044  15.419  20.146  0.00  0.00    +0.000 OA
ATOM     13  C   UNL     1      -3.233  13.166  22.782  0.00  0.00    +0.000 C 
ATOM     14  C   UNL     1      -4.747  13.069  22.973  0.00  0.00    +0.000 C 
ENDBRANCH   1  11
BRANCH   5  15
ATOM     15  C   UNL     1       0.939  12.912  20.972  0.00  0.00    +0.000 C 
ATOM     16  C   UNL     1       1.031  14.311  21.583  0.00  0.00    +0.000 C 
ATOM     17  C   UNL     1       1.169  15.392  20.528  0.00  0.00    +0.000 C 
ATOM     18  N   UNL     1       2.303  15.112  19.647  0.00  0.00    +0.000 N 
ATOM     19  C   UNL     1       3.103  16.167  19.289  0.00  0.00    +0.000 C 
ATOM     20  O   UNL     1       2.929  17.302  19.725  0.00  0.00    +0.000 OA
ATOM     21  C   UNL     1       2.323  13.814  19.008  0.00  0.00    +0.000 C 
ATOM     22  C   UNL     1       2.167  12.715  20.043  0.00  0.00    +0.000 C 
BRANCH  19  23
ATOM     23  O   UNL     1       4.101  15.830  18.415  0.00  0.00    +0.000 OA
BRANCH  23  24
ATOM     24  C   UNL     1       5.447  15.739  18.938  0.00  0.00    +0.000 C 
ATOM     25  C   UNL     1       5.458  15.134  20.352  0.00  0.00    +0.000 C 
ATOM     26  C   UNL     1       6.208  14.787  18.001  0.00  0.00    +0.000 C 
ATOM     27  C   UNL     1       6.143  17.108  18.880  0.00  0.00    +0.000 C 
ENDBRANCH  23  24
ENDBRANCH  19  23
ENDBRANCH   5  15
BRANCH   4  28
ATOM     28  C   UNL     1       0.417  10.253  19.394  0.00  0.00    +0.000 A 
ATOM     29  C   UNL     1       1.051  10.096  18.156  0.00  0.00    +0.000 A 
ATOM     30  C   UNL     1       1.855   8.979  17.917  0.00  0.00    +0.000 A 
ATOM     31  C   UNL     1       2.064   8.043  18.928  0.00  0.00    +0.000 A 
ATOM     32  C   UNL     1       1.483   8.238  20.176  0.00  0.00    +0.000 A 
ATOM     33  F   UNL     1       1.683   7.334  21.143  0.00  0.00    +0.000 F 
ATOM     34  C   UNL     1       0.671   9.336  20.426  0.00  0.00    +0.000 A 
ENDBRANCH   4  28
TORSDOF 5
ENDMDL
MODEL 3
REMARK VINA RESULT:      -6.2      7.271     11.266
REMARK  Name = 
REMARK  9 active torsions:
REMARK  status: ('A' for Active; 'I' for Inactive)
REMARK    1  A    between atoms: C_1  and  N_2
REMARK    2  A    between atoms: C_6  and  C_8
REMARK    3  A    between atoms: N_11  and  C_12
REMARK    4  A    between atoms: C_19  and  C_20
REMARK    5  A    between atoms: C_24  and  O_26
REMARK    6  A    between atoms: O_26  and  C_27
REMARK    7  A    between atoms: C_27  and  C_28
REMARK    8  A    between atoms: C_27  and  C_29
REMARK    9  A    between atoms: C_27  and  C_30
REMARK                            x       y       z     vdW  Elec       q    Type
REMARK                         _______ _______ _______ _____ _____    ______ ____
ROOT
ATOM      1  C   UNL     1      -2.635  16.124  22.715  0.00  0.00    +0.000 A 
ATOM      2  C   UNL     1      -3.711  17.036  22.693  0.00  0.00    +0.000 A 
ATOM      3  N   UNL     1      -4.872  16.467  22.425  0.00  0.00    +0.000 NA
ATOM      4  N   UNL     1      -4.633  15.144  22.546  0.00  0.00    +0.000 N 
ATOM      5  C   UNL     1      -3.255  14.858  22.651  0.00  0.00    +0.000 A 
ENDROOT
BRANCH   1  11
ATOM      6  C   UNL     1       1.915  15.818  18.410  0.00  0.00    +0.000 C 
ATOM      7  N   UNL     1       1.124  16.617  19.341  0.00  0.00    +0.000 NA
ATOM      8  C   UNL     1       1.685  16.577  20.711  0.00  0.00    +0.000 C 
ATOM      9  C   UNL     1       0.827  17.388  21.714  0.00  0.00    +0.000 C 
ATOM     10  N   UNL     1      -0.586  16.980  21.663  0.00  0.00    +0.000 N 
ATOM     11  C   UNL     1      -1.227  16.527  22.822  0.00  0.00    +0.000 C 
ATOM     12  O   UNL     1      -0.637  16.477  23.897  0.00  0.00    +0.000 OA
ATOM     13  C   UNL     1      -1.127  16.973  20.298  0.00  0.00    +0.000 C 
ATOM     14  C   UNL     1      -0.263  16.126  19.363  0.00  0.00    +0.000 C 
ENDBRANCH   1  11
BRANCH   5  15
ATOM     15  C   UNL     1      -2.741  13.415  22.640  0.00  0.00    +0.000 C 
ATOM     16  C   UNL     1      -1.313  13.170  23.127  0.00  0.00    +0.000 C 
ATOM     17  C   UNL     1      -0.276  13.568  22.094  0.00  0.00    +0.000 C 
ATOM     18  N   UNL     1      -0.534  12.899  20.819  0.00  0.00    +0.000 N 
ATOM     19  C   UNL     1       0.545  12.402  20.135  0.00  0.00    +0.000 C 
ATOM     20  O   UNL     1       1.688  12.453  20.582  0.00  0.00    +0.000 OA
ATOM     21  C   UNL     1      -1.857  13.061  20.257  0.00  0.00    +0.000 C 
ATOM     22  C   UNL     1      -2.914  12.687  21.280  0.00  0.00    +0.000 C 
BRANCH  19  23
ATOM     23  O   UNL     1       0.223  11.849  18.925  0.00  0.00    +0.000 OA
BRANCH  23  24
ATOM     24  C   UNL     1       0.169  10.405  18.842  0.00  0.00    +0.000 C 
ATOM     25  C   UNL     1      -0.058   9.774  20.226  0.00  0.00    +0.000 C 
ATOM     26  C   UNL     1      -1.042  10.072  17.955  0.00  0.00    +0.000 C 
ATOM     27  C   UNL     1       1.424   9.856  18.145  0.00  0.00    +0.000 C 
ENDBRANCH  23  24
ENDBRANCH  19  23
ENDBRANCH   5  15
BRANCH   4  28
ATOM     28  C   UNL     1      -5.753  14.272  22.460  0.00  0.00    +0.000 A 
ATOM     29  C   UNL     1      -6.221  13.548  23.562  0.00  0.00    +0.000 A 
ATOM     30  C   UNL     1      -7.226  12.592  23.398  0.00  0.00    +0.000 A 
ATOM     31  C   UNL     1      -7.794  12.390  22.141  0.00  0.00    +0.000 A 
ATOM     32  C   UNL     1      -7.369  13.156  21.063  0.00  0.00    +0.000 A 
ATOM     33  F   UNL     1      -7.915  12.956  19.857  0.00  0.00    +0.000 F 
ATOM     34  C   UNL     1      -6.362  14.103  21.207  0.00  0.00    +0.000 A 
ENDBRANCH   4  28
TORSDOF 5
ENDMDL
MODEL 4
REMARK VINA RESULT:      -6.2      1.765      1.932
REMARK  Name = 
REMARK  9 active torsions:
REMARK  status: ('A' for Active; 'I' for Inactive)
REMARK    1  A    between atoms: C_1  and  N_2
REMARK    2  A    between atoms: C_6  and  C_8
REMARK    3  A    between atoms: N_11  and  C_12
REMARK    4  A    between atoms: C_19  and  C_20
REMARK    5  A    between atoms: C_24  and  O_26
REMARK    6  A    between atoms: O_26  and  C_27
REMARK    7  A    between atoms: C_27  and  C_28
REMARK    8  A    between atoms: C_27  and  C_29
REMARK    9  A    between atoms: C_27  and  C_30
REMARK                            x       y       z     vdW  Elec       q    Type
REMARK                         _______ _______ _______ _____ _____    ______ ____
ROOT
ATOM      1  C   UNL     1       6.655  15.882  19.304  0.00  0.00    +0.000 A 
ATOM      2  C   UNL     1       6.764  15.332  18.009  0.00  0.00    +0.000 A 
ATOM      3  N   UNL     1       7.834  14.572  17.854  0.00  0.00    +0.000 NA
ATOM      4  N   UNL     1       8.291  14.376  19.108  0.00  0.00    +0.000 N 
ATOM      5  C   UNL     1       7.653  15.216  20.046  0.00  0.00    +0.000 A 
ENDROOT
BRANCH   1  11
ATOM      6  C   UNL     1       0.413  15.668  18.741  0.00  0.00    +0.000 C 
ATOM      7  N   UNL     1       1.589  15.832  19.591  0.00  0.00    +0.000 NA
ATOM      8  C   UNL     1       2.075  17.231  19.590  0.00  0.00    +0.000 C 
ATOM      9  C   UNL     1       3.348  17.405  20.455  0.00  0.00    +0.000 C 
ATOM     10  N   UNL     1       4.391  16.437  20.077  0.00  0.00    +0.000 N 
ATOM     11  C   UNL     1       5.655  16.888  19.680  0.00  0.00    +0.000 C 
ATOM     12  O   UNL     1       5.924  18.086  19.658  0.00  0.00    +0.000 OA
ATOM     13  C   UNL     1       3.894  15.056  20.030  0.00  0.00    +0.000 C 
ATOM     14  C   UNL     1       2.663  14.938  19.131  0.00  0.00    +0.000 C 
ENDBRANCH   1  11
BRANCH   5  15
ATOM     15  C   UNL     1       8.123  15.277  21.503  0.00  0.00    +0.000 C 
ATOM     16  C   UNL     1       8.601  13.975  22.145  0.00  0.00    +0.000 C 
ATOM     17  C   UNL     1       7.449  13.067  22.533  0.00  0.00    +0.000 C 
ATOM     18  N   UNL     1       6.500  13.776  23.392  0.00  0.00    +0.000 N 
ATOM     19  C   UNL     1       5.984  13.094  24.464  0.00  0.00    +0.000 C 
ATOM     20  O   UNL     1       6.334  11.952  24.748  0.00  0.00    +0.000 OA
ATOM     21  C   UNL     1       5.976  15.026  22.886  0.00  0.00    +0.000 C 
ATOM     22  C   UNL     1       7.111  15.945  22.473  0.00  0.00    +0.000 C 
BRANCH  19  23
ATOM     23  O   UNL     1       5.059  13.808  25.177  0.00  0.00    +0.000 OA
BRANCH  23  24
ATOM     24  C   UNL     1       5.449  14.295  26.483  0.00  0.00    +0.000 C 
ATOM     25  C   UNL     1       5.058  13.302  27.590  0.00  0.00    +0.000 C 
ATOM     26  C   UNL     1       6.982  14.409  26.457  0.00  0.00    +0.000 C 
ATOM     27  C   UNL     1       4.880  15.701  26.727  0.00  0.00    +0.000 C 
ENDBRANCH  23  24
ENDBRANCH  19  23
ENDBRANCH   5  15
BRANCH   4  28
ATOM     28  C   UNL     1       9.364  13.457  19.271  0.00  0.00    +0.000 A 
ATOM     29  C   UNL     1      10.699  13.875  19.344  0.00  0.00    +0.000 A 
ATOM     30  C   UNL     1      11.728  12.931  19.352  0.00  0.00    +0.000 A 
ATOM     31  C   UNL     1      11.425  11.571  19.334  0.00  0.00    +0.000 A 
ATOM     32  C   UNL     1      10.097  11.162  19.326  0.00  0.00    +0.000 A 
ATOM     33  F   UNL     1       9.810   9.855  19.305  0.00  0.00    +0.000 F 
ATOM     34  C   UNL     1       9.061  12.088  19.305  0.00  0.00    +0.000 A 
ENDBRANCH   4  28
TORSDOF 5
ENDMDL
MODEL 5
REMARK VINA RESULT:      -6.1      2.358      5.747
REMARK  Name = 
REMARK  9 active torsions:
REMARK  status: ('A' for Active; 'I' for Inactive)
REMARK    1  A    between atoms: C_1  and  N_2
REMARK    2  A    between atoms: C_6  and  C_8
REMARK    3  A    between atoms: N_11  and  C_12
REMARK    4  A    between atoms: C_19  and  C_20
REMARK    5  A    between atoms: C_24  and  O_26
REMARK    6  A    between atoms: O_26  and  C_27
REMARK    7  A    between atoms: C_27  and  C_28
REMARK    8  A    between atoms: C_27  and  C_29
REMARK    9  A    between atoms: C_27  and  C_30
REMARK                            x       y       z     vdW  Elec       q    Type
REMARK                         _______ _______ _______ _____ _____    ______ ____
ROOT
ATOM      1  C   UNL     1       7.171  13.286  22.614  0.00  0.00    +0.000 A 
ATOM      2  C   UNL     1       7.588  11.960  22.856  0.00  0.00    +0.000 A 
ATOM      3  N   UNL     1       8.468  11.522  21.973  0.00  0.00    +0.000 NA
ATOM      4  N   UNL     1       8.860  12.631  21.311  0.00  0.00    +0.000 N 
ATOM      5  C   UNL     1       8.045  13.745  21.606  0.00  0.00    +0.000 A 
ENDROOT
BRANCH   1  11
ATOM      6  C   UNL     1       6.809  14.758  28.700  0.00  0.00    +0.000 C 
ATOM      7  N   UNL     1       6.762  15.183  27.304  0.00  0.00    +0.000 NA
ATOM      8  C   UNL     1       5.413  15.000  26.720  0.00  0.00    +0.000 C 
ATOM      9  C   UNL     1       5.365  15.407  25.226  0.00  0.00    +0.000 C 
ATOM     10  N   UNL     1       6.420  14.733  24.452  0.00  0.00    +0.000 N 
ATOM     11  C   UNL     1       6.082  13.944  23.347  0.00  0.00    +0.000 C 
ATOM     12  O   UNL     1       4.913  13.813  22.992  0.00  0.00    +0.000 OA
ATOM     13  C   UNL     1       7.749  14.875  25.058  0.00  0.00    +0.000 C 
ATOM     14  C   UNL     1       7.745  14.420  26.519  0.00  0.00    +0.000 C 
ENDBRANCH   1  11
BRANCH   5  15
ATOM     15  C   UNL     1       8.207  15.067  20.850  0.00  0.00    +0.000 C 
ATOM     16  C   UNL     1       7.716  16.339  21.542  0.00  0.00    +0.000 C 
ATOM     17  C   UNL     1       6.206  16.475  21.495  0.00  0.00    +0.000 C 
ATOM     18  N   UNL     1       5.722  16.388  20.117  0.00  0.00    +0.000 N 
ATOM     19  C   UNL     1       4.733  17.258  19.737  0.00  0.00    +0.000 C 
ATOM     20  O   UNL     1       4.295  18.126  20.489  0.00  0.00    +0.000 OA
ATOM     21  C   UNL     1       6.122  15.221  19.361  0.00  0.00    +0.000 C 
ATOM     22  C   UNL     1       7.630  15.054  19.409  0.00  0.00    +0.000 C 
BRANCH  19  23
ATOM     23  O   UNL     1       4.295  17.068  18.454  0.00  0.00    +0.000 OA
BRANCH  23  24
ATOM     24  C   UNL     1       2.993  16.464  18.273  0.00  0.00    +0.000 C 
ATOM     25  C   UNL     1       2.001  17.455  17.640  0.00  0.00    +0.000 C 
ATOM     26  C   UNL     1       3.195  15.293  17.297  0.00  0.00    +0.000 C 
ATOM     27  C   UNL     1       2.477  15.884  19.599  0.00  0.00    +0.000 C 
ENDBRANCH  23  24
ENDBRANCH  19  23
ENDBRANCH   5  15
BRANCH   4  28
ATOM     28  C   UNL     1       9.931  12.489  20.386  0.00  0.00    +0.000 A 
ATOM     29  C   UNL     1      11.115  13.228  20.497  0.00  0.00    +0.000 A 
ATOM     30  C   UNL     1      12.075  13.168  19.485  0.00  0.00    +0.000 A 
ATOM     31  C   UNL     1      11.875  12.337  18.384  0.00  0.00    +0.000 A 
ATOM     32  C   UNL     1      10.726  11.558  18.311  0.00  0.00    +0.000 A 
ATOM     33  F   UNL     1      10.536  10.764  17.249  0.00  0.00    +0.000 F 
ATOM     34  C   UNL     1       9.756  11.615  19.302  0.00  0.00    +0.000 A 
ENDBRANCH   4  28
TORSDOF 5
ENDMDL
MODEL 6
REMARK VINA RESULT:      -6.1      2.923      7.515
REMARK  Name = 
REMARK  9 active torsions:
REMARK  status: ('A' for Active; 'I' for Inactive)
REMARK    1  A    between atoms: C_1  and  N_2
REMARK    2  A    between atoms: C_6  and  C_8
REMARK    3  A    between atoms: N_11  and  C_12
REMARK    4  A    between atoms: C_19  and  C_20
REMARK    5  A    between atoms: C_24  and  O_26
REMARK    6  A    between atoms: O_26  and  C_27
REMARK    7  A    between atoms: C_27  and  C_28
REMARK    8  A    between atoms: C_27  and  C_29
REMARK    9  A    between atoms: C_27  and  C_30
REMARK                            x       y       z     vdW  Elec       q    Type
REMARK                         _______ _______ _______ _____ _____    ______ ____
ROOT
ATOM      1  C   UNL     1       8.948  12.951  20.120  0.00  0.00    +0.000 A 
ATOM      2  C   UNL     1       9.266  11.609  20.420  0.00  0.00    +0.000 A 
ATOM      3  N   UNL     1       9.081  11.301  21.691  0.00  0.00    +0.000 NA
ATOM      4  N   UNL     1       8.374  12.337  22.188  0.00  0.00    +0.000 N 
ATOM      5  C   UNL     1       8.320  13.426  21.291  0.00  0.00    +0.000 A 
ENDROOT
BRANCH   1  11
ATOM      6  C   UNL     1      11.797  18.403  18.904  0.00  0.00    +0.000 C 
ATOM      7  N   UNL     1      11.728  16.957  18.716  0.00  0.00    +0.000 NA
ATOM      8  C   UNL     1      10.795  16.590  17.626  0.00  0.00    +0.000 C 
ATOM      9  C   UNL     1      10.683  15.055  17.448  0.00  0.00    +0.000 C 
ATOM     10  N   UNL     1      10.364  14.389  18.721  0.00  0.00    +0.000 N 
ATOM     11  C   UNL     1       9.224  13.584  18.825  0.00  0.00    +0.000 C 
ATOM     12  O   UNL     1       8.484  13.403  17.863  0.00  0.00    +0.000 OA
ATOM     13  C   UNL     1      11.260  14.792  19.813  0.00  0.00    +0.000 C 
ATOM     14  C   UNL     1      11.299  16.313  19.967  0.00  0.00    +0.000 C 
ENDBRANCH   1  11
BRANCH   5  15
ATOM     15  C   UNL     1       7.705  14.766  21.707  0.00  0.00    +0.000 C 
ATOM     16  C   UNL     1       6.481  14.726  22.623  0.00  0.00    +0.000 C 
ATOM     17  C   UNL     1       5.214  14.353  21.877  0.00  0.00    +0.000 C 
ATOM     18  N   UNL     1       5.007  15.246  20.736  0.00  0.00    +0.000 N 
ATOM     19  C   UNL     1       3.730  15.687  20.501  0.00  0.00    +0.000 C 
ATOM     20  O   UNL     1       2.790  15.405  21.240  0.00  0.00    +0.000 OA
ATOM     21  C   UNL     1       6.100  15.363  19.796  0.00  0.00    +0.000 C 
ATOM     22  C   UNL     1       7.385  15.716  20.523  0.00  0.00    +0.000 C 
BRANCH  19  23
ATOM     23  O   UNL     1       3.613  16.464  19.381  0.00  0.00    +0.000 OA
BRANCH  23  24
ATOM     24  C   UNL     1       2.729  16.001  18.333  0.00  0.00    +0.000 C 
ATOM     25  C   UNL     1       1.268  16.386  18.623  0.00  0.00    +0.000 C 
ATOM     26  C   UNL     1       3.172  16.722  17.049  0.00  0.00    +0.000 C 
ATOM     27  C   UNL     1       2.905  14.492  18.106  0.00  0.00    +0.000 C 
ENDBRANCH  23  24
ENDBRANCH  19  23
ENDBRANCH   5  15
BRANCH   4  28
ATOM     28  C   UNL     1       7.891  12.213  23.520  0.00  0.00    +0.000 A 
ATOM     29  C   UNL     1       6.691  11.558  23.820  0.00  0.00    +0.000 A 
ATOM     30  C   UNL     1       6.180  11.591  25.120  0.00  0.00    +0.000 A 
ATOM     31  C   UNL     1       6.890  12.240  26.129  0.00  0.00    +0.000 A 
ATOM     32  C   UNL     1       8.112  12.834  25.838  0.00  0.00    +0.000 A 
ATOM     33  F   UNL     1       8.788  13.459  26.810  0.00  0.00    +0.000 F 
ATOM     34  C   UNL     1       8.628  12.820  24.548  0.00  0.00    +0.000 A 
ENDBRANCH   4  28
TORSDOF 5
ENDMDL
MODEL 7
REMARK VINA RESULT:      -6.1      6.595     10.324
REMARK  Name = 
REMARK  9 active torsions:
REMARK  status: ('A' for Active; 'I' for Inactive)
REMARK    1  A    between atoms: C_1  and  N_2
REMARK    2  A    between atoms: C_6  and  C_8
REMARK    3  A    between atoms: N_11  and  C_12
REMARK    4  A    between atoms: C_19  and  C_20
REMARK    5  A    between atoms: C_24  and  O_26
REMARK    6  A    between atoms: O_26  and  C_27
REMARK    7  A    between atoms: C_27  and  C_28
REMARK    8  A    between atoms: C_27  and  C_29
REMARK    9  A    between atoms: C_27  and  C_30
REMARK                            x       y       z     vdW  Elec       q    Type
REMARK                         _______ _______ _______ _____ _____    ______ ____
ROOT
ATOM      1  C   UNL     1      -0.031  15.496  22.684  0.00  0.00    +0.000 A 
ATOM      2  C   UNL     1      -0.477  16.013  23.919  0.00  0.00    +0.000 A 
ATOM      3  N   UNL     1      -1.772  15.845  24.117  0.00  0.00    +0.000 NA
ATOM      4  N   UNL     1      -2.148  14.972  23.159  0.00  0.00    +0.000 N 
ATOM      5  C   UNL     1      -1.137  14.771  22.194  0.00  0.00    +0.000 A 
ENDROOT
BRANCH   1  11
ATOM      6  C   UNL     1       1.743  17.784  17.122  0.00  0.00    +0.000 C 
ATOM      7  N   UNL     1       1.790  17.859  18.579  0.00  0.00    +0.000 NA
ATOM      8  C   UNL     1       2.827  16.963  19.140  0.00  0.00    +0.000 C 
ATOM      9  C   UNL     1       2.855  17.003  20.689  0.00  0.00    +0.000 C 
ATOM     10  N   UNL     1       1.519  16.757  21.256  0.00  0.00    +0.000 N 
ATOM     11  C   UNL     1       1.323  15.703  22.156  0.00  0.00    +0.000 C 
ATOM     12  O   UNL     1       2.254  14.981  22.502  0.00  0.00    +0.000 OA
ATOM     13  C   UNL     1       0.483  17.612  20.663  0.00  0.00    +0.000 C 
ATOM     14  C   UNL     1       0.477  17.500  19.138  0.00  0.00    +0.000 C 
ENDBRANCH   1  11
BRANCH   5  15
ATOM     15  C   UNL     1      -1.400  13.943  20.932  0.00  0.00    +0.000 C 
ATOM     16  C   UNL     1      -2.193  12.645  21.092  0.00  0.00    +0.000 C 
ATOM     17  C   UNL     1      -1.352  11.526  21.676  0.00  0.00    +0.000 C 
ATOM     18  N   UNL     1      -0.139  11.324  20.884  0.00  0.00    +0.000 N 
ATOM     19  C   UNL     1       0.249  10.032  20.637  0.00  0.00    +0.000 C 
ATOM     20  O   UNL     1      -0.411   9.064  21.007  0.00  0.00    +0.000 OA
ATOM     21  C   UNL     1       0.695  12.485  20.666  0.00  0.00    +0.000 C 
ATOM     22  C   UNL     1      -0.129  13.628  20.099  0.00  0.00    +0.000 C 
BRANCH  19  23
ATOM     23  O   UNL     1       1.425   9.933  19.944  0.00  0.00    +0.000 OA
BRANCH  23  24
ATOM     24  C   UNL     1       1.349   9.868  18.500  0.00  0.00    +0.000 C 
ATOM     25  C   UNL     1       2.206  10.964  17.846  0.00  0.00    +0.000 C 
ATOM     26  C   UNL     1       1.927   8.500  18.101  0.00  0.00    +0.000 C 
ATOM     27  C   UNL     1      -0.115   9.911  18.034  0.00  0.00    +0.000 C 
ENDBRANCH  23  24
ENDBRANCH  19  23
ENDBRANCH   5  15
BRANCH   4  28
ATOM     28  C   UNL     1      -3.481  14.479  23.216  0.00  0.00    +0.000 A 
ATOM     29  C   UNL     1      -4.532  15.089  22.521  0.00  0.00    +0.000 A 
ATOM     30  C   UNL     1      -5.846  14.665  22.725  0.00  0.00    +0.000 A 
ATOM     31  C   UNL     1      -6.108  13.603  23.589  0.00  0.00    +0.000 A 
ATOM     32  C   UNL     1      -5.054  12.960  24.227  0.00  0.00    +0.000 A 
ATOM     33  F   UNL     1      -5.311  11.942  25.059  0.00  0.00    +0.000 F 
ATOM     34  C   UNL     1      -3.742  13.377  24.045  0.00  0.00    +0.000 A 
ENDBRANCH   4  28
TORSDOF 5
ENDMDL
MODEL 8
REMARK VINA RESULT:      -6.1      1.224      1.502
REMARK  Name = 
REMARK  9 active torsions:
REMARK  status: ('A' for Active; 'I' for Inactive)
REMARK    1  A    between atoms: C_1  and  N_2
REMARK    2  A    between atoms: C_6  and  C_8
REMARK    3  A    between atoms: N_11  and  C_12
REMARK    4  A    between atoms: C_19  and  C_20
REMARK    5  A    between atoms: C_24  and  O_26
REMARK    6  A    between atoms: O_26  and  C_27
REMARK    7  A    between atoms: C_27  and  C_28
REMARK    8  A    between atoms: C_27  and  C_29
REMARK    9  A    between atoms: C_27  and  C_30
REMARK                            x       y       z     vdW  Elec       q    Type
REMARK                         _______ _______ _______ _____ _____    ______ ____
ROOT
ATOM      1  C   UNL     1       5.167  15.462  19.417  0.00  0.00    +0.000 A 
ATOM      2  C   UNL     1       5.127  15.130  18.046  0.00  0.00    +0.000 A 
ATOM      3  N   UNL     1       6.312  14.826  17.548  0.00  0.00    +0.000 NA
ATOM      4  N   UNL     1       7.102  14.675  18.631  0.00  0.00    +0.000 N 
ATOM      5  C   UNL     1       6.478  15.125  19.815  0.00  0.00    +0.000 A 
ENDROOT
BRANCH   1  11
ATOM      6  C   UNL     1      -0.768  13.441  19.528  0.00  0.00    +0.000 C 
ATOM      7  N   UNL     1       0.456  13.771  20.252  0.00  0.00    +0.000 NA
ATOM      8  C   UNL     1       0.532  15.215  20.571  0.00  0.00    +0.000 C 
ATOM      9  C   UNL     1       1.848  15.581  21.301  0.00  0.00    +0.000 C 
ATOM     10  N   UNL     1       3.025  15.097  20.561  0.00  0.00    +0.000 N 
ATOM     11  C   UNL     1       4.019  15.996  20.160  0.00  0.00    +0.000 C 
ATOM     12  O   UNL     1       3.942  17.192  20.429  0.00  0.00    +0.000 OA
ATOM     13  C   UNL     1       2.926  13.677  20.203  0.00  0.00    +0.000 C 
ATOM     14  C   UNL     1       1.627  13.383  19.451  0.00  0.00    +0.000 C 
ENDBRANCH   1  11
BRANCH   5  15
ATOM     15  C   UNL     1       7.246  15.195  21.138  0.00  0.00    +0.000 C 
ATOM     16  C   UNL     1       8.232  14.067  21.442  0.00  0.00    +0.000 C 
ATOM     17  C   UNL     1       7.534  12.797  21.891  0.00  0.00    +0.000 C 
ATOM     18  N   UNL     1       6.654  13.067  23.028  0.00  0.00    +0.000 N 
ATOM     19  C   UNL     1       6.641  12.152  24.050  0.00  0.00    +0.000 C 
ATOM     20  O   UNL     1       7.374  11.167  24.061  0.00  0.00    +0.000 OA
ATOM     21  C   UNL     1       5.674  14.117  22.857  0.00  0.00    +0.000 C 
ATOM     22  C   UNL     1       6.347  15.395  22.388  0.00  0.00    +0.000 C 
BRANCH  19  23
ATOM     23  O   UNL     1       5.746  12.448  25.043  0.00  0.00    +0.000 OA
BRANCH  23  24
ATOM     24  C   UNL     1       6.279  12.847  26.328  0.00  0.00    +0.000 C 
ATOM     25  C   UNL     1       7.493  13.777  26.165  0.00  0.00    +0.000 C 
ATOM     26  C   UNL     1       5.160  13.634  27.030  0.00  0.00    +0.000 C 
ATOM     27  C   UNL     1       6.594  11.614  27.189  0.00  0.00    +0.000 C 
ENDBRANCH  23  24
ENDBRANCH  19  23
ENDBRANCH   5  15
BRANCH   4  28
ATOM     28  C   UNL     1       8.421  14.191  18.410  0.00  0.00    +0.000 A 
ATOM     29  C   UNL     1       9.525  15.048  18.327  0.00  0.00    +0.000 A 
ATOM     30  C   UNL     1      10.775  14.545  17.959  0.00  0.00    +0.000 A 
ATOM     31  C   UNL     1      10.934  13.182  17.717  0.00  0.00    +0.000 A 
ATOM     32  C   UNL     1       9.847  12.327  17.864  0.00  0.00    +0.000 A 
ATOM     33  F   UNL     1      10.003  11.018  17.628  0.00  0.00    +0.000 F 
ATOM     34  C   UNL     1       8.595  12.812  18.217  0.00  0.00    +0.000 A 
ENDBRANCH   4  28
TORSDOF 5
ENDMDL
MODEL 9
REMARK VINA RESULT:      -6.1      1.237      1.692
REMARK  Name = 
REMARK  9 active torsions:
REMARK  status: ('A' for Active; 'I' for Inactive)
REMARK    1  A    between atoms: C_1  and  N_2
REMARK    2  A    between atoms: C_6  and  C_8
REMARK    3  A    between atoms: N_11  and  C_12
REMARK    4  A    between atoms: C_19  and  C_20
REMARK    5  A    between atoms: C_24  and  O_26
REMARK    6  A    between atoms: O_26  and  C_27
REMARK    7  A    between atoms: C_27  and  C_28
REMARK    8  A    between atoms: C_27  and  C_29
REMARK    9  A    between atoms: C_27  and  C_30
REMARK                            x       y       z     vdW  Elec       q    Type
REMARK                         _______ _______ _______ _____ _____    ______ ____
ROOT
ATOM      1  C   UNL     1       6.217  15.453  18.988  0.00  0.00    +0.000 A 
ATOM      2  C   UNL     1       5.827  14.652  17.894  0.00  0.00    +0.000 A 
ATOM      3  N   UNL     1       6.812  13.922  17.404  0.00  0.00    +0.000 NA
ATOM      4  N   UNL     1       7.788  14.009  18.332  0.00  0.00    +0.000 N 
ATOM      5  C   UNL     1       7.515  14.998  19.302  0.00  0.00    +0.000 A 
ENDROOT
BRANCH   1  11
ATOM      6  C   UNL     1       0.279  14.969  20.947  0.00  0.00    +0.000 C 
ATOM      7  N   UNL     1       1.673  15.290  21.241  0.00  0.00    +0.000 NA
ATOM      8  C   UNL     1       2.001  16.688  20.879  0.00  0.00    +0.000 C 
ATOM      9  C   UNL     1       3.489  17.025  21.148  0.00  0.00    +0.000 C 
ATOM     10  N   UNL     1       4.384  16.045  20.512  0.00  0.00    +0.000 N 
ATOM     11  C   UNL     1       5.356  16.472  19.600  0.00  0.00    +0.000 C 
ATOM     12  O   UNL     1       5.494  17.661  19.328  0.00  0.00    +0.000 OA
ATOM     13  C   UNL     1       4.027  14.658  20.833  0.00  0.00    +0.000 C 
ATOM     14  C   UNL     1       2.560  14.373  20.510  0.00  0.00    +0.000 C 
ENDBRANCH   1  11
BRANCH   5  15
ATOM     15  C   UNL     1       8.556  15.379  20.360  0.00  0.00    +0.000 C 
ATOM     16  C   UNL     1       9.397  14.252  20.960  0.00  0.00    +0.000 C 
ATOM     17  C   UNL     1       8.625  13.439  21.982  0.00  0.00    +0.000 C 
ATOM     18  N   UNL     1       8.069  14.309  23.019  0.00  0.00    +0.000 N 
ATOM     19  C   UNL     1       8.138  13.872  24.317  0.00  0.00    +0.000 C 
ATOM     20  O   UNL     1       8.694  12.822  24.629  0.00  0.00    +0.000 OA
ATOM     21  C   UNL     1       7.251  15.414  22.569  0.00  0.00    +0.000 C 
ATOM     22  C   UNL     1       7.995  16.232  21.529  0.00  0.00    +0.000 C 
BRANCH  19  23
ATOM     23  O   UNL     1       7.540  14.714  25.214  0.00  0.00    +0.000 OA
BRANCH  23  24
ATOM     24  C   UNL     1       6.493  14.168  26.051  0.00  0.00    +0.000 C 
ATOM     25  C   UNL     1       7.049  13.696  27.405  0.00  0.00    +0.000 C 
ATOM     26  C   UNL     1       5.507  15.320  26.310  0.00  0.00    +0.000 C 
ATOM     27  C   UNL     1       5.732  13.059  25.309  0.00  0.00    +0.000 C 
ENDBRANCH  23  24
ENDBRANCH  19  23
ENDBRANCH   5  15
BRANCH   4  28
ATOM     28  C   UNL     1       8.936  13.191  18.146  0.00  0.00    +0.000 A 
ATOM     29  C   UNL     1       8.988  11.866  18.595  0.00  0.00    +0.000 A 
ATOM     30  C   UNL     1      10.185  11.149  18.526  0.00  0.00    +0.000 A 
ATOM     31  C   UNL     1      11.317  11.739  17.967  0.00  0.00    +0.000 A 
ATOM     32  C   UNL     1      11.242  13.032  17.464  0.00  0.00    +0.000 A 
ATOM     33  F   UNL     1      12.333  13.596  16.931  0.00  0.00    +0.000 F 
ATOM     34  C   UNL     1      10.063  13.763  17.536  0.00  0.00    +0.000 A 
ENDBRANCH   4  28
TORSDOF 5
ENDMDL
