MODEL 1
REMARK VINA RESULT:      -7.4      0.000      0.000
REMARK  Name = 
REMARK  4 active torsions:
REMARK  status: ('A' for Active; 'I' for Inactive)
REMARK    1  A    between atoms: C_2  and  C_4
REMARK    2  A    between atoms: C_7  and  C_8
REMARK    3  A    between atoms: N_11  and  C_12
REMARK    4  A    between atoms: N_22  and  C_23
REMARK                            x       y       z     vdW  Elec       q    Type
REMARK                         _______ _______ _______ _____ _____    ______ ____
ROOT
ATOM      1  C   UNL     1       1.090  12.391  18.715  0.00  0.00    +0.000 A 
ATOM      2  N   UNL     1       1.518  11.144  18.555  0.00  0.00    +0.000 NA
ATOM      3  C   UNL     1       0.575  10.238  18.390  0.00  0.00    +0.000 A 
ATOM      4  N   UNL     1       0.951   8.897  18.213  0.00  0.00    +0.000 N 
ATOM      5  N   UNL     1      -0.732  10.522  18.396  0.00  0.00    +0.000 NA
ATOM      6  C   UNL     1      -1.069  11.805  18.557  0.00  0.00    +0.000 A 
ATOM      7  N   UNL     1      -2.387  12.234  18.528  0.00  0.00    +0.000 N 
ATOM      8  N   UNL     1      -0.190  12.780  18.726  0.00  0.00    +0.000 NA
ATOM      9  H   UNL     1       0.117   8.350  18.396  0.00  0.00    +0.000 HD
ATOM     10  H   UNL     1      -2.437  13.187  18.869  0.00  0.00    +0.000 HD
ENDROOT
BRANCH   4  11
ATOM     11  C   UNL     1       2.172   8.494  18.929  0.00  0.00    +0.000 C 
ATOM     12  C   UNL     1       2.976   7.444  18.132  0.00  0.00    +0.000 C 
ATOM     13  C   UNL     1       2.414   6.023  18.198  0.00  0.00    +0.000 C 
ATOM     14  C   UNL     1       2.124   5.587  19.621  0.00  0.00    +0.000 C 
ATOM     15  F   UNL     1       3.300   5.440  20.289  0.00  0.00    +0.000 F 
ATOM     16  F   UNL     1       1.533   4.368  19.614  0.00  0.00    +0.000 F 
ATOM     17  C   UNL     1       1.250   6.570  20.374  0.00  0.00    +0.000 C 
ATOM     18  C   UNL     1       1.829   7.982  20.339  0.00  0.00    +0.000 C 
ENDBRANCH   4  11
BRANCH   7  19
ATOM     19  C   UNL     1      -3.495  11.331  18.803  0.00  0.00    +0.000 C 
ATOM     20  C   UNL     1      -4.010  10.718  17.484  0.00  0.00    +0.000 C 
ATOM     21  C   UNL     1      -4.870  11.654  16.636  0.00  0.00    +0.000 C 
ATOM     22  C   UNL     1      -5.983  12.288  17.445  0.00  0.00    +0.000 C 
ATOM     23  F   UNL     1      -6.887  11.332  17.787  0.00  0.00    +0.000 F 
ATOM     24  F   UNL     1      -6.649  13.186  16.677  0.00  0.00    +0.000 F 
ATOM     25  C   UNL     1      -5.484  12.972  18.703  0.00  0.00    +0.000 C 
ATOM     26  C   UNL     1      -4.623  12.046  19.565  0.00  0.00    +0.000 C 
ENDBRANCH   7  19
BRANCH   1  30
ATOM     27  C   UNL     1       3.971  14.659  18.602  0.00  0.00    +0.000 A 
ATOM     28  C   UNL     1       3.438  15.318  19.694  0.00  0.00    +0.000 A 
ATOM     29  S   UNL     1       1.992  14.559  20.204  0.00  0.00    +0.000 S 
ATOM     30  C   UNL     1       2.135  13.412  18.919  0.00  0.00    +0.000 A 
ATOM     31  N   UNL     1       3.211  13.576  18.161  0.00  0.00    +0.000 NA
BRANCH  27  33
ATOM     32  F   UNL     1       6.083  15.700  18.738  0.00  0.00    +0.000 F 
ATOM     33  C   UNL     1       5.246  15.018  17.907  0.00  0.00    +0.000 C 
ATOM     34  F   UNL     1       5.924  13.898  17.531  0.00  0.00    +0.000 F 
ENDBRANCH  27  33
ENDBRANCH   1  30
TORSDOF 4
ENDMDL
MODEL 2
REMARK VINA RESULT:      -7.3      1.877      7.988
REMARK  Name = 
REMARK  4 active torsions:
REMARK  status: ('A' for Active; 'I' for Inactive)
REMARK    1  A    between atoms: C_2  and  C_4
REMARK    2  A    between atoms: C_7  and  C_8
REMARK    3  A    between atoms: N_11  and  C_12
REMARK    4  A    between atoms: N_22  and  C_23
REMARK                            x       y       z     vdW  Elec       q    Type
REMARK                         _______ _______ _______ _____ _____    ______ ____
ROOT
ATOM      1  C   UNL     1       0.775  10.901  18.840  0.00  0.00    +0.000 A 
ATOM      2  N   UNL     1      -0.513  10.990  18.533  0.00  0.00    +0.000 NA
ATOM      3  C   UNL     1      -0.952  12.206  18.276  0.00  0.00    +0.000 A 
ATOM      4  N   UNL     1      -2.304  12.379  17.942  0.00  0.00    +0.000 N 
ATOM      5  N   UNL     1      -0.180  13.297  18.329  0.00  0.00    +0.000 NA
ATOM      6  C   UNL     1       1.106  13.111  18.640  0.00  0.00    +0.000 A 
ATOM      7  N   UNL     1       2.018  14.154  18.676  0.00  0.00    +0.000 N 
ATOM      8  N   UNL     1       1.632  11.926  18.910  0.00  0.00    +0.000 NA
ATOM      9  H   UNL     1      -2.497  13.367  18.070  0.00  0.00    +0.000 HD
ATOM     10  H   UNL     1       2.871  13.839  19.124  0.00  0.00    +0.000 HD
ENDROOT
BRANCH   4  11
ATOM     11  C   UNL     1      -3.231  11.439  18.592  0.00  0.00    +0.000 C 
ATOM     12  C   UNL     1      -3.913  10.512  17.564  0.00  0.00    +0.000 C 
ATOM     13  C   UNL     1      -5.053  11.160  16.776  0.00  0.00    +0.000 C 
ATOM     14  C   UNL     1      -6.045  11.868  17.679  0.00  0.00    +0.000 C 
ATOM     15  F   UNL     1      -6.720  10.941  18.411  0.00  0.00    +0.000 F 
ATOM     16  F   UNL     1      -6.970  12.510  16.927  0.00  0.00    +0.000 F 
ATOM     17  C   UNL     1      -5.385  12.854  18.623  0.00  0.00    +0.000 C 
ATOM     18  C   UNL     1      -4.270  12.199  19.435  0.00  0.00    +0.000 C 
ENDBRANCH   4  11
BRANCH   7  19
ATOM     19  C   UNL     1       1.599  15.535  18.857  0.00  0.00    +0.000 C 
ATOM     20  C   UNL     1       2.576  16.479  18.125  0.00  0.00    +0.000 C 
ATOM     21  C   UNL     1       3.909  16.700  18.839  0.00  0.00    +0.000 C 
ATOM     22  C   UNL     1       3.715  17.090  20.291  0.00  0.00    +0.000 C 
ATOM     23  F   UNL     1       3.172  18.335  20.350  0.00  0.00    +0.000 F 
ATOM     24  F   UNL     1       4.923  17.170  20.904  0.00  0.00    +0.000 F 
ATOM     25  C   UNL     1       2.827  16.123  21.049  0.00  0.00    +0.000 C 
ATOM     26  C   UNL     1       1.486  15.895  20.348  0.00  0.00    +0.000 C 
ENDBRANCH   7  19
BRANCH   1  30
ATOM     27  C   UNL     1       2.310   7.570  18.934  0.00  0.00    +0.000 A 
ATOM     28  C   UNL     1       1.916   7.476  20.256  0.00  0.00    +0.000 A 
ATOM     29  S   UNL     1       1.050   8.875  20.724  0.00  0.00    +0.000 S 
ATOM     30  C   UNL     1       1.275   9.548  19.148  0.00  0.00    +0.000 A 
ATOM     31  N   UNL     1       1.946   8.766  18.314  0.00  0.00    +0.000 NA
BRANCH  27  33
ATOM     32  F   UNL     1       2.208   5.597  17.646  0.00  0.00    +0.000 F 
ATOM     33  C   UNL     1       3.058   6.523  18.172  0.00  0.00    +0.000 C 
ATOM     34  F   UNL     1       3.713   7.071  17.112  0.00  0.00    +0.000 F 
ENDBRANCH  27  33
ENDBRANCH   1  30
TORSDOF 4
ENDMDL
MODEL 3
REMARK VINA RESULT:      -7.1      2.196      8.713
REMARK  Name = 
REMARK  4 active torsions:
REMARK  status: ('A' for Active; 'I' for Inactive)
REMARK    1  A    between atoms: C_2  and  C_4
REMARK    2  A    between atoms: C_7  and  C_8
REMARK    3  A    between atoms: N_11  and  C_12
REMARK    4  A    between atoms: N_22  and  C_23
REMARK                            x       y       z     vdW  Elec       q    Type
REMARK                         _______ _______ _______ _____ _____    ______ ____
ROOT
ATOM      1  C   UNL     1      -1.074  10.966  17.993  0.00  0.00    +0.000 A 
ATOM      2  N   UNL     1      -0.452  12.045  18.453  0.00  0.00    +0.000 NA
ATOM      3  C   UNL     1       0.817  11.876  18.768  0.00  0.00    +0.000 A 
ATOM      4  N   UNL     1       1.542  12.973  19.260  0.00  0.00    +0.000 N 
ATOM      5  N   UNL     1       1.457  10.707  18.658  0.00  0.00    +0.000 NA
ATOM      6  C   UNL     1       0.753   9.677  18.179  0.00  0.00    +0.000 A 
ATOM      7  N   UNL     1       1.316   8.429  17.968  0.00  0.00    +0.000 N 
ATOM      8  N   UNL     1      -0.523   9.757  17.836  0.00  0.00    +0.000 NA
ATOM      9  H   UNL     1       2.368  12.583  19.701  0.00  0.00    +0.000 HD
ATOM     10  H   UNL     1       0.580   7.752  17.802  0.00  0.00    +0.000 HD
ENDROOT
BRANCH   4  11
ATOM     11  C   UNL     1       0.758  13.928  20.060  0.00  0.00    +0.000 C 
ATOM     12  C   UNL     1       0.479  15.228  19.277  0.00  0.00    +0.000 C 
ATOM     13  C   UNL     1       1.661  16.195  19.199  0.00  0.00    +0.000 C 
ATOM     14  C   UNL     1       2.285  16.449  20.558  0.00  0.00    +0.000 C 
ATOM     15  F   UNL     1       1.411  17.157  21.323  0.00  0.00    +0.000 F 
ATOM     16  F   UNL     1       3.387  17.224  20.419  0.00  0.00    +0.000 F 
ATOM     17  C   UNL     1       2.652  15.172  21.287  0.00  0.00    +0.000 C 
ATOM     18  C   UNL     1       1.462  14.221  21.396  0.00  0.00    +0.000 C 
ENDBRANCH   4  11
BRANCH   7  19
ATOM     19  C   UNL     1       2.518   8.000  18.667  0.00  0.00    +0.000 C 
ATOM     20  C   UNL     1       3.175   6.827  17.909  0.00  0.00    +0.000 C 
ATOM     21  C   UNL     1       2.482   5.477  18.095  0.00  0.00    +0.000 C 
ATOM     22  C   UNL     1       2.252   5.157  19.558  0.00  0.00    +0.000 C 
ATOM     23  F   UNL     1       3.450   4.927  20.158  0.00  0.00    +0.000 F 
ATOM     24  F   UNL     1       1.543   4.005  19.664  0.00  0.00    +0.000 F 
ATOM     25  C   UNL     1       1.529   6.264  20.300  0.00  0.00    +0.000 C 
ATOM     26  C   UNL     1       2.213   7.622  20.126  0.00  0.00    +0.000 C 
ENDBRANCH   7  19
BRANCH   1  30
ATOM     27  C   UNL     1      -4.694  11.546  17.868  0.00  0.00    +0.000 A 
ATOM     28  C   UNL     1      -4.623  11.403  16.494  0.00  0.00    +0.000 A 
ATOM     29  S   UNL     1      -3.022  11.046  16.011  0.00  0.00    +0.000 S 
ATOM     30  C   UNL     1      -2.499  11.136  17.656  0.00  0.00    +0.000 A 
ATOM     31  N   UNL     1      -3.469  11.401  18.520  0.00  0.00    +0.000 NA
BRANCH  27  33
ATOM     32  F   UNL     1      -6.928  10.947  18.332  0.00  0.00    +0.000 F 
ATOM     33  C   UNL     1      -5.937  11.827  18.650  0.00  0.00    +0.000 C 
ATOM     34  F   UNL     1      -5.714  11.671  19.985  0.00  0.00    +0.000 F 
ENDBRANCH  27  33
ENDBRANCH   1  30
TORSDOF 4
ENDMDL
MODEL 4
REMARK VINA RESULT:      -7.1      1.446      8.534
REMARK  Name = 
REMARK  4 active torsions:
REMARK  status: ('A' for Active; 'I' for Inactive)
REMARK    1  A    between atoms: C_2  and  C_4
REMARK    2  A    between atoms: C_7  and  C_8
REMARK    3  A    between atoms: N_11  and  C_12
REMARK    4  A    between atoms: N_22  and  C_23
REMARK                            x       y       z     vdW  Elec       q    Type
REMARK                         _______ _______ _______ _____ _____    ______ ____
ROOT
ATOM      1  C   UNL     1      -0.673  11.237  18.584  0.00  0.00    +0.000 A 
ATOM      2  N   UNL     1       0.211  12.224  18.659  0.00  0.00    +0.000 NA
ATOM      3  C   UNL     1       1.477  11.856  18.623  0.00  0.00    +0.000 A 
ATOM      4  N   UNL     1       2.470  12.845  18.696  0.00  0.00    +0.000 N 
ATOM      5  N   UNL     1       1.873  10.582  18.535  0.00  0.00    +0.000 NA
ATOM      6  C   UNL     1       0.913   9.656  18.457  0.00  0.00    +0.000 A 
ATOM      7  N   UNL     1       1.194   8.307  18.309  0.00  0.00    +0.000 N 
ATOM      8  N   UNL     1      -0.381   9.936  18.483  0.00  0.00    +0.000 NA
ATOM      9  H   UNL     1       3.326  12.360  18.943  0.00  0.00    +0.000 HD
ATOM     10  H   UNL     1       0.352   7.767  18.476  0.00  0.00    +0.000 HD
ENDROOT
BRANCH   4  11
ATOM     11  C   UNL     1       2.121  14.019  19.512  0.00  0.00    +0.000 C 
ATOM     12  C   UNL     1       1.798  15.245  18.633  0.00  0.00    +0.000 C 
ATOM     13  C   UNL     1       3.022  15.957  18.054  0.00  0.00    +0.000 C 
ATOM     14  C   UNL     1       4.069  16.249  19.111  0.00  0.00    +0.000 C 
ATOM     15  F   UNL     1       3.589  17.195  19.963  0.00  0.00    +0.000 F 
ATOM     16  F   UNL     1       5.170  16.782  18.529  0.00  0.00    +0.000 F 
ATOM     17  C   UNL     1       4.460  15.022  19.910  0.00  0.00    +0.000 C 
ATOM     18  C   UNL     1       3.242  14.332  20.518  0.00  0.00    +0.000 C 
ENDBRANCH   4  11
BRANCH   7  19
ATOM     19  C   UNL     1       2.478   7.743  18.698  0.00  0.00    +0.000 C 
ATOM     20  C   UNL     1       2.867   6.607  17.728  0.00  0.00    +0.000 C 
ATOM     21  C   UNL     1       2.123   5.291  17.953  0.00  0.00    +0.000 C 
ATOM     22  C   UNL     1       2.178   4.850  19.402  0.00  0.00    +0.000 C 
ATOM     23  F   UNL     1       3.452   4.493  19.711  0.00  0.00    +0.000 F 
ATOM     24  F   UNL     1       1.417   3.739  19.567  0.00  0.00    +0.000 F 
ATOM     25  C   UNL     1       1.715   5.926  20.365  0.00  0.00    +0.000 C 
ATOM     26  C   UNL     1       2.453   7.250  20.155  0.00  0.00    +0.000 C 
ENDBRANCH   7  19
BRANCH   1  30
ATOM     27  C   UNL     1      -4.253  11.866  18.091  0.00  0.00    +0.000 A 
ATOM     28  C   UNL     1      -4.279  12.440  19.349  0.00  0.00    +0.000 A 
ATOM     29  S   UNL     1      -2.715  12.434  20.041  0.00  0.00    +0.000 S 
ATOM     30  C   UNL     1      -2.092  11.635  18.642  0.00  0.00    +0.000 A 
ATOM     31  N   UNL     1      -2.998  11.399  17.703  0.00  0.00    +0.000 NA
BRANCH  27  33
ATOM     32  F   UNL     1      -6.456  11.078  17.788  0.00  0.00    +0.000 F 
ATOM     33  C   UNL     1      -5.427  11.727  17.174  0.00  0.00    +0.000 C 
ATOM     34  F   UNL     1      -5.914  12.950  16.823  0.00  0.00    +0.000 F 
ENDBRANCH  27  33
ENDBRANCH   1  30
TORSDOF 4
ENDMDL
MODEL 5
REMARK VINA RESULT:      -7.0      2.408      8.943
REMARK  Name = 
REMARK  4 active torsions:
REMARK  status: ('A' for Active; 'I' for Inactive)
REMARK    1  A    between atoms: C_2  and  C_4
REMARK    2  A    between atoms: C_7  and  C_8
REMARK    3  A    between atoms: N_11  and  C_12
REMARK    4  A    between atoms: N_22  and  C_23
REMARK                            x       y       z     vdW  Elec       q    Type
REMARK                         _______ _______ _______ _____ _____    ______ ____
ROOT
ATOM      1  C   UNL     1      -1.849  11.486  18.364  0.00  0.00    +0.000 A 
ATOM      2  N   UNL     1      -1.225  12.650  18.506  0.00  0.00    +0.000 NA
ATOM      3  C   UNL     1       0.084  12.577  18.647  0.00  0.00    +0.000 A 
ATOM      4  N   UNL     1       0.813  13.767  18.801  0.00  0.00    +0.000 N 
ATOM      5  N   UNL     1       0.762  11.425  18.667  0.00  0.00    +0.000 NA
ATOM      6  C   UNL     1       0.052  10.304  18.511  0.00  0.00    +0.000 A 
ATOM      7  N   UNL     1       0.644   9.052  18.460  0.00  0.00    +0.000 N 
ATOM      8  N   UNL     1      -1.264  10.284  18.359  0.00  0.00    +0.000 NA
ATOM      9  H   UNL     1       1.715  13.492  19.176  0.00  0.00    +0.000 HD
ATOM     10  H   UNL     1      -0.072   8.338  18.543  0.00  0.00    +0.000 HD
ENDROOT
BRANCH   4  11
ATOM     11  C   UNL     1       0.105  14.843  19.513  0.00  0.00    +0.000 C 
ATOM     12  C   UNL     1       0.036  16.132  18.667  0.00  0.00    +0.000 C 
ATOM     13  C   UNL     1       1.331  16.945  18.634  0.00  0.00    +0.000 C 
ATOM     14  C   UNL     1       1.896  17.181  20.021  0.00  0.00    +0.000 C 
ATOM     15  F   UNL     1       1.070  18.022  20.701  0.00  0.00    +0.000 F 
ATOM     16  F   UNL     1       3.091  17.811  19.927  0.00  0.00    +0.000 F 
ATOM     17  C   UNL     1       2.058  15.902  20.818  0.00  0.00    +0.000 C 
ATOM     18  C   UNL     1       0.756  15.107  20.881  0.00  0.00    +0.000 C 
ENDBRANCH   4  11
BRANCH   7  19
ATOM     19  C   UNL     1       1.957   8.800  19.035  0.00  0.00    +0.000 C 
ATOM     20  C   UNL     1       2.790   7.925  18.074  0.00  0.00    +0.000 C 
ATOM     21  C   UNL     1       2.412   6.444  18.067  0.00  0.00    +0.000 C 
ATOM     22  C   UNL     1       2.362   5.867  19.468  0.00  0.00    +0.000 C 
ATOM     23  F   UNL     1       3.621   5.820  19.977  0.00  0.00    +0.000 F 
ATOM     24  F   UNL     1       1.922   4.585  19.415  0.00  0.00    +0.000 F 
ATOM     25  C   UNL     1       1.477   6.666  20.405  0.00  0.00    +0.000 C 
ATOM     26  C   UNL     1       1.844   8.152  20.425  0.00  0.00    +0.000 C 
ENDBRANCH   7  19
BRANCH   1  30
ATOM     27  C   UNL     1      -5.479  11.889  18.711  0.00  0.00    +0.000 A 
ATOM     28  C   UNL     1      -5.595  11.585  17.367  0.00  0.00    +0.000 A 
ATOM     29  S   UNL     1      -4.060  11.243  16.695  0.00  0.00    +0.000 S 
ATOM     30  C   UNL     1      -3.316  11.552  18.224  0.00  0.00    +0.000 A 
ATOM     31  N   UNL     1      -4.168  11.877  19.187  0.00  0.00    +0.000 NA
BRANCH  27  33
ATOM     32  F   UNL     1      -7.534  11.203  19.644  0.00  0.00    +0.000 F 
ATOM     33  C   UNL     1      -6.613  12.207  19.632  0.00  0.00    +0.000 C 
ATOM     34  F   UNL     1      -6.175  12.326  20.916  0.00  0.00    +0.000 F 
ENDBRANCH  27  33
ENDBRANCH   1  30
TORSDOF 4
ENDMDL
MODEL 6
REMARK VINA RESULT:      -7.0      3.687      7.288
REMARK  Name = 
REMARK  4 active torsions:
REMARK  status: ('A' for Active; 'I' for Inactive)
REMARK    1  A    between atoms: C_2  and  C_4
REMARK    2  A    between atoms: C_7  and  C_8
REMARK    3  A    between atoms: N_11  and  C_12
REMARK    4  A    between atoms: N_22  and  C_23
REMARK                            x       y       z     vdW  Elec       q    Type
REMARK                         _______ _______ _______ _____ _____    ______ ____
ROOT
ATOM      1  C   UNL     1       0.434  11.241  21.300  0.00  0.00    +0.000 A 
ATOM      2  N   UNL     1       1.180  12.305  21.025  0.00  0.00    +0.000 NA
ATOM      3  C   UNL     1       0.737  13.448  21.510  0.00  0.00    +0.000 A 
ATOM      4  N   UNL     1       1.473  14.617  21.262  0.00  0.00    +0.000 N 
ATOM      5  N   UNL     1      -0.392  13.562  22.218  0.00  0.00    +0.000 NA
ATOM      6  C   UNL     1      -1.074  12.437  22.451  0.00  0.00    +0.000 A 
ATOM      7  N   UNL     1      -2.229  12.416  23.216  0.00  0.00    +0.000 N 
ATOM      8  N   UNL     1      -0.701  11.247  22.006  0.00  0.00    +0.000 NA
ATOM      9  H   UNL     1       0.841  15.388  21.452  0.00  0.00    +0.000 HD
ATOM     10  H   UNL     1      -2.693  11.521  23.100  0.00  0.00    +0.000 HD
ENDROOT
BRANCH   4  11
ATOM     11  C   UNL     1       2.176  14.647  19.970  0.00  0.00    +0.000 C 
ATOM     12  C   UNL     1       3.271  15.735  19.946  0.00  0.00    +0.000 C 
ATOM     13  C   UNL     1       2.753  17.160  19.748  0.00  0.00    +0.000 C 
ATOM     14  C   UNL     1       1.794  17.264  18.577  0.00  0.00    +0.000 C 
ATOM     15  F   UNL     1       2.482  17.067  17.420  0.00  0.00    +0.000 F 
ATOM     16  F   UNL     1       1.287  18.518  18.512  0.00  0.00    +0.000 F 
ATOM     17  C   UNL     1       0.660  16.261  18.652  0.00  0.00    +0.000 C 
ATOM     18  C   UNL     1       1.178  14.834  18.814  0.00  0.00    +0.000 C 
ENDBRANCH   4  11
BRANCH   7  19
ATOM     19  C   UNL     1      -3.041  13.606  23.415  0.00  0.00    +0.000 C 
ATOM     20  C   UNL     1      -3.815  13.497  24.746  0.00  0.00    +0.000 C 
ATOM     21  C   UNL     1      -5.030  12.570  24.705  0.00  0.00    +0.000 C 
ATOM     22  C   UNL     1      -5.942  12.885  23.537  0.00  0.00    +0.000 C 
ATOM     23  F   UNL     1      -6.533  14.091  23.744  0.00  0.00    +0.000 F 
ATOM     24  F   UNL     1      -6.944  11.972  23.484  0.00  0.00    +0.000 F 
ATOM     25  C   UNL     1      -5.213  12.911  22.207  0.00  0.00    +0.000 C 
ATOM     26  C   UNL     1      -3.995  13.838  22.231  0.00  0.00    +0.000 C 
ENDBRANCH   7  19
BRANCH   1  30
ATOM     27  C   UNL     1       1.712   8.438  19.307  0.00  0.00    +0.000 A 
ATOM     28  C   UNL     1       1.696   7.672  20.458  0.00  0.00    +0.000 A 
ATOM     29  S   UNL     1       1.087   8.580  21.773  0.00  0.00    +0.000 S 
ATOM     30  C   UNL     1       0.910   9.959  20.747  0.00  0.00    +0.000 A 
ATOM     31  N   UNL     1       1.270   9.749  19.488  0.00  0.00    +0.000 NA
BRANCH  27  33
ATOM     32  F   UNL     1       3.471   8.226  17.750  0.00  0.00    +0.000 F 
ATOM     33  C   UNL     1       2.149   7.969  17.956  0.00  0.00    +0.000 C 
ATOM     34  F   UNL     1       2.010   6.619  17.845  0.00  0.00    +0.000 F 
ENDBRANCH  27  33
ENDBRANCH   1  30
TORSDOF 4
ENDMDL
MODEL 7
REMARK VINA RESULT:      -7.0      6.550      9.057
REMARK  Name = 
REMARK  4 active torsions:
REMARK  status: ('A' for Active; 'I' for Inactive)
REMARK    1  A    between atoms: C_2  and  C_4
REMARK    2  A    between atoms: C_7  and  C_8
REMARK    3  A    between atoms: N_11  and  C_12
REMARK    4  A    between atoms: N_22  and  C_23
REMARK                            x       y       z     vdW  Elec       q    Type
REMARK                         _______ _______ _______ _____ _____    ______ ____
ROOT
ATOM      1  C   UNL     1       6.522  13.513  22.858  0.00  0.00    +0.000 A 
ATOM      2  N   UNL     1       7.653  13.505  22.163  0.00  0.00    +0.000 NA
ATOM      3  C   UNL     1       7.623  14.169  21.024  0.00  0.00    +0.000 A 
ATOM      4  N   UNL     1       8.782  14.208  20.234  0.00  0.00    +0.000 N 
ATOM      5  N   UNL     1       6.538  14.803  20.567  0.00  0.00    +0.000 NA
ATOM      6  C   UNL     1       5.447  14.763  21.338  0.00  0.00    +0.000 A 
ATOM      7  N   UNL     1       4.276  15.424  21.001  0.00  0.00    +0.000 N 
ATOM      8  N   UNL     1       5.389  14.123  22.495  0.00  0.00    +0.000 NA
ATOM      9  H   UNL     1       8.478  14.498  19.311  0.00  0.00    +0.000 HD
ATOM     10  H   UNL     1       3.524  15.102  21.600  0.00  0.00    +0.000 HD
ENDROOT
BRANCH   4  11
ATOM     11  C   UNL     1       9.621  13.000  20.301  0.00  0.00    +0.000 C 
ATOM     12  C   UNL     1      11.121  13.345  20.188  0.00  0.00    +0.000 C 
ATOM     13  C   UNL     1      11.602  13.654  18.770  0.00  0.00    +0.000 C 
ATOM     14  C   UNL     1      11.164  12.599  17.773  0.00  0.00    +0.000 C 
ATOM     15  F   UNL     1      11.827  11.440  18.032  0.00  0.00    +0.000 F 
ATOM     16  F   UNL     1      11.524  12.974  16.522  0.00  0.00    +0.000 F 
ATOM     17  C   UNL     1       9.673  12.331  17.813  0.00  0.00    +0.000 C 
ATOM     18  C   UNL     1       9.198  11.987  19.223  0.00  0.00    +0.000 C 
ENDBRANCH   4  11
BRANCH   7  19
ATOM     19  C   UNL     1       3.970  15.791  19.627  0.00  0.00    +0.000 C 
ATOM     20  C   UNL     1       3.327  17.194  19.590  0.00  0.00    +0.000 C 
ATOM     21  C   UNL     1       1.861  17.237  20.019  0.00  0.00    +0.000 C 
ATOM     22  C   UNL     1       1.027  16.205  19.286  0.00  0.00    +0.000 C 
ATOM     23  F   UNL     1       0.932  16.557  17.976  0.00  0.00    +0.000 F 
ATOM     24  F   UNL     1      -0.238  16.213  19.777  0.00  0.00    +0.000 F 
ATOM     25  C   UNL     1       1.598  14.804  19.385  0.00  0.00    +0.000 C 
ATOM     26  C   UNL     1       3.066  14.744  18.955  0.00  0.00    +0.000 C 
ENDBRANCH   7  19
BRANCH   1  30
ATOM     27  C   UNL     1       5.880  11.434  25.812  0.00  0.00    +0.000 A 
ATOM     28  C   UNL     1       7.194  11.642  26.188  0.00  0.00    +0.000 A 
ATOM     29  S   UNL     1       7.981  12.671  25.070  0.00  0.00    +0.000 S 
ATOM     30  C   UNL     1       6.538  12.757  24.125  0.00  0.00    +0.000 A 
ATOM     31  N   UNL     1       5.520  12.069  24.623  0.00  0.00    +0.000 NA
BRANCH  27  33
ATOM     32  F   UNL     1       4.009  11.412  27.248  0.00  0.00    +0.000 F 
ATOM     33  C   UNL     1       4.879  10.617  26.565  0.00  0.00    +0.000 C 
ATOM     34  F   UNL     1       4.116   9.879  25.711  0.00  0.00    +0.000 F 
ENDBRANCH  27  33
ENDBRANCH   1  30
TORSDOF 4
ENDMDL
MODEL 8
REMARK VINA RESULT:      -6.9      3.869      8.694
REMARK  Name = 
REMARK  4 active torsions:
REMARK  status: ('A' for Active; 'I' for Inactive)
REMARK    1  A    between atoms: C_2  and  C_4
REMARK    2  A    between atoms: C_7  and  C_8
REMARK    3  A    between atoms: N_11  and  C_12
REMARK    4  A    between atoms: N_22  and  C_23
REMARK                            x       y       z     vdW  Elec       q    Type
REMARK                         _______ _______ _______ _____ _____    ______ ____
ROOT
ATOM      1  C   UNL     1      -1.080  10.233  17.783  0.00  0.00    +0.000 A 
ATOM      2  N   UNL     1      -1.101  10.893  18.935  0.00  0.00    +0.000 NA
ATOM      3  C   UNL     1      -0.077  10.669  19.735  0.00  0.00    +0.000 A 
ATOM      4  N   UNL     1      -0.028  11.332  20.971  0.00  0.00    +0.000 N 
ATOM      5  N   UNL     1       0.921   9.828  19.440  0.00  0.00    +0.000 NA
ATOM      6  C   UNL     1       0.861   9.213  18.255  0.00  0.00    +0.000 A 
ATOM      7  N   UNL     1       1.859   8.361  17.812  0.00  0.00    +0.000 N 
ATOM      8  N   UNL     1      -0.127   9.381  17.390  0.00  0.00    +0.000 NA
ATOM      9  H   UNL     1       0.646  10.822  21.532  0.00  0.00    +0.000 HD
ATOM     10  H   UNL     1       1.529   7.850  17.000  0.00  0.00    +0.000 HD
ENDROOT
BRANCH   4  11
ATOM     11  C   UNL     1      -1.338  11.590  21.590  0.00  0.00    +0.000 C 
ATOM     12  C   UNL     1      -2.203  12.524  20.718  0.00  0.00    +0.000 C 
ATOM     13  C   UNL     1      -1.825  14.004  20.795  0.00  0.00    +0.000 C 
ATOM     14  C   UNL     1      -1.695  14.489  22.226  0.00  0.00    +0.000 C 
ATOM     15  F   UNL     1      -2.925  14.498  22.806  0.00  0.00    +0.000 F 
ATOM     16  F   UNL     1      -1.258  15.771  22.236  0.00  0.00    +0.000 F 
ATOM     17  C   UNL     1      -0.765  13.629  23.058  0.00  0.00    +0.000 C 
ATOM     18  C   UNL     1      -1.163  12.156  23.010  0.00  0.00    +0.000 C 
ENDBRANCH   4  11
BRANCH   7  19
ATOM     19  C   UNL     1       2.770   7.699  18.733  0.00  0.00    +0.000 C 
ATOM     20  C   UNL     1       4.120   7.432  18.035  0.00  0.00    +0.000 C 
ATOM     21  C   UNL     1       4.115   6.255  17.060  0.00  0.00    +0.000 C 
ATOM     22  C   UNL     1       3.539   5.003  17.689  0.00  0.00    +0.000 C 
ATOM     23  F   UNL     1       4.390   4.551  18.647  0.00  0.00    +0.000 F 
ATOM     24  F   UNL     1       3.459   4.022  16.755  0.00  0.00    +0.000 F 
ATOM     25  C   UNL     1       2.171   5.226  18.305  0.00  0.00    +0.000 C 
ATOM     26  C   UNL     1       2.160   6.399  19.286  0.00  0.00    +0.000 C 
ENDBRANCH   7  19
BRANCH   1  30
ATOM     27  C   UNL     1      -3.533  10.437  15.063  0.00  0.00    +0.000 A 
ATOM     28  C   UNL     1      -4.418  10.999  15.964  0.00  0.00    +0.000 A 
ATOM     29  S   UNL     1      -3.680  11.175  17.497  0.00  0.00    +0.000 S 
ATOM     30  C   UNL     1      -2.230  10.460  16.888  0.00  0.00    +0.000 A 
ATOM     31  N   UNL     1      -2.287  10.123  15.607  0.00  0.00    +0.000 NA
BRANCH  27  33
ATOM     32  F   UNL     1      -2.751   9.571  13.013  0.00  0.00    +0.000 F 
ATOM     33  C   UNL     1      -3.817  10.164  13.620  0.00  0.00    +0.000 C 
ATOM     34  F   UNL     1      -4.854   9.291  13.487  0.00  0.00    +0.000 F 
ENDBRANCH  27  33
ENDBRANCH   1  30
TORSDOF 4
ENDMDL
MODEL 9
REMARK VINA RESULT:      -6.9      1.356      1.551
REMARK  Name = 
REMARK  4 active torsions:
REMARK  status: ('A' for Active; 'I' for Inactive)
REMARK    1  A    between atoms: C_2  and  C_4
REMARK    2  A    between atoms: C_7  and  C_8
REMARK    3  A    between atoms: N_11  and  C_12
REMARK    4  A    between atoms: N_22  and  C_23
REMARK                            x       y       z     vdW  Elec       q    Type
REMARK                         _______ _______ _______ _____ _____    ______ ____
ROOT
ATOM      1  C   UNL     1       1.128  12.296  18.988  0.00  0.00    +0.000 A 
ATOM      2  N   UNL     1       1.573  11.070  18.746  0.00  0.00    +0.000 NA
ATOM      3  C   UNL     1       0.647  10.178  18.453  0.00  0.00    +0.000 A 
ATOM      4  N   UNL     1       1.043   8.859  18.182  0.00  0.00    +0.000 N 
ATOM      5  N   UNL     1      -0.660  10.457  18.412  0.00  0.00    +0.000 NA
ATOM      6  C   UNL     1      -1.016  11.720  18.663  0.00  0.00    +0.000 A 
ATOM      7  N   UNL     1      -2.332  12.146  18.599  0.00  0.00    +0.000 N 
ATOM      8  N   UNL     1      -0.154  12.679  18.963  0.00  0.00    +0.000 NA
ATOM      9  H   UNL     1       0.203   8.295  18.272  0.00  0.00    +0.000 HD
ATOM     10  H   UNL     1      -2.409  13.067  19.018  0.00  0.00    +0.000 HD
ENDROOT
BRANCH   4  11
ATOM     11  C   UNL     1       2.226   8.399  18.927  0.00  0.00    +0.000 C 
ATOM     12  C   UNL     1       2.991   7.303  18.154  0.00  0.00    +0.000 C 
ATOM     13  C   UNL     1       2.356   5.914  18.217  0.00  0.00    +0.000 C 
ATOM     14  C   UNL     1       2.014   5.503  19.637  0.00  0.00    +0.000 C 
ATOM     15  F   UNL     1       3.167   5.301  20.331  0.00  0.00    +0.000 F 
ATOM     16  F   UNL     1       1.362   4.316  19.625  0.00  0.00    +0.000 F 
ATOM     17  C   UNL     1       1.177   6.536  20.365  0.00  0.00    +0.000 C 
ATOM     18  C   UNL     1       1.828   7.916  20.332  0.00  0.00    +0.000 C 
ENDBRANCH   4  11
BRANCH   7  19
ATOM     19  C   UNL     1      -3.447  11.220  18.735  0.00  0.00    +0.000 C 
ATOM     20  C   UNL     1      -3.920  10.762  17.339  0.00  0.00    +0.000 C 
ATOM     21  C   UNL     1      -4.756  11.792  16.578  0.00  0.00    +0.000 C 
ATOM     22  C   UNL     1      -5.895  12.330  17.421  0.00  0.00    +0.000 C 
ATOM     23  F   UNL     1      -6.806  11.343  17.623  0.00  0.00    +0.000 F 
ATOM     24  F   UNL     1      -6.538  13.312  16.740  0.00  0.00    +0.000 F 
ATOM     25  C   UNL     1      -5.435  12.865  18.763  0.00  0.00    +0.000 C 
ATOM     26  C   UNL     1      -4.599  11.845  19.539  0.00  0.00    +0.000 C 
ENDBRANCH   7  19
BRANCH   1  30
ATOM     27  C   UNL     1       3.675  14.455  20.507  0.00  0.00    +0.000 A 
ATOM     28  C   UNL     1       3.842  15.052  19.271  0.00  0.00    +0.000 A 
ATOM     29  S   UNL     1       2.761  14.376  18.130  0.00  0.00    +0.000 S 
ATOM     30  C   UNL     1       2.152  13.299  19.336  0.00  0.00    +0.000 A 
ATOM     31  N   UNL     1       2.713  13.446  20.529  0.00  0.00    +0.000 NA
BRANCH  27  33
ATOM     32  F   UNL     1       3.577  15.255  22.724  0.00  0.00    +0.000 F 
ATOM     33  C   UNL     1       4.423  14.812  21.753  0.00  0.00    +0.000 C 
ATOM     34  F   UNL     1       5.046  13.718  22.272  0.00  0.00    +0.000 F 
ENDBRANCH  27  33
ENDBRANCH   1  30
TORSDOF 4
ENDMDL
