MODEL 1
REMARK VINA RESULT:      -8.2      0.000      0.000
REMARK  Name = 
REMARK  9 active torsions:
REMARK  status: ('A' for Active; 'I' for Inactive)
REMARK    1  A    between atoms: C_1  and  C_2
REMARK    2  A    between atoms: C_2  and  C_3
REMARK    3  A    between atoms: C_3  and  N_4
REMARK    4  A    between atoms: N_4  and  C_5
REMARK    5  A    between atoms: N_4  and  C_21
REMARK    6  A    between atoms: C_5  and  C_6
REMARK    7  A    between atoms: C_6  and  C_7
REMARK    8  A    between atoms: C_7  and  C_8
REMARK    9  A    between atoms: C_8  and  N_9
REMARK                            x       y       z     vdW  Elec       q    Type
REMARK                         _______ _______ _______ _____ _____    ______ ____
ROOT
ATOM      1  C   UNL     1       1.943   6.008  20.510  0.00  0.00    +0.000 C 
ENDROOT
BRANCH   1   2
ATOM      2  N   UNL     1       1.813   5.039  19.402  0.00  0.00    +0.000 NA
BRANCH   2   3
ATOM      3  C   UNL     1       3.148   4.616  18.876  0.00  0.00    +0.000 C 
ATOM      4  C   UNL     1       4.327   5.308  19.583  0.00  0.00    +0.000 C 
ATOM      5  C   UNL     1       5.649   4.662  19.162  0.00  0.00    +0.000 C 
ATOM      6  C   UNL     1       5.811   4.605  17.667  0.00  0.00    +0.000 A 
ATOM      7  C   UNL     1       7.094   4.521  17.111  0.00  0.00    +0.000 A 
ATOM      8  F   UNL     1       8.164   4.512  17.910  0.00  0.00    +0.000 F 
ATOM      9  C   UNL     1       7.282   4.456  15.733  0.00  0.00    +0.000 A 
ATOM     10  C   UNL     1       6.177   4.453  14.884  0.00  0.00    +0.000 A 
ATOM     11  C   UNL     1       4.895   4.516  15.419  0.00  0.00    +0.000 A 
ATOM     12  C   UNL     1       4.702   4.589  16.809  0.00  0.00    +0.000 A 
ATOM     13  C   UNL     1       3.294   4.713  17.333  0.00  0.00    +0.000 C 
ENDBRANCH   2   3
BRANCH   2  14
ATOM     14  C   UNL     1       0.981   3.881  19.806  0.00  0.00    +0.000 C 
BRANCH  14  16
ATOM     15  C   UNL     1       1.941   2.573  21.782  0.00  0.00    +0.000 C 
ATOM     16  C   UNL     1       1.707   2.613  20.283  0.00  0.00    +0.000 C 
ENDBRANCH  14  16
ENDBRANCH   2  14
ENDBRANCH   1   2
BRANCH   1  17
ATOM     17  C   UNL     1       1.829   7.477  20.072  0.00  0.00    +0.000 C 
BRANCH  17  18
ATOM     18  C   UNL     1       1.261   8.373  21.158  0.00  0.00    +0.000 C 
BRANCH  18  19
ATOM     19  C   UNL     1       0.017   9.172  20.729  0.00  0.00    +0.000 C 
BRANCH  19  20
ATOM     20  N   UNL     1       0.477  10.481  20.308  0.00  0.00    +0.000 N 
ATOM     21  C   UNL     1       0.546  11.515  21.221  0.00  0.00    +0.000 C 
ATOM     22  O   UNL     1      -0.037  11.511  22.304  0.00  0.00    +0.000 OA
ATOM     23  C   UNL     1       1.497  12.635  20.861  0.00  0.00    +0.000 C 
ATOM     24  C   UNL     1       1.631  12.919  19.358  0.00  0.00    +0.000 C 
ATOM     25  C   UNL     1       2.910  13.757  19.106  0.00  0.00    +0.000 C 
ATOM     26  C   UNL     1       2.463  14.970  18.308  0.00  0.00    +0.000 C 
ATOM     27  C   UNL     1       1.035  15.198  18.768  0.00  0.00    +0.000 C 
ATOM     28  C   UNL     1       0.465  13.790  18.839  0.00  0.00    +0.000 C 
ATOM     29  C   UNL     1       1.717  11.612  18.578  0.00  0.00    +0.000 C 
ATOM     30  C   UNL     1       0.603  10.680  18.942  0.00  0.00    +0.000 C 
ATOM     31  O   UNL     1      -0.044  10.074  18.092  0.00  0.00    +0.000 OA
ENDBRANCH  19  20
ENDBRANCH  18  19
ENDBRANCH  17  18
ENDBRANCH   1  17
TORSDOF 8
ENDMDL
MODEL 2
REMARK VINA RESULT:      -8.0      2.133      3.668
REMARK  Name = 
REMARK  9 active torsions:
REMARK  status: ('A' for Active; 'I' for Inactive)
REMARK    1  A    between atoms: C_1  and  C_2
REMARK    2  A    between atoms: C_2  and  C_3
REMARK    3  A    between atoms: C_3  and  N_4
REMARK    4  A    between atoms: N_4  and  C_5
REMARK    5  A    between atoms: N_4  and  C_21
REMARK    6  A    between atoms: C_5  and  C_6
REMARK    7  A    between atoms: C_6  and  C_7
REMARK    8  A    between atoms: C_7  and  C_8
REMARK    9  A    between atoms: C_8  and  N_9
REMARK                            x       y       z     vdW  Elec       q    Type
REMARK                         _______ _______ _______ _____ _____    ______ ____
ROOT
ATOM      1  C   UNL     1       3.491   5.472  17.705  0.00  0.00    +0.000 C 
ENDROOT
BRANCH   1   2
ATOM      2  N   UNL     1       4.286   4.226  17.720  0.00  0.00    +0.000 NA
BRANCH   2   3
ATOM      3  C   UNL     1       5.344   4.232  16.661  0.00  0.00    +0.000 C 
ATOM      4  C   UNL     1       6.045   5.592  16.510  0.00  0.00    +0.000 C 
ATOM      5  C   UNL     1       7.259   5.462  15.586  0.00  0.00    +0.000 C 
ATOM      6  C   UNL     1       6.912   4.830  14.266  0.00  0.00    +0.000 A 
ATOM      7  C   UNL     1       7.722   5.068  13.149  0.00  0.00    +0.000 A 
ATOM      8  F   UNL     1       8.785   5.869  13.258  0.00  0.00    +0.000 F 
ATOM      9  C   UNL     1       7.439   4.491  11.914  0.00  0.00    +0.000 A 
ATOM     10  C   UNL     1       6.340   3.643  11.782  0.00  0.00    +0.000 A 
ATOM     11  C   UNL     1       5.536   3.380  12.886  0.00  0.00    +0.000 A 
ATOM     12  C   UNL     1       5.816   3.966  14.132  0.00  0.00    +0.000 A 
ATOM     13  C   UNL     1       4.879   3.693  15.281  0.00  0.00    +0.000 C 
ENDBRANCH   2   3
BRANCH   2  14
ATOM     14  C   UNL     1       4.847   3.970  19.067  0.00  0.00    +0.000 C 
BRANCH  14  16
ATOM     15  C   UNL     1       3.313   1.923  19.090  0.00  0.00    +0.000 C 
ATOM     16  C   UNL     1       4.467   2.650  19.758  0.00  0.00    +0.000 C 
ENDBRANCH  14  16
ENDBRANCH   2  14
ENDBRANCH   1   2
BRANCH   1  17
ATOM     17  C   UNL     1       2.025   5.282  18.125  0.00  0.00    +0.000 C 
BRANCH  17  18
ATOM     18  C   UNL     1       1.698   5.957  19.445  0.00  0.00    +0.000 C 
BRANCH  18  19
ATOM     19  C   UNL     1       2.523   7.227  19.724  0.00  0.00    +0.000 C 
BRANCH  19  20
ATOM     20  N   UNL     1       1.649   8.360  19.494  0.00  0.00    +0.000 N 
ATOM     21  C   UNL     1       1.613   8.963  18.253  0.00  0.00    +0.000 C 
ATOM     22  O   UNL     1       2.483   8.818  17.396  0.00  0.00    +0.000 OA
ATOM     23  C   UNL     1       0.353   9.742  17.947  0.00  0.00    +0.000 C 
ATOM     24  C   UNL     1      -0.304  10.421  19.157  0.00  0.00    +0.000 C 
ATOM     25  C   UNL     1      -1.763  10.804  18.802  0.00  0.00    +0.000 C 
ATOM     26  C   UNL     1      -1.897  12.283  19.125  0.00  0.00    +0.000 C 
ATOM     27  C   UNL     1      -0.499  12.828  18.901  0.00  0.00    +0.000 C 
ATOM     28  C   UNL     1       0.392  11.755  19.506  0.00  0.00    +0.000 C 
ATOM     29  C   UNL     1      -0.303   9.482  20.356  0.00  0.00    +0.000 C 
ATOM     30  C   UNL     1       1.063   8.924  20.616  0.00  0.00    +0.000 C 
ATOM     31  O   UNL     1       1.544   8.878  21.746  0.00  0.00    +0.000 OA
ENDBRANCH  19  20
ENDBRANCH  18  19
ENDBRANCH  17  18
ENDBRANCH   1  17
TORSDOF 8
ENDMDL
MODEL 3
REMARK VINA RESULT:      -8.0      3.370      8.140
REMARK  Name = 
REMARK  9 active torsions:
REMARK  status: ('A' for Active; 'I' for Inactive)
REMARK    1  A    between atoms: C_1  and  C_2
REMARK    2  A    between atoms: C_2  and  C_3
REMARK    3  A    between atoms: C_3  and  N_4
REMARK    4  A    between atoms: N_4  and  C_5
REMARK    5  A    between atoms: N_4  and  C_21
REMARK    6  A    between atoms: C_5  and  C_6
REMARK    7  A    between atoms: C_6  and  C_7
REMARK    8  A    between atoms: C_7  and  C_8
REMARK    9  A    between atoms: C_8  and  N_9
REMARK                            x       y       z     vdW  Elec       q    Type
REMARK                         _______ _______ _______ _____ _____    ______ ____
ROOT
ATOM      1  C   UNL     1       3.042   4.587  18.340  0.00  0.00    +0.000 C 
ENDROOT
BRANCH   1   2
ATOM      2  N   UNL     1       2.452   4.836  19.672  0.00  0.00    +0.000 NA
BRANCH   2   3
ATOM      3  C   UNL     1       2.305   6.299  19.948  0.00  0.00    +0.000 C 
ATOM      4  C   UNL     1       1.112   6.628  20.861  0.00  0.00    +0.000 C 
ATOM      5  C   UNL     1       1.162   8.098  21.287  0.00  0.00    +0.000 C 
ATOM      6  C   UNL     1       1.279   9.033  20.114  0.00  0.00    +0.000 A 
ATOM      7  C   UNL     1       0.853  10.361  20.240  0.00  0.00    +0.000 A 
ATOM      8  F   UNL     1       0.327  10.783  21.393  0.00  0.00    +0.000 F 
ATOM      9  C   UNL     1       0.957  11.258  19.180  0.00  0.00    +0.000 A 
ATOM     10  C   UNL     1       1.512  10.839  17.972  0.00  0.00    +0.000 A 
ATOM     11  C   UNL     1       1.959   9.529  17.836  0.00  0.00    +0.000 A 
ATOM     12  C   UNL     1       1.850   8.620  18.902  0.00  0.00    +0.000 A 
ATOM     13  C   UNL     1       2.296   7.197  18.681  0.00  0.00    +0.000 C 
ENDBRANCH   2   3
BRANCH   2  14
ATOM     14  C   UNL     1       1.172   4.107  19.830  0.00  0.00    +0.000 C 
BRANCH  14  16
ATOM     15  C   UNL     1       2.290   2.832  21.744  0.00  0.00    +0.000 C 
ATOM     16  C   UNL     1       1.171   2.853  20.719  0.00  0.00    +0.000 C 
ENDBRANCH  14  16
ENDBRANCH   2  14
ENDBRANCH   1   2
BRANCH   1  17
ATOM     17  C   UNL     1       4.548   4.278  18.371  0.00  0.00    +0.000 C 
BRANCH  17  18
ATOM     18  C   UNL     1       5.317   5.191  19.310  0.00  0.00    +0.000 C 
BRANCH  18  19
ATOM     19  C   UNL     1       6.468   5.961  18.636  0.00  0.00    +0.000 C 
BRANCH  19  20
ATOM     20  N   UNL     1       6.535   5.507  17.260  0.00  0.00    +0.000 N 
ATOM     21  C   UNL     1       7.379   4.470  16.917  0.00  0.00    +0.000 C 
ATOM     22  O   UNL     1       8.313   4.087  17.619  0.00  0.00    +0.000 OA
ATOM     23  C   UNL     1       7.014   3.730  15.649  0.00  0.00    +0.000 C 
ATOM     24  C   UNL     1       6.359   4.589  14.558  0.00  0.00    +0.000 C 
ATOM     25  C   UNL     1       5.663   3.666  13.527  0.00  0.00    +0.000 C 
ATOM     26  C   UNL     1       6.202   4.079  12.167  0.00  0.00    +0.000 C 
ATOM     27  C   UNL     1       7.601   4.579  12.472  0.00  0.00    +0.000 C 
ATOM     28  C   UNL     1       7.411   5.380  13.750  0.00  0.00    +0.000 C 
ATOM     29  C   UNL     1       5.331   5.531  15.173  0.00  0.00    +0.000 C 
ATOM     30  C   UNL     1       5.909   6.306  16.317  0.00  0.00    +0.000 C 
ATOM     31  O   UNL     1       5.731   7.515  16.442  0.00  0.00    +0.000 OA
ENDBRANCH  19  20
ENDBRANCH  18  19
ENDBRANCH  17  18
ENDBRANCH   1  17
TORSDOF 8
ENDMDL
MODEL 4
REMARK VINA RESULT:      -7.8      1.213      1.668
REMARK  Name = 
REMARK  9 active torsions:
REMARK  status: ('A' for Active; 'I' for Inactive)
REMARK    1  A    between atoms: C_1  and  C_2
REMARK    2  A    between atoms: C_2  and  C_3
REMARK    3  A    between atoms: C_3  and  N_4
REMARK    4  A    between atoms: N_4  and  C_5
REMARK    5  A    between atoms: N_4  and  C_21
REMARK    6  A    between atoms: C_5  and  C_6
REMARK    7  A    between atoms: C_6  and  C_7
REMARK    8  A    between atoms: C_7  and  C_8
REMARK    9  A    between atoms: C_8  and  N_9
REMARK                            x       y       z     vdW  Elec       q    Type
REMARK                         _______ _______ _______ _____ _____    ______ ____
ROOT
ATOM      1  C   UNL     1       2.270   7.316  19.513  0.00  0.00    +0.000 C 
ENDROOT
BRANCH   1   2
ATOM      2  N   UNL     1       2.138   5.846  19.426  0.00  0.00    +0.000 NA
BRANCH   2   3
ATOM      3  C   UNL     1       3.376   5.210  18.879  0.00  0.00    +0.000 C 
ATOM      4  C   UNL     1       4.671   5.794  19.468  0.00  0.00    +0.000 C 
ATOM      5  C   UNL     1       5.874   4.947  19.045  0.00  0.00    +0.000 C 
ATOM      6  C   UNL     1       5.943   4.749  17.556  0.00  0.00    +0.000 A 
ATOM      7  C   UNL     1       7.171   4.451  16.952  0.00  0.00    +0.000 A 
ATOM      8  F   UNL     1       8.275   4.365  17.698  0.00  0.00    +0.000 F 
ATOM      9  C   UNL     1       7.271   4.250  15.577  0.00  0.00    +0.000 A 
ATOM     10  C   UNL     1       6.129   4.326  14.782  0.00  0.00    +0.000 A 
ATOM     11  C   UNL     1       4.898   4.601  15.368  0.00  0.00    +0.000 A 
ATOM     12  C   UNL     1       4.795   4.810  16.754  0.00  0.00    +0.000 A 
ATOM     13  C   UNL     1       3.446   5.162  17.328  0.00  0.00    +0.000 C 
ENDBRANCH   2   3
BRANCH   2  14
ATOM     14  C   UNL     1       1.746   5.271  20.734  0.00  0.00    +0.000 C 
BRANCH  14  16
ATOM     15  C   UNL     1       0.703   3.053  20.005  0.00  0.00    +0.000 C 
ATOM     16  C   UNL     1       1.746   3.740  20.868  0.00  0.00    +0.000 C 
ENDBRANCH  14  16
ENDBRANCH   2  14
ENDBRANCH   1   2
BRANCH   1  17
ATOM     17  C   UNL     1       2.083   8.041  18.170  0.00  0.00    +0.000 C 
BRANCH  17  18
ATOM     18  C   UNL     1       1.595   9.469  18.336  0.00  0.00    +0.000 C 
BRANCH  18  19
ATOM     19  C   UNL     1       0.570   9.657  19.469  0.00  0.00    +0.000 C 
BRANCH  19  20
ATOM     20  N   UNL     1       0.311  11.079  19.578  0.00  0.00    +0.000 N 
ATOM     21  C   UNL     1       0.795  11.787  20.660  0.00  0.00    +0.000 C 
ATOM     22  O   UNL     1       1.173  11.263  21.707  0.00  0.00    +0.000 OA
ATOM     23  C   UNL     1       0.949  13.276  20.444  0.00  0.00    +0.000 C 
ATOM     24  C   UNL     1      -0.086  13.910  19.504  0.00  0.00    +0.000 C 
ATOM     25  C   UNL     1       0.424  15.297  19.039  0.00  0.00    +0.000 C 
ATOM     26  C   UNL     1      -0.693  16.278  19.352  0.00  0.00    +0.000 C 
ATOM     27  C   UNL     1      -1.374  15.674  20.566  0.00  0.00    +0.000 C 
ATOM     28  C   UNL     1      -1.418  14.191  20.234  0.00  0.00    +0.000 C 
ATOM     29  C   UNL     1      -0.314  13.018  18.290  0.00  0.00    +0.000 C 
ATOM     30  C   UNL     1      -0.614  11.606  18.692  0.00  0.00    +0.000 C 
ATOM     31  O   UNL     1      -1.530  10.964  18.184  0.00  0.00    +0.000 OA
ENDBRANCH  19  20
ENDBRANCH  18  19
ENDBRANCH  17  18
ENDBRANCH   1  17
TORSDOF 8
ENDMDL
MODEL 5
REMARK VINA RESULT:      -7.7      5.471      7.340
REMARK  Name = 
REMARK  9 active torsions:
REMARK  status: ('A' for Active; 'I' for Inactive)
REMARK    1  A    between atoms: C_1  and  C_2
REMARK    2  A    between atoms: C_2  and  C_3
REMARK    3  A    between atoms: C_3  and  N_4
REMARK    4  A    between atoms: N_4  and  C_5
REMARK    5  A    between atoms: N_4  and  C_21
REMARK    6  A    between atoms: C_5  and  C_6
REMARK    7  A    between atoms: C_6  and  C_7
REMARK    8  A    between atoms: C_7  and  C_8
REMARK    9  A    between atoms: C_8  and  N_9
REMARK                            x       y       z     vdW  Elec       q    Type
REMARK                         _______ _______ _______ _____ _____    ______ ____
ROOT
ATOM      1  C   UNL     1       6.871   7.405  17.335  0.00  0.00    +0.000 C 
ENDROOT
BRANCH   1   2
ATOM      2  N   UNL     1       6.628   5.948  17.298  0.00  0.00    +0.000 NA
BRANCH   2   3
ATOM      3  C   UNL     1       5.216   5.612  17.660  0.00  0.00    +0.000 C 
ATOM      4  C   UNL     1       4.790   6.169  19.029  0.00  0.00    +0.000 C 
ATOM      5  C   UNL     1       3.283   5.991  19.226  0.00  0.00    +0.000 C 
ATOM      6  C   UNL     1       2.837   4.572  19.006  0.00  0.00    +0.000 A 
ATOM      7  C   UNL     1       1.652   4.117  19.597  0.00  0.00    +0.000 A 
ATOM      8  F   UNL     1       0.936   4.940  20.368  0.00  0.00    +0.000 F 
ATOM      9  C   UNL     1       1.201   2.813  19.405  0.00  0.00    +0.000 A 
ATOM     10  C   UNL     1       1.928   1.943  18.595  0.00  0.00    +0.000 A 
ATOM     11  C   UNL     1       3.098   2.384  17.984  0.00  0.00    +0.000 A 
ATOM     12  C   UNL     1       3.557   3.697  18.180  0.00  0.00    +0.000 A 
ATOM     13  C   UNL     1       4.860   4.105  17.541  0.00  0.00    +0.000 C 
ENDBRANCH   2   3
BRANCH   2  14
ATOM     14  C   UNL     1       7.019   5.378  15.987  0.00  0.00    +0.000 C 
BRANCH  14  16
ATOM     15  C   UNL     1       6.003   4.049  14.053  0.00  0.00    +0.000 C 
ATOM     16  C   UNL     1       5.945   5.315  14.889  0.00  0.00    +0.000 C 
ENDBRANCH  14  16
ENDBRANCH   2  14
ENDBRANCH   1   2
BRANCH   1  17
ATOM     17  C   UNL     1       8.103   7.813  18.158  0.00  0.00    +0.000 C 
BRANCH  17  18
ATOM     18  C   UNL     1       8.347   9.311  18.149  0.00  0.00    +0.000 C 
BRANCH  18  19
ATOM     19  C   UNL     1       9.400   9.784  19.169  0.00  0.00    +0.000 C 
BRANCH  19  20
ATOM     20  N   UNL     1       9.519  11.221  19.024  0.00  0.00    +0.000 N 
ATOM     21  C   UNL     1      10.210  11.751  17.953  0.00  0.00    +0.000 C 
ATOM     22  O   UNL     1      11.002  11.109  17.264  0.00  0.00    +0.000 OA
ATOM     23  C   UNL     1       9.848  13.173  17.587  0.00  0.00    +0.000 C 
ATOM     24  C   UNL     1       9.444  14.068  18.767  0.00  0.00    +0.000 C 
ATOM     25  C   UNL     1       8.705  15.321  18.233  0.00  0.00    +0.000 C 
ATOM     26  C   UNL     1       9.426  16.517  18.830  0.00  0.00    +0.000 C 
ATOM     27  C   UNL     1      10.854  16.032  18.992  0.00  0.00    +0.000 C 
ATOM     28  C   UNL     1      10.681  14.614  19.514  0.00  0.00    +0.000 C 
ATOM     29  C   UNL     1       8.531  13.307  19.720  0.00  0.00    +0.000 C 
ATOM     30  C   UNL     1       9.120  11.985  20.109  0.00  0.00    +0.000 C 
ATOM     31  O   UNL     1       9.130  11.593  21.273  0.00  0.00    +0.000 OA
ENDBRANCH  19  20
ENDBRANCH  18  19
ENDBRANCH  17  18
ENDBRANCH   1  17
TORSDOF 8
ENDMDL
MODEL 6
REMARK VINA RESULT:      -7.7      1.912      2.983
REMARK  Name = 
REMARK  9 active torsions:
REMARK  status: ('A' for Active; 'I' for Inactive)
REMARK    1  A    between atoms: C_1  and  C_2
REMARK    2  A    between atoms: C_2  and  C_3
REMARK    3  A    between atoms: C_3  and  N_4
REMARK    4  A    between atoms: N_4  and  C_5
REMARK    5  A    between atoms: N_4  and  C_21
REMARK    6  A    between atoms: C_5  and  C_6
REMARK    7  A    between atoms: C_6  and  C_7
REMARK    8  A    between atoms: C_7  and  C_8
REMARK    9  A    between atoms: C_8  and  N_9
REMARK                            x       y       z     vdW  Elec       q    Type
REMARK                         _______ _______ _______ _____ _____    ______ ____
ROOT
ATOM      1  C   UNL     1       1.740   5.672  20.525  0.00  0.00    +0.000 C 
ENDROOT
BRANCH   1   2
ATOM      2  N   UNL     1       1.755   4.669  19.440  0.00  0.00    +0.000 NA
BRANCH   2   3
ATOM      3  C   UNL     1       3.143   4.410  18.945  0.00  0.00    +0.000 C 
ATOM      4  C   UNL     1       4.199   5.322  19.592  0.00  0.00    +0.000 C 
ATOM      5  C   UNL     1       5.606   4.849  19.219  0.00  0.00    +0.000 C 
ATOM      6  C   UNL     1       5.789   4.702  17.733  0.00  0.00    +0.000 A 
ATOM      7  C   UNL     1       7.075   4.767  17.182  0.00  0.00    +0.000 A 
ATOM      8  F   UNL     1       8.128   4.979  17.976  0.00  0.00    +0.000 F 
ATOM      9  C   UNL     1       7.283   4.623  15.813  0.00  0.00    +0.000 A 
ATOM     10  C   UNL     1       6.199   4.391  14.969  0.00  0.00    +0.000 A 
ATOM     11  C   UNL     1       4.917   4.304  15.502  0.00  0.00    +0.000 A 
ATOM     12  C   UNL     1       4.703   4.455  16.882  0.00  0.00    +0.000 A 
ATOM     13  C   UNL     1       3.287   4.409  17.398  0.00  0.00    +0.000 C 
ENDBRANCH   2   3
BRANCH   2  14
ATOM     14  C   UNL     1       1.070   3.424  19.858  0.00  0.00    +0.000 C 
BRANCH  14  16
ATOM     15  C   UNL     1       2.547   2.483  21.722  0.00  0.00    +0.000 C 
ATOM     16  C   UNL     1       1.178   3.013  21.335  0.00  0.00    +0.000 C 
ENDBRANCH  14  16
ENDBRANCH   2  14
ENDBRANCH   1   2
BRANCH   1  17
ATOM     17  C   UNL     1       1.871   7.124  20.038  0.00  0.00    +0.000 C 
BRANCH  17  18
ATOM     18  C   UNL     1       0.872   8.058  20.697  0.00  0.00    +0.000 C 
BRANCH  18  19
ATOM     19  C   UNL     1       1.506   9.071  21.669  0.00  0.00    +0.000 C 
BRANCH  19  20
ATOM     20  N   UNL     1       0.544  10.140  21.857  0.00  0.00    +0.000 N 
ATOM     21  C   UNL     1       0.523  11.210  20.984  0.00  0.00    +0.000 C 
ATOM     22  O   UNL     1       1.451  11.496  20.230  0.00  0.00    +0.000 OA
ATOM     23  C   UNL     1      -0.785  11.967  20.919  0.00  0.00    +0.000 C 
ATOM     24  C   UNL     1      -1.571  12.026  22.236  0.00  0.00    +0.000 C 
ATOM     25  C   UNL     1      -3.037  12.435  21.941  0.00  0.00    +0.000 C 
ATOM     26  C   UNL     1      -3.327  13.624  22.841  0.00  0.00    +0.000 C 
ATOM     27  C   UNL     1      -1.976  14.296  22.996  0.00  0.00    +0.000 C 
ATOM     28  C   UNL     1      -1.024  13.124  23.175  0.00  0.00    +0.000 C 
ATOM     29  C   UNL     1      -1.551  10.667  22.926  0.00  0.00    +0.000 C 
ATOM     30  C   UNL     1      -0.156  10.135  23.052  0.00  0.00    +0.000 C 
ATOM     31  O   UNL     1       0.261   9.642  24.097  0.00  0.00    +0.000 OA
ENDBRANCH  19  20
ENDBRANCH  18  19
ENDBRANCH  17  18
ENDBRANCH   1  17
TORSDOF 8
ENDMDL
MODEL 7
REMARK VINA RESULT:      -7.7      6.063     10.444
REMARK  Name = 
REMARK  9 active torsions:
REMARK  status: ('A' for Active; 'I' for Inactive)
REMARK    1  A    between atoms: C_1  and  C_2
REMARK    2  A    between atoms: C_2  and  C_3
REMARK    3  A    between atoms: C_3  and  N_4
REMARK    4  A    between atoms: N_4  and  C_5
REMARK    5  A    between atoms: N_4  and  C_21
REMARK    6  A    between atoms: C_5  and  C_6
REMARK    7  A    between atoms: C_6  and  C_7
REMARK    8  A    between atoms: C_7  and  C_8
REMARK    9  A    between atoms: C_8  and  N_9
REMARK                            x       y       z     vdW  Elec       q    Type
REMARK                         _______ _______ _______ _____ _____    ______ ____
ROOT
ATOM      1  C   UNL     1       8.399  10.796  17.888  0.00  0.00    +0.000 C 
ENDROOT
BRANCH   1   2
ATOM      2  N   UNL     1       9.502  11.631  18.406  0.00  0.00    +0.000 NA
BRANCH   2   3
ATOM      3  C   UNL     1       9.057  13.035  18.670  0.00  0.00    +0.000 C 
ATOM      4  C   UNL     1       7.827  13.448  17.843  0.00  0.00    +0.000 C 
ATOM      5  C   UNL     1       7.291  14.797  18.330  0.00  0.00    +0.000 C 
ATOM      6  C   UNL     1       8.356  15.859  18.369  0.00  0.00    +0.000 A 
ATOM      7  C   UNL     1       7.992  17.209  18.303  0.00  0.00    +0.000 A 
ATOM      8  F   UNL     1       6.705  17.545  18.185  0.00  0.00    +0.000 F 
ATOM      9  C   UNL     1       8.949  18.220  18.348  0.00  0.00    +0.000 A 
ATOM     10  C   UNL     1      10.296  17.890  18.482  0.00  0.00    +0.000 A 
ATOM     11  C   UNL     1      10.674  16.555  18.569  0.00  0.00    +0.000 A 
ATOM     12  C   UNL     1       9.712  15.533  18.518  0.00  0.00    +0.000 A 
ATOM     13  C   UNL     1      10.181  14.101  18.559  0.00  0.00    +0.000 C 
ENDBRANCH   2   3
BRANCH   2  14
ATOM     14  C   UNL     1      10.123  11.010  19.599  0.00  0.00    +0.000 C 
BRANCH  14  16
ATOM     15  C   UNL     1       9.767  12.352  21.747  0.00  0.00    +0.000 C 
ATOM     16  C   UNL     1       9.375  11.129  20.936  0.00  0.00    +0.000 C 
ENDBRANCH  14  16
ENDBRANCH   2  14
ENDBRANCH   1   2
BRANCH   1  17
ATOM     17  C   UNL     1       8.658   9.284  17.990  0.00  0.00    +0.000 C 
BRANCH  17  18
ATOM     18  C   UNL     1       7.386   8.461  17.898  0.00  0.00    +0.000 C 
BRANCH  18  19
ATOM     19  C   UNL     1       7.602   7.025  17.383  0.00  0.00    +0.000 C 
BRANCH  19  20
ATOM     20  N   UNL     1       6.352   6.314  17.571  0.00  0.00    +0.000 N 
ATOM     21  C   UNL     1       6.220   5.415  18.610  0.00  0.00    +0.000 C 
ATOM     22  O   UNL     1       7.172   4.930  19.220  0.00  0.00    +0.000 OA
ATOM     23  C   UNL     1       4.800   5.136  19.050  0.00  0.00    +0.000 C 
ATOM     24  C   UNL     1       3.749   5.188  17.932  0.00  0.00    +0.000 C 
ATOM     25  C   UNL     1       2.338   5.315  18.560  0.00  0.00    +0.000 C 
ATOM     26  C   UNL     1       1.511   4.191  17.957  0.00  0.00    +0.000 C 
ATOM     27  C   UNL     1       2.532   3.102  17.681  0.00  0.00    +0.000 C 
ATOM     28  C   UNL     1       3.717   3.873  17.122  0.00  0.00    +0.000 C 
ATOM     29  C   UNL     1       4.008   6.379  17.018  0.00  0.00    +0.000 C 
ATOM     30  C   UNL     1       5.428   6.411  16.543  0.00  0.00    +0.000 C 
ATOM     31  O   UNL     1       5.719   6.619  15.368  0.00  0.00    +0.000 OA
ENDBRANCH  19  20
ENDBRANCH  18  19
ENDBRANCH  17  18
ENDBRANCH   1  17
TORSDOF 8
ENDMDL
MODEL 8
REMARK VINA RESULT:      -7.7      3.560      8.795
REMARK  Name = 
REMARK  9 active torsions:
REMARK  status: ('A' for Active; 'I' for Inactive)
REMARK    1  A    between atoms: C_1  and  C_2
REMARK    2  A    between atoms: C_2  and  C_3
REMARK    3  A    between atoms: C_3  and  N_4
REMARK    4  A    between atoms: N_4  and  C_5
REMARK    5  A    between atoms: N_4  and  C_21
REMARK    6  A    between atoms: C_5  and  C_6
REMARK    7  A    between atoms: C_6  and  C_7
REMARK    8  A    between atoms: C_7  and  C_8
REMARK    9  A    between atoms: C_8  and  N_9
REMARK                            x       y       z     vdW  Elec       q    Type
REMARK                         _______ _______ _______ _____ _____    ______ ____
ROOT
ATOM      1  C   UNL     1       3.511   5.923  19.165  0.00  0.00    +0.000 C 
ENDROOT
BRANCH   1   2
ATOM      2  N   UNL     1       2.717   6.259  20.365  0.00  0.00    +0.000 NA
BRANCH   2   3
ATOM      3  C   UNL     1       1.710   7.330  20.082  0.00  0.00    +0.000 C 
ATOM      4  C   UNL     1       2.133   8.275  18.944  0.00  0.00    +0.000 C 
ATOM      5  C   UNL     1       0.967   9.188  18.555  0.00  0.00    +0.000 C 
ATOM      6  C   UNL     1       0.387   9.915  19.738  0.00  0.00    +0.000 A 
ATOM      7  C   UNL     1      -0.312  11.112  19.541  0.00  0.00    +0.000 A 
ATOM      8  F   UNL     1      -0.441  11.612  18.309  0.00  0.00    +0.000 F 
ATOM      9  C   UNL     1      -0.872  11.807  20.610  0.00  0.00    +0.000 A 
ATOM     10  C   UNL     1      -0.758  11.297  21.902  0.00  0.00    +0.000 A 
ATOM     11  C   UNL     1      -0.084  10.098  22.113  0.00  0.00    +0.000 A 
ATOM     12  C   UNL     1       0.488   9.399  21.037  0.00  0.00    +0.000 A 
ATOM     13  C   UNL     1       1.256   8.135  21.330  0.00  0.00    +0.000 C 
ENDBRANCH   2   3
BRANCH   2  14
ATOM     14  C   UNL     1       2.093   5.047  20.945  0.00  0.00    +0.000 C 
BRANCH  14  16
ATOM     15  C   UNL     1       1.004   3.018  19.832  0.00  0.00    +0.000 C 
ATOM     16  C   UNL     1       0.855   4.474  20.236  0.00  0.00    +0.000 C 
ENDBRANCH  14  16
ENDBRANCH   2  14
ENDBRANCH   1   2
BRANCH   1  17
ATOM     17  C   UNL     1       4.337   4.634  19.303  0.00  0.00    +0.000 C 
BRANCH  17  18
ATOM     18  C   UNL     1       5.831   4.877  19.181  0.00  0.00    +0.000 C 
BRANCH  18  19
ATOM     19  C   UNL     1       6.206   6.033  18.236  0.00  0.00    +0.000 C 
BRANCH  19  20
ATOM     20  N   UNL     1       6.285   5.481  16.898  0.00  0.00    +0.000 N 
ATOM     21  C   UNL     1       7.186   4.472  16.622  0.00  0.00    +0.000 C 
ATOM     22  O   UNL     1       8.149   4.199  17.336  0.00  0.00    +0.000 OA
ATOM     23  C   UNL     1       6.852   3.617  15.419  0.00  0.00    +0.000 C 
ATOM     24  C   UNL     1       6.135   4.350  14.276  0.00  0.00    +0.000 C 
ATOM     25  C   UNL     1       5.485   3.312  13.328  0.00  0.00    +0.000 C 
ATOM     26  C   UNL     1       5.984   3.650  11.933  0.00  0.00    +0.000 C 
ATOM     27  C   UNL     1       7.354   4.254  12.178  0.00  0.00    +0.000 C 
ATOM     28  C   UNL     1       7.130   5.138  13.395  0.00  0.00    +0.000 C 
ATOM     29  C   UNL     1       5.059   5.274  14.834  0.00  0.00    +0.000 C 
ATOM     30  C   UNL     1       5.603   6.167  15.907  0.00  0.00    +0.000 C 
ATOM     31  O   UNL     1       5.354   7.369  15.943  0.00  0.00    +0.000 OA
ENDBRANCH  19  20
ENDBRANCH  18  19
ENDBRANCH  17  18
ENDBRANCH   1  17
TORSDOF 8
ENDMDL
MODEL 9
REMARK VINA RESULT:      -7.7      3.531      8.247
REMARK  Name = 
REMARK  9 active torsions:
REMARK  status: ('A' for Active; 'I' for Inactive)
REMARK    1  A    between atoms: C_1  and  C_2
REMARK    2  A    between atoms: C_2  and  C_3
REMARK    3  A    between atoms: C_3  and  N_4
REMARK    4  A    between atoms: N_4  and  C_5
REMARK    5  A    between atoms: N_4  and  C_21
REMARK    6  A    between atoms: C_5  and  C_6
REMARK    7  A    between atoms: C_6  and  C_7
REMARK    8  A    between atoms: C_7  and  C_8
REMARK    9  A    between atoms: C_8  and  N_9
REMARK                            x       y       z     vdW  Elec       q    Type
REMARK                         _______ _______ _______ _____ _____    ______ ____
ROOT
ATOM      1  C   UNL     1       3.832   4.586  19.901  0.00  0.00    +0.000 C 
ENDROOT
BRANCH   1   2
ATOM      2  N   UNL     1       2.559   4.581  19.151  0.00  0.00    +0.000 NA
BRANCH   2   3
ATOM      3  C   UNL     1       1.954   5.948  19.077  0.00  0.00    +0.000 C 
ATOM      4  C   UNL     1       2.695   6.890  18.113  0.00  0.00    +0.000 C 
ATOM      5  C   UNL     1       1.893   8.178  17.911  0.00  0.00    +0.000 C 
ATOM      6  C   UNL     1       1.529   8.838  19.213  0.00  0.00    +0.000 A 
ATOM      7  C   UNL     1       1.253  10.211  19.241  0.00  0.00    +0.000 A 
ATOM      8  F   UNL     1       1.334  10.928  18.117  0.00  0.00    +0.000 F 
ATOM      9  C   UNL     1       0.901  10.854  20.425  0.00  0.00    +0.000 A 
ATOM     10  C   UNL     1       0.801  10.121  21.606  0.00  0.00    +0.000 A 
ATOM     11  C   UNL     1       1.053   8.753  21.593  0.00  0.00    +0.000 A 
ATOM     12  C   UNL     1       1.414   8.103  20.401  0.00  0.00    +0.000 A 
ATOM     13  C   UNL     1       1.731   6.630  20.454  0.00  0.00    +0.000 C 
ENDBRANCH   2   3
BRANCH   2  14
ATOM     14  C   UNL     1       2.736   3.977  17.810  0.00  0.00    +0.000 C 
BRANCH  14  16
ATOM     15  C   UNL     1       1.356   1.968  18.587  0.00  0.00    +0.000 C 
ATOM     16  C   UNL     1       2.449   2.474  17.662  0.00  0.00    +0.000 C 
ENDBRANCH  14  16
ENDBRANCH   2  14
ENDBRANCH   1   2
BRANCH   1  17
ATOM     17  C   UNL     1       5.083   4.660  19.010  0.00  0.00    +0.000 C 
BRANCH  17  18
ATOM     18  C   UNL     1       6.233   5.397  19.671  0.00  0.00    +0.000 C 
BRANCH  18  19
ATOM     19  C   UNL     1       7.114   6.196  18.692  0.00  0.00    +0.000 C 
BRANCH  19  20
ATOM     20  N   UNL     1       6.900   5.634  17.372  0.00  0.00    +0.000 N 
ATOM     21  C   UNL     1       7.522   4.454  17.017  0.00  0.00    +0.000 C 
ATOM     22  O   UNL     1       8.489   3.983  17.613  0.00  0.00    +0.000 OA
ATOM     23  C   UNL     1       6.862   3.686  15.893  0.00  0.00    +0.000 C 
ATOM     24  C   UNL     1       6.175   4.552  14.827  0.00  0.00    +0.000 C 
ATOM     25  C   UNL     1       5.202   3.673  14.001  0.00  0.00    +0.000 C 
ATOM     26  C   UNL     1       5.576   3.891  12.545  0.00  0.00    +0.000 C 
ATOM     27  C   UNL     1       7.064   4.188  12.597  0.00  0.00    +0.000 C 
ATOM     28  C   UNL     1       7.192   5.104  13.803  0.00  0.00    +0.000 C 
ATOM     29  C   UNL     1       5.402   5.687  15.485  0.00  0.00    +0.000 C 
ATOM     30  C   UNL     1       6.257   6.447  16.454  0.00  0.00    +0.000 C 
ATOM     31  O   UNL     1       6.275   7.675  16.482  0.00  0.00    +0.000 OA
ENDBRANCH  19  20
ENDBRANCH  18  19
ENDBRANCH  17  18
ENDBRANCH   1  17
TORSDOF 8
ENDMDL
