MODEL 1
REMARK VINA RESULT:      -6.7      0.000      0.000
REMARK  Name = 
REMARK  6 active torsions:
REMARK  status: ('A' for Active; 'I' for Inactive)
REMARK    1  A    between atoms: C_1  and  C_2
REMARK    2  A    between atoms: C_2  and  C_3
REMARK    3  A    between atoms: C_2  and  N_4
REMARK    4  A    between atoms: C_5  and  C_7
REMARK    5  A    between atoms: C_7  and  S_8
REMARK    6  A    between atoms: S_8  and  C_11
REMARK                            x       y       z     vdW  Elec       q    Type
REMARK                         _______ _______ _______ _____ _____    ______ ____
ROOT
ATOM      1  S   UNL     1       5.745   5.936  16.269  0.00  0.00    +0.000 S 
ATOM      2  O   UNL     1       6.468   6.585  17.351  0.00  0.00    +0.000 OA
ATOM      3  O   UNL     1       5.302   6.689  15.113  0.00  0.00    +0.000 OA
ENDROOT
BRANCH   1   4
ATOM      4  C   UNL     1       4.304   5.183  16.995  0.00  0.00    +0.000 A 
ATOM      5  C   UNL     1       3.397   5.980  17.701  0.00  0.00    +0.000 A 
ATOM      6  C   UNL     1       2.262   5.394  18.261  0.00  0.00    +0.000 A 
ATOM      7  C   UNL     1       2.034   4.025  18.107  0.00  0.00    +0.000 A 
ATOM      8  C   UNL     1       2.934   3.240  17.382  0.00  0.00    +0.000 A 
ATOM      9  C   UNL     1       4.071   3.817  16.819  0.00  0.00    +0.000 A 
ENDBRANCH   1   4
BRANCH   1  10
ATOM     10  C   UNL     1       6.692   4.545  15.740  0.00  0.00    +0.000 C 
BRANCH  10  12
ATOM     11  N   UNL     1       5.926   3.653  13.605  0.00  0.00    +0.000 N 
ATOM     12  C   UNL     1       6.786   4.526  14.243  0.00  0.00    +0.000 C 
ATOM     13  O   UNL     1       7.498   5.325  13.639  0.00  0.00    +0.000 OA
ATOM     14  H   UNL     1       5.582   2.857  14.140  0.00  0.00    +0.000 HD
BRANCH  11  16
ATOM     15  C   UNL     1       6.814   2.343  11.725  0.00  0.00    +0.000 C 
ATOM     16  C   UNL     1       5.922   3.506  12.154  0.00  0.00    +0.000 C 
ATOM     17  C   UNL     1       4.495   3.301  11.656  0.00  0.00    +0.000 C 
ENDBRANCH  11  16
ENDBRANCH  10  12
ENDBRANCH   1  10
TORSDOF 4
ENDMDL
MODEL 2
REMARK VINA RESULT:      -6.6      1.925      5.273
REMARK  Name = 
REMARK  6 active torsions:
REMARK  status: ('A' for Active; 'I' for Inactive)
REMARK    1  A    between atoms: C_1  and  C_2
REMARK    2  A    between atoms: C_2  and  C_3
REMARK    3  A    between atoms: C_2  and  N_4
REMARK    4  A    between atoms: C_5  and  C_7
REMARK    5  A    between atoms: C_7  and  S_8
REMARK    6  A    between atoms: S_8  and  C_11
REMARK                            x       y       z     vdW  Elec       q    Type
REMARK                         _______ _______ _______ _____ _____    ______ ____
ROOT
ATOM      1  S   UNL     1       6.544   5.744  16.247  0.00  0.00    +0.000 S 
ATOM      2  O   UNL     1       5.155   6.128  16.451  0.00  0.00    +0.000 OA
ATOM      3  O   UNL     1       7.608   6.724  16.340  0.00  0.00    +0.000 OA
ENDROOT
BRANCH   1   4
ATOM      4  C   UNL     1       6.639   5.008  14.629  0.00  0.00    +0.000 A 
ATOM      5  C   UNL     1       5.673   4.072  14.244  0.00  0.00    +0.000 A 
ATOM      6  C   UNL     1       5.741   3.503  12.973  0.00  0.00    +0.000 A 
ATOM      7  C   UNL     1       6.759   3.876  12.093  0.00  0.00    +0.000 A 
ATOM      8  C   UNL     1       7.707   4.827  12.478  0.00  0.00    +0.000 A 
ATOM      9  C   UNL     1       7.648   5.400  13.747  0.00  0.00    +0.000 A 
ENDBRANCH   1   4
BRANCH   1  10
ATOM     10  C   UNL     1       6.896   4.388  17.319  0.00  0.00    +0.000 C 
BRANCH  10  12
ATOM     11  N   UNL     1       4.672   3.430  17.592  0.00  0.00    +0.000 N 
ATOM     12  C   UNL     1       5.714   4.105  18.198  0.00  0.00    +0.000 C 
ATOM     13  O   UNL     1       5.739   4.356  19.400  0.00  0.00    +0.000 OA
ATOM     14  H   UNL     1       4.594   3.498  16.578  0.00  0.00    +0.000 HD
BRANCH  11  16
ATOM     15  C   UNL     1       2.227   3.679  17.589  0.00  0.00    +0.000 C 
ATOM     16  C   UNL     1       3.445   3.110  18.313  0.00  0.00    +0.000 C 
ATOM     17  C   UNL     1       3.317   1.598  18.475  0.00  0.00    +0.000 C 
ENDBRANCH  11  16
ENDBRANCH  10  12
ENDBRANCH   1  10
TORSDOF 4
ENDMDL
MODEL 3
REMARK VINA RESULT:      -6.5      0.706      1.405
REMARK  Name = 
REMARK  6 active torsions:
REMARK  status: ('A' for Active; 'I' for Inactive)
REMARK    1  A    between atoms: C_1  and  C_2
REMARK    2  A    between atoms: C_2  and  C_3
REMARK    3  A    between atoms: C_2  and  N_4
REMARK    4  A    between atoms: C_5  and  C_7
REMARK    5  A    between atoms: C_7  and  S_8
REMARK    6  A    between atoms: S_8  and  C_11
REMARK                            x       y       z     vdW  Elec       q    Type
REMARK                         _______ _______ _______ _____ _____    ______ ____
ROOT
ATOM      1  S   UNL     1       5.449   5.455  16.811  0.00  0.00    +0.000 S 
ATOM      2  O   UNL     1       6.049   6.001  18.018  0.00  0.00    +0.000 OA
ATOM      3  O   UNL     1       5.023   6.325  15.732  0.00  0.00    +0.000 OA
ENDROOT
BRANCH   1   4
ATOM      4  C   UNL     1       4.028   4.514  17.325  0.00  0.00    +0.000 A 
ATOM      5  C   UNL     1       4.102   3.117  17.346  0.00  0.00    +0.000 A 
ATOM      6  C   UNL     1       2.994   2.379  17.759  0.00  0.00    +0.000 A 
ATOM      7  C   UNL     1       1.826   3.034  18.157  0.00  0.00    +0.000 A 
ATOM      8  C   UNL     1       1.768   4.430  18.154  0.00  0.00    +0.000 A 
ATOM      9  C   UNL     1       2.871   5.176  17.742  0.00  0.00    +0.000 A 
ENDBRANCH   1   4
BRANCH   1  10
ATOM     10  C   UNL     1       6.534   4.217  16.176  0.00  0.00    +0.000 C 
BRANCH  10  12
ATOM     11  N   UNL     1       5.895   3.683  13.886  0.00  0.00    +0.000 N 
ATOM     12  C   UNL     1       6.735   4.414  14.703  0.00  0.00    +0.000 C 
ATOM     13  O   UNL     1       7.514   5.262  14.275  0.00  0.00    +0.000 OA
ATOM     14  H   UNL     1       5.487   2.832  14.271  0.00  0.00    +0.000 HD
BRANCH  11  16
ATOM     15  C   UNL     1       7.077   2.809  11.916  0.00  0.00    +0.000 C 
ATOM     16  C   UNL     1       5.991   3.751  12.432  0.00  0.00    +0.000 C 
ATOM     17  C   UNL     1       4.642   3.411  11.806  0.00  0.00    +0.000 C 
ENDBRANCH  11  16
ENDBRANCH  10  12
ENDBRANCH   1  10
TORSDOF 4
ENDMDL
MODEL 4
REMARK VINA RESULT:      -6.5      3.360      6.094
REMARK  Name = 
REMARK  6 active torsions:
REMARK  status: ('A' for Active; 'I' for Inactive)
REMARK    1  A    between atoms: C_1  and  C_2
REMARK    2  A    between atoms: C_2  and  C_3
REMARK    3  A    between atoms: C_2  and  N_4
REMARK    4  A    between atoms: C_5  and  C_7
REMARK    5  A    between atoms: C_7  and  S_8
REMARK    6  A    between atoms: S_8  and  C_11
REMARK                            x       y       z     vdW  Elec       q    Type
REMARK                         _______ _______ _______ _____ _____    ______ ____
ROOT
ATOM      1  S   UNL     1       5.522   4.598  19.034  0.00  0.00    +0.000 S 
ATOM      2  O   UNL     1       6.642   5.238  19.707  0.00  0.00    +0.000 OA
ATOM      3  O   UNL     1       5.103   3.259  19.396  0.00  0.00    +0.000 OA
ENDROOT
BRANCH   1   4
ATOM      4  C   UNL     1       5.910   4.581  17.297  0.00  0.00    +0.000 A 
ATOM      5  C   UNL     1       4.966   4.091  16.389  0.00  0.00    +0.000 A 
ATOM      6  C   UNL     1       5.265   4.087  15.027  0.00  0.00    +0.000 A 
ATOM      7  C   UNL     1       6.493   4.579  14.579  0.00  0.00    +0.000 A 
ATOM      8  C   UNL     1       7.421   5.086  15.490  0.00  0.00    +0.000 A 
ATOM      9  C   UNL     1       7.131   5.093  16.854  0.00  0.00    +0.000 A 
ENDBRANCH   1   4
BRANCH   1  10
ATOM     10  C   UNL     1       4.140   5.692  19.119  0.00  0.00    +0.000 C 
BRANCH  10  12
ATOM     11  N   UNL     1       2.604   4.122  20.176  0.00  0.00    +0.000 N 
ATOM     12  C   UNL     1       2.861   4.910  19.070  0.00  0.00    +0.000 C 
ATOM     13  O   UNL     1       2.053   5.066  18.158  0.00  0.00    +0.000 OA
ATOM     14  H   UNL     1       3.401   3.830  20.740  0.00  0.00    +0.000 HD
BRANCH  11  16
ATOM     15  C   UNL     1       1.463   2.165  19.222  0.00  0.00    +0.000 C 
ATOM     16  C   UNL     1       1.413   3.285  20.259  0.00  0.00    +0.000 C 
ATOM     17  C   UNL     1       1.280   2.710  21.666  0.00  0.00    +0.000 C 
ENDBRANCH  11  16
ENDBRANCH  10  12
ENDBRANCH   1  10
TORSDOF 4
ENDMDL
MODEL 5
REMARK VINA RESULT:      -6.4      1.064      1.295
REMARK  Name = 
REMARK  6 active torsions:
REMARK  status: ('A' for Active; 'I' for Inactive)
REMARK    1  A    between atoms: C_1  and  C_2
REMARK    2  A    between atoms: C_2  and  C_3
REMARK    3  A    between atoms: C_2  and  N_4
REMARK    4  A    between atoms: C_5  and  C_7
REMARK    5  A    between atoms: C_7  and  S_8
REMARK    6  A    between atoms: S_8  and  C_11
REMARK                            x       y       z     vdW  Elec       q    Type
REMARK                         _______ _______ _______ _____ _____    ______ ____
ROOT
ATOM      1  S   UNL     1       5.814   5.454  16.664  0.00  0.00    +0.000 S 
ATOM      2  O   UNL     1       6.440   6.287  17.680  0.00  0.00    +0.000 OA
ATOM      3  O   UNL     1       5.025   6.044  15.601  0.00  0.00    +0.000 OA
ENDROOT
BRANCH   1   4
ATOM      4  C   UNL     1       4.767   4.299  17.524  0.00  0.00    +0.000 A 
ATOM      5  C   UNL     1       5.049   3.979  18.856  0.00  0.00    +0.000 A 
ATOM      6  C   UNL     1       4.224   3.082  19.534  0.00  0.00    +0.000 A 
ATOM      7  C   UNL     1       3.121   2.521  18.886  0.00  0.00    +0.000 A 
ATOM      8  C   UNL     1       2.834   2.863  17.563  0.00  0.00    +0.000 A 
ATOM      9  C   UNL     1       3.654   3.757  16.877  0.00  0.00    +0.000 A 
ENDBRANCH   1   4
BRANCH   1  10
ATOM     10  C   UNL     1       7.059   4.416  15.968  0.00  0.00    +0.000 C 
BRANCH  10  12
ATOM     11  N   UNL     1       6.203   3.687  13.806  0.00  0.00    +0.000 N 
ATOM     12  C   UNL     1       7.058   4.543  14.474  0.00  0.00    +0.000 C 
ATOM     13  O   UNL     1       7.689   5.433  13.909  0.00  0.00    +0.000 OA
ATOM     14  H   UNL     1       5.934   2.827  14.281  0.00  0.00    +0.000 HD
BRANCH  11  16
ATOM     15  C   UNL     1       7.073   2.647  11.756  0.00  0.00    +0.000 C 
ATOM     16  C   UNL     1       6.113   3.676  12.350  0.00  0.00    +0.000 C 
ATOM     17  C   UNL     1       4.679   3.386  11.920  0.00  0.00    +0.000 C 
ENDBRANCH  11  16
ENDBRANCH  10  12
ENDBRANCH   1  10
TORSDOF 4
ENDMDL
MODEL 6
REMARK VINA RESULT:      -6.4      1.850      2.798
REMARK  Name = 
REMARK  6 active torsions:
REMARK  status: ('A' for Active; 'I' for Inactive)
REMARK    1  A    between atoms: C_1  and  C_2
REMARK    2  A    between atoms: C_2  and  C_3
REMARK    3  A    between atoms: C_2  and  N_4
REMARK    4  A    between atoms: C_5  and  C_7
REMARK    5  A    between atoms: C_7  and  S_8
REMARK    6  A    between atoms: S_8  and  C_11
REMARK                            x       y       z     vdW  Elec       q    Type
REMARK                         _______ _______ _______ _____ _____    ______ ____
ROOT
ATOM      1  S   UNL     1       6.483   5.137  18.439  0.00  0.00    +0.000 S 
ATOM      2  O   UNL     1       7.224   4.047  17.824  0.00  0.00    +0.000 OA
ATOM      3  O   UNL     1       6.651   5.452  19.843  0.00  0.00    +0.000 OA
ENDROOT
BRANCH   1   4
ATOM      4  C   UNL     1       4.756   4.795  18.175  0.00  0.00    +0.000 A 
ATOM      5  C   UNL     1       4.385   3.639  17.480  0.00  0.00    +0.000 A 
ATOM      6  C   UNL     1       3.033   3.364  17.282  0.00  0.00    +0.000 A 
ATOM      7  C   UNL     1       2.061   4.233  17.784  0.00  0.00    +0.000 A 
ATOM      8  C   UNL     1       2.440   5.374  18.496  0.00  0.00    +0.000 A 
ATOM      9  C   UNL     1       3.790   5.657  18.698  0.00  0.00    +0.000 A 
ENDBRANCH   1   4
BRANCH   1  10
ATOM     10  C   UNL     1       6.750   6.590  17.473  0.00  0.00    +0.000 C 
BRANCH  10  12
ATOM     11  N   UNL     1       7.083   5.443  15.348  0.00  0.00    +0.000 N 
ATOM     12  C   UNL     1       6.320   6.351  16.056  0.00  0.00    +0.000 C 
ATOM     13  O   UNL     1       5.286   6.846  15.612  0.00  0.00    +0.000 OA
ATOM     14  H   UNL     1       8.041   5.290  15.661  0.00  0.00    +0.000 HD
BRANCH  11  16
ATOM     15  C   UNL     1       8.064   5.263  13.102  0.00  0.00    +0.000 C 
ATOM     16  C   UNL     1       6.802   5.130  13.952  0.00  0.00    +0.000 C 
ATOM     17  C   UNL     1       6.225   3.722  13.842  0.00  0.00    +0.000 C 
ENDBRANCH  11  16
ENDBRANCH  10  12
ENDBRANCH   1  10
TORSDOF 4
ENDMDL
MODEL 7
REMARK VINA RESULT:      -6.4      3.845      6.174
REMARK  Name = 
REMARK  6 active torsions:
REMARK  status: ('A' for Active; 'I' for Inactive)
REMARK    1  A    between atoms: C_1  and  C_2
REMARK    2  A    between atoms: C_2  and  C_3
REMARK    3  A    between atoms: C_2  and  N_4
REMARK    4  A    between atoms: C_5  and  C_7
REMARK    5  A    between atoms: C_7  and  S_8
REMARK    6  A    between atoms: S_8  and  C_11
REMARK                            x       y       z     vdW  Elec       q    Type
REMARK                         _______ _______ _______ _____ _____    ______ ____
ROOT
ATOM      1  S   UNL     1       4.590   4.733  17.036  0.00  0.00    +0.000 S 
ATOM      2  O   UNL     1       4.855   4.472  15.630  0.00  0.00    +0.000 OA
ATOM      3  O   UNL     1       3.391   5.434  17.450  0.00  0.00    +0.000 OA
ENDROOT
BRANCH   1   4
ATOM      4  C   UNL     1       5.982   5.652  17.658  0.00  0.00    +0.000 A 
ATOM      5  C   UNL     1       6.733   5.127  18.715  0.00  0.00    +0.000 A 
ATOM      6  C   UNL     1       7.830   5.840  19.196  0.00  0.00    +0.000 A 
ATOM      7  C   UNL     1       8.178   7.062  18.616  0.00  0.00    +0.000 A 
ATOM      8  C   UNL     1       7.437   7.569  17.546  0.00  0.00    +0.000 A 
ATOM      9  C   UNL     1       6.337   6.863  17.060  0.00  0.00    +0.000 A 
ENDBRANCH   1   4
BRANCH   1  10
ATOM     10  C   UNL     1       4.708   3.202  17.905  0.00  0.00    +0.000 C 
BRANCH  10  12
ATOM     11  N   UNL     1       3.048   3.318  19.686  0.00  0.00    +0.000 N 
ATOM     12  C   UNL     1       3.363   2.809  18.441  0.00  0.00    +0.000 C 
ATOM     13  O   UNL     1       2.563   2.179  17.754  0.00  0.00    +0.000 OA
ATOM     14  H   UNL     1       3.822   3.584  20.294  0.00  0.00    +0.000 HD
BRANCH  11  16
ATOM     15  C   UNL     1       2.025   2.584  21.796  0.00  0.00    +0.000 C 
ATOM     16  C   UNL     1       1.787   3.001  20.346  0.00  0.00    +0.000 C 
ATOM     17  C   UNL     1       0.849   4.202  20.279  0.00  0.00    +0.000 C 
ENDBRANCH  11  16
ENDBRANCH  10  12
ENDBRANCH   1  10
TORSDOF 4
ENDMDL
MODEL 8
REMARK VINA RESULT:      -6.3      3.125      4.505
REMARK  Name = 
REMARK  6 active torsions:
REMARK  status: ('A' for Active; 'I' for Inactive)
REMARK    1  A    between atoms: C_1  and  C_2
REMARK    2  A    between atoms: C_2  and  C_3
REMARK    3  A    between atoms: C_2  and  N_4
REMARK    4  A    between atoms: C_5  and  C_7
REMARK    5  A    between atoms: C_7  and  S_8
REMARK    6  A    between atoms: S_8  and  C_11
REMARK                            x       y       z     vdW  Elec       q    Type
REMARK                         _______ _______ _______ _____ _____    ______ ____
ROOT
ATOM      1  S   UNL     1       2.125   3.082  18.268  0.00  0.00    +0.000 S 
ATOM      2  O   UNL     1       2.115   3.205  16.819  0.00  0.00    +0.000 OA
ATOM      3  O   UNL     1       1.087   2.342  18.959  0.00  0.00    +0.000 OA
ENDROOT
BRANCH   1   4
ATOM      4  C   UNL     1       2.122   4.737  18.923  0.00  0.00    +0.000 A 
ATOM      5  C   UNL     1       2.422   5.809  18.076  0.00  0.00    +0.000 A 
ATOM      6  C   UNL     1       2.410   7.108  18.585  0.00  0.00    +0.000 A 
ATOM      7  C   UNL     1       2.090   7.330  19.926  0.00  0.00    +0.000 A 
ATOM      8  C   UNL     1       1.770   6.256  20.760  0.00  0.00    +0.000 A 
ATOM      9  C   UNL     1       1.781   4.954  20.260  0.00  0.00    +0.000 A 
ENDBRANCH   1   4
BRANCH   1  10
ATOM     10  C   UNL     1       3.707   2.469  18.752  0.00  0.00    +0.000 C 
BRANCH  10  12
ATOM     11  N   UNL     1       4.887   3.569  16.925  0.00  0.00    +0.000 N 
ATOM     12  C   UNL     1       4.784   3.406  18.293  0.00  0.00    +0.000 C 
ATOM     13  O   UNL     1       5.439   4.067  19.096  0.00  0.00    +0.000 OA
ATOM     14  H   UNL     1       4.527   2.821  16.334  0.00  0.00    +0.000 HD
BRANCH  11  16
ATOM     15  C   UNL     1       6.420   3.832  15.023  0.00  0.00    +0.000 C 
ATOM     16  C   UNL     1       5.904   4.428  16.331  0.00  0.00    +0.000 C 
ATOM     17  C   UNL     1       5.334   5.824  16.097  0.00  0.00    +0.000 C 
ENDBRANCH  11  16
ENDBRANCH  10  12
ENDBRANCH   1  10
TORSDOF 4
ENDMDL
MODEL 9
REMARK VINA RESULT:      -6.3      3.530      6.137
REMARK  Name = 
REMARK  6 active torsions:
REMARK  status: ('A' for Active; 'I' for Inactive)
REMARK    1  A    between atoms: C_1  and  C_2
REMARK    2  A    between atoms: C_2  and  C_3
REMARK    3  A    between atoms: C_2  and  N_4
REMARK    4  A    between atoms: C_5  and  C_7
REMARK    5  A    between atoms: C_7  and  S_8
REMARK    6  A    between atoms: S_8  and  C_11
REMARK                            x       y       z     vdW  Elec       q    Type
REMARK                         _______ _______ _______ _____ _____    ______ ____
ROOT
ATOM      1  S   UNL     1       5.555   4.817  19.122  0.00  0.00    +0.000 S 
ATOM      2  O   UNL     1       6.691   5.448  19.777  0.00  0.00    +0.000 OA
ATOM      3  O   UNL     1       5.244   3.421  19.355  0.00  0.00    +0.000 OA
ENDROOT
BRANCH   1   4
ATOM      4  C   UNL     1       5.795   5.023  17.371  0.00  0.00    +0.000 A 
ATOM      5  C   UNL     1       6.671   4.167  16.694  0.00  0.00    +0.000 A 
ATOM      6  C   UNL     1       6.851   4.320  15.320  0.00  0.00    +0.000 A 
ATOM      7  C   UNL     1       6.154   5.313  14.629  0.00  0.00    +0.000 A 
ATOM      8  C   UNL     1       5.265   6.150  15.309  0.00  0.00    +0.000 A 
ATOM      9  C   UNL     1       5.079   6.005  16.683  0.00  0.00    +0.000 A 
ENDBRANCH   1   4
BRANCH   1  10
ATOM     10  C   UNL     1       4.126   5.801  19.443  0.00  0.00    +0.000 C 
BRANCH  10  12
ATOM     11  N   UNL     1       2.680   4.058  20.344  0.00  0.00    +0.000 N 
ATOM     12  C   UNL     1       2.887   4.965  19.322  0.00  0.00    +0.000 C 
ATOM     13  O   UNL     1       2.064   5.171  18.433  0.00  0.00    +0.000 OA
ATOM     14  H   UNL     1       3.495   3.752  20.872  0.00  0.00    +0.000 HD
BRANCH  11  16
ATOM     15  C   UNL     1       1.713   2.045  19.318  0.00  0.00    +0.000 C 
ATOM     16  C   UNL     1       1.532   3.159  20.348  0.00  0.00    +0.000 C 
ATOM     17  C   UNL     1       1.335   2.574  21.743  0.00  0.00    +0.000 C 
ENDBRANCH  11  16
ENDBRANCH  10  12
ENDBRANCH   1  10
TORSDOF 4
ENDMDL
