MODEL 1
REMARK VINA RESULT:      -8.2      0.000      0.000
REMARK  Name = 
REMARK  6 active torsions:
REMARK  status: ('A' for Active; 'I' for Inactive)
REMARK    1  A    between atoms: C_1  and  C_2
REMARK    2  A    between atoms: C_4  and  C_5
REMARK    3  A    between atoms: C_7  and  C_8
REMARK    4  A    between atoms: C_8  and  O_9
REMARK    5  A    between atoms: C_8  and  C_10
REMARK    6  A    between atoms: C_12  and  C_13
REMARK                            x       y       z     vdW  Elec       q    Type
REMARK                         _______ _______ _______ _____ _____    ______ ____
ROOT
ATOM      1  C   UNL     1       3.367   4.441  19.274  0.00  0.00    +0.000 A 
ATOM      2  N   UNL     1       3.029   5.683  18.976  0.00  0.00    +0.000 NA
ATOM      3  C   UNL     1       2.229   6.125  20.006  0.00  0.00    +0.000 A 
ATOM      4  C   UNL     1       1.969   5.085  20.869  0.00  0.00    +0.000 A 
ATOM      5  N   UNL     1       2.695   4.026  20.396  0.00  0.00    +0.000 N 
ATOM      6  H   UNL     1       2.802   3.117  20.824  0.00  0.00    +0.000 HD
ENDROOT
BRANCH   3   7
ATOM      7  C   UNL     1       1.741   7.496  20.081  0.00  0.00    +0.000 A 
ATOM      8  C   UNL     1       1.067   7.875  21.259  0.00  0.00    +0.000 A 
ATOM      9  C   UNL     1       0.572   9.172  21.430  0.00  0.00    +0.000 A 
ATOM     10  C   UNL     1       0.737  10.115  20.421  0.00  0.00    +0.000 A 
ATOM     11  C   UNL     1       1.376   9.752  19.237  0.00  0.00    +0.000 A 
ATOM     12  C   UNL     1       1.865   8.449  19.055  0.00  0.00    +0.000 A 
ATOM     13 CL   UNL     1       2.535   8.111  17.494  0.00  0.00    +0.000 Cl
ENDBRANCH   3   7
BRANCH   1  14
ATOM     14  C   UNL     1       4.375   3.558  18.588  0.00  0.00    +0.000 C 
BRANCH  14  21
ATOM     15  C   UNL     1       7.630   7.259  17.488  0.00  0.00    +0.000 C 
ATOM     16  C   UNL     1       6.868   6.046  17.043  0.00  0.00    +0.000 A 
ATOM     17  C   UNL     1       6.889   5.610  15.716  0.00  0.00    +0.000 A 
ATOM     18  C   UNL     1       6.133   4.501  15.317  0.00  0.00    +0.000 A 
ATOM     19  C   UNL     1       6.152   4.032  13.892  0.00  0.00    +0.000 C 
ATOM     20  C   UNL     1       5.333   3.836  16.261  0.00  0.00    +0.000 A 
ATOM     21  C   UNL     1       5.275   4.272  17.593  0.00  0.00    +0.000 A 
ATOM     22  C   UNL     1       6.081   5.360  17.972  0.00  0.00    +0.000 A 
ENDBRANCH  14  21
BRANCH  14  23
ATOM     23  O   UNL     1       5.183   2.980  19.622  0.00  0.00    +0.000 OA
ATOM     24  H   UNL     1       5.120   2.015  19.504  0.00  0.00    +0.000 HD
ENDBRANCH  14  23
ENDBRANCH   1  14
TORSDOF 4
ENDMDL
MODEL 2
REMARK VINA RESULT:      -8.2      0.064      1.841
REMARK  Name = 
REMARK  6 active torsions:
REMARK  status: ('A' for Active; 'I' for Inactive)
REMARK    1  A    between atoms: C_1  and  C_2
REMARK    2  A    between atoms: C_4  and  C_5
REMARK    3  A    between atoms: C_7  and  C_8
REMARK    4  A    between atoms: C_8  and  O_9
REMARK    5  A    between atoms: C_8  and  C_10
REMARK    6  A    between atoms: C_12  and  C_13
REMARK                            x       y       z     vdW  Elec       q    Type
REMARK                         _______ _______ _______ _____ _____    ______ ____
ROOT
ATOM      1  C   UNL     1       3.365   4.438  19.292  0.00  0.00    +0.000 A 
ATOM      2  N   UNL     1       2.998   5.673  18.996  0.00  0.00    +0.000 NA
ATOM      3  C   UNL     1       2.222   6.109  20.046  0.00  0.00    +0.000 A 
ATOM      4  C   UNL     1       2.004   5.072  20.923  0.00  0.00    +0.000 A 
ATOM      5  N   UNL     1       2.734   4.021  20.436  0.00  0.00    +0.000 N 
ATOM      6  H   UNL     1       2.868   3.116  20.866  0.00  0.00    +0.000 HD
ENDROOT
BRANCH   3   7
ATOM      7  C   UNL     1       1.714   7.473  20.127  0.00  0.00    +0.000 A 
ATOM      8  C   UNL     1       1.019   7.832  21.298  0.00  0.00    +0.000 A 
ATOM      9  C   UNL     1       0.504   9.120  21.474  0.00  0.00    +0.000 A 
ATOM     10  C   UNL     1       0.670  10.074  20.476  0.00  0.00    +0.000 A 
ATOM     11  C   UNL     1       1.330   9.731  19.297  0.00  0.00    +0.000 A 
ATOM     12  C   UNL     1       1.839   8.437  19.111  0.00  0.00    +0.000 A 
ATOM     13 CL   UNL     1       2.535   8.122  17.556  0.00  0.00    +0.000 Cl
ENDBRANCH   3   7
BRANCH   1  14
ATOM     14  C   UNL     1       4.367   3.568  18.582  0.00  0.00    +0.000 C 
BRANCH  14  21
ATOM     15  C   UNL     1       6.245   3.981  13.913  0.00  0.00    +0.000 C 
ATOM     16  C   UNL     1       6.145   4.522  15.308  0.00  0.00    +0.000 A 
ATOM     17  C   UNL     1       6.902   5.619  15.728  0.00  0.00    +0.000 A 
ATOM     18  C   UNL     1       6.823   6.077  17.049  0.00  0.00    +0.000 A 
ATOM     19  C   UNL     1       7.637   7.253  17.503  0.00  0.00    +0.000 C 
ATOM     20  C   UNL     1       5.987   5.412  17.961  0.00  0.00    +0.000 A 
ATOM     21  C   UNL     1       5.238   4.292  17.569  0.00  0.00    +0.000 A 
ATOM     22  C   UNL     1       5.303   3.886  16.225  0.00  0.00    +0.000 A 
ENDBRANCH  14  21
BRANCH  14  23
ATOM     23  O   UNL     1       5.203   2.996  19.597  0.00  0.00    +0.000 OA
ATOM     24  H   UNL     1       5.263   2.045  19.391  0.00  0.00    +0.000 HD
ENDBRANCH  14  23
ENDBRANCH   1  14
TORSDOF 4
ENDMDL
MODEL 3
REMARK VINA RESULT:      -8.1      1.797      2.405
REMARK  Name = 
REMARK  6 active torsions:
REMARK  status: ('A' for Active; 'I' for Inactive)
REMARK    1  A    between atoms: C_1  and  C_2
REMARK    2  A    between atoms: C_4  and  C_5
REMARK    3  A    between atoms: C_7  and  C_8
REMARK    4  A    between atoms: C_8  and  O_9
REMARK    5  A    between atoms: C_8  and  C_10
REMARK    6  A    between atoms: C_12  and  C_13
REMARK                            x       y       z     vdW  Elec       q    Type
REMARK                         _______ _______ _______ _____ _____    ______ ____
ROOT
ATOM      1  C   UNL     1       2.608   6.618  18.614  0.00  0.00    +0.000 A 
ATOM      2  N   UNL     1       2.026   7.009  19.735  0.00  0.00    +0.000 NA
ATOM      3  C   UNL     1       1.679   8.328  19.552  0.00  0.00    +0.000 A 
ATOM      4  C   UNL     1       2.184   8.779  18.354  0.00  0.00    +0.000 A 
ATOM      5  N   UNL     1       2.769   7.687  17.770  0.00  0.00    +0.000 N 
ATOM      6  H   UNL     1       3.177   7.632  16.847  0.00  0.00    +0.000 HD
ENDROOT
BRANCH   3   7
ATOM      7  C   UNL     1       0.919   9.080  20.543  0.00  0.00    +0.000 A 
ATOM      8  C   UNL     1       1.168   8.791  21.899  0.00  0.00    +0.000 A 
ATOM      9  C   UNL     1       0.498   9.467  22.923  0.00  0.00    +0.000 A 
ATOM     10  C   UNL     1      -0.441  10.443  22.610  0.00  0.00    +0.000 A 
ATOM     11  C   UNL     1      -0.723  10.724  21.274  0.00  0.00    +0.000 A 
ATOM     12  C   UNL     1      -0.061  10.041  20.242  0.00  0.00    +0.000 A 
ATOM     13 CL   UNL     1      -0.592  10.415  18.636  0.00  0.00    +0.000 Cl
ENDBRANCH   3   7
BRANCH   1  14
ATOM     14  C   UNL     1       3.009   5.226  18.207  0.00  0.00    +0.000 C 
BRANCH  14  21
ATOM     15  C   UNL     1       7.945   5.782  19.113  0.00  0.00    +0.000 C 
ATOM     16  C   UNL     1       6.854   5.324  18.192  0.00  0.00    +0.000 A 
ATOM     17  C   UNL     1       7.125   4.858  16.904  0.00  0.00    +0.000 A 
ATOM     18  C   UNL     1       6.084   4.480  16.047  0.00  0.00    +0.000 A 
ATOM     19  C   UNL     1       6.373   3.980  14.662  0.00  0.00    +0.000 C 
ATOM     20  C   UNL     1       4.755   4.590  16.487  0.00  0.00    +0.000 A 
ATOM     21  C   UNL     1       4.456   5.082  17.767  0.00  0.00    +0.000 A 
ATOM     22  C   UNL     1       5.525   5.409  18.619  0.00  0.00    +0.000 A 
ENDBRANCH  14  21
BRANCH  14  23
ATOM     23  O   UNL     1       2.778   4.385  19.346  0.00  0.00    +0.000 OA
ATOM     24  H   UNL     1       2.706   4.983  20.112  0.00  0.00    +0.000 HD
ENDBRANCH  14  23
ENDBRANCH   1  14
TORSDOF 4
ENDMDL
MODEL 4
REMARK VINA RESULT:      -8.0      2.117      3.573
REMARK  Name = 
REMARK  6 active torsions:
REMARK  status: ('A' for Active; 'I' for Inactive)
REMARK    1  A    between atoms: C_1  and  C_2
REMARK    2  A    between atoms: C_4  and  C_5
REMARK    3  A    between atoms: C_7  and  C_8
REMARK    4  A    between atoms: C_8  and  O_9
REMARK    5  A    between atoms: C_8  and  C_10
REMARK    6  A    between atoms: C_12  and  C_13
REMARK                            x       y       z     vdW  Elec       q    Type
REMARK                         _______ _______ _______ _____ _____    ______ ____
ROOT
ATOM      1  C   UNL     1       4.622   4.303  16.861  0.00  0.00    +0.000 A 
ATOM      2  N   UNL     1       4.391   5.539  17.267  0.00  0.00    +0.000 NA
ATOM      3  C   UNL     1       3.132   5.536  17.824  0.00  0.00    +0.000 A 
ATOM      4  C   UNL     1       2.541   4.309  17.624  0.00  0.00    +0.000 A 
ATOM      5  N   UNL     1       3.494   3.538  17.015  0.00  0.00    +0.000 N 
ATOM      6  H   UNL     1       3.433   2.555  16.787  0.00  0.00    +0.000 HD
ENDROOT
BRANCH   3   7
ATOM      7  C   UNL     1       2.565   6.708  18.478  0.00  0.00    +0.000 A 
ATOM      8  C   UNL     1       2.509   7.899  17.728  0.00  0.00    +0.000 A 
ATOM      9  C   UNL     1       1.972   9.073  18.264  0.00  0.00    +0.000 A 
ATOM     10  C   UNL     1       1.484   9.080  19.566  0.00  0.00    +0.000 A 
ATOM     11  C   UNL     1       1.557   7.920  20.335  0.00  0.00    +0.000 A 
ATOM     12  C   UNL     1       2.105   6.742  19.806  0.00  0.00    +0.000 A 
ATOM     13 CL   UNL     1       2.231   5.412  20.909  0.00  0.00    +0.000 Cl
ENDBRANCH   3   7
BRANCH   1  14
ATOM     14  C   UNL     1       5.911   3.713  16.355  0.00  0.00    +0.000 C 
BRANCH  14  21
ATOM     15  C   UNL     1       4.907   2.832  11.485  0.00  0.00    +0.000 C 
ATOM     16  C   UNL     1       5.710   3.567  12.516  0.00  0.00    +0.000 A 
ATOM     17  C   UNL     1       6.772   4.403  12.164  0.00  0.00    +0.000 A 
ATOM     18  C   UNL     1       7.536   5.042  13.149  0.00  0.00    +0.000 A 
ATOM     19  C   UNL     1       8.678   5.939  12.773  0.00  0.00    +0.000 C 
ATOM     20  C   UNL     1       7.237   4.821  14.504  0.00  0.00    +0.000 A 
ATOM     21  C   UNL     1       6.193   3.964  14.882  0.00  0.00    +0.000 A 
ATOM     22  C   UNL     1       5.416   3.375  13.869  0.00  0.00    +0.000 A 
ENDBRANCH  14  21
BRANCH  14  23
ATOM     23  O   UNL     1       6.962   4.291  17.140  0.00  0.00    +0.000 OA
ATOM     24  H   UNL     1       7.026   3.747  17.946  0.00  0.00    +0.000 HD
ENDBRANCH  14  23
ENDBRANCH   1  14
TORSDOF 4
ENDMDL
MODEL 5
REMARK VINA RESULT:      -8.0      1.724      2.969
REMARK  Name = 
REMARK  6 active torsions:
REMARK  status: ('A' for Active; 'I' for Inactive)
REMARK    1  A    between atoms: C_1  and  C_2
REMARK    2  A    between atoms: C_4  and  C_5
REMARK    3  A    between atoms: C_7  and  C_8
REMARK    4  A    between atoms: C_8  and  O_9
REMARK    5  A    between atoms: C_8  and  C_10
REMARK    6  A    between atoms: C_12  and  C_13
REMARK                            x       y       z     vdW  Elec       q    Type
REMARK                         _______ _______ _______ _____ _____    ______ ____
ROOT
ATOM      1  C   UNL     1       2.649   6.513  19.008  0.00  0.00    +0.000 A 
ATOM      2  N   UNL     1       2.067   7.004  20.088  0.00  0.00    +0.000 NA
ATOM      3  C   UNL     1       1.623   8.263  19.751  0.00  0.00    +0.000 A 
ATOM      4  C   UNL     1       2.069   8.589  18.490  0.00  0.00    +0.000 A 
ATOM      5  N   UNL     1       2.715   7.474  18.030  0.00  0.00    +0.000 N 
ATOM      6  H   UNL     1       3.106   7.328  17.109  0.00  0.00    +0.000 HD
ENDROOT
BRANCH   3   7
ATOM      7  C   UNL     1       0.835   9.082  20.662  0.00  0.00    +0.000 A 
ATOM      8  C   UNL     1       0.956   8.811  22.040  0.00  0.00    +0.000 A 
ATOM      9  C   UNL     1       0.250   9.551  22.993  0.00  0.00    +0.000 A 
ATOM     10  C   UNL     1      -0.598  10.575  22.586  0.00  0.00    +0.000 A 
ATOM     11  C   UNL     1      -0.754  10.840  21.226  0.00  0.00    +0.000 A 
ATOM     12  C   UNL     1      -0.056  10.094  20.265  0.00  0.00    +0.000 A 
ATOM     13 CL   UNL     1      -0.432  10.461  18.614  0.00  0.00    +0.000 Cl
ENDBRANCH   3   7
BRANCH   1  14
ATOM     14  C   UNL     1       3.138   5.110  18.767  0.00  0.00    +0.000 C 
BRANCH  14  21
ATOM     15  C   UNL     1       6.136   3.870  14.898  0.00  0.00    +0.000 C 
ATOM     16  C   UNL     1       5.992   4.438  16.279  0.00  0.00    +0.000 A 
ATOM     17  C   UNL     1       7.103   4.792  17.048  0.00  0.00    +0.000 A 
ATOM     18  C   UNL     1       6.943   5.277  18.352  0.00  0.00    +0.000 A 
ATOM     19  C   UNL     1       8.135   5.657  19.181  0.00  0.00    +0.000 C 
ATOM     20  C   UNL     1       5.652   5.389  18.893  0.00  0.00    +0.000 A 
ATOM     21  C   UNL     1       4.523   5.014  18.149  0.00  0.00    +0.000 A 
ATOM     22  C   UNL     1       4.714   4.574  16.827  0.00  0.00    +0.000 A 
ENDBRANCH  14  21
BRANCH  14  23
ATOM     23  O   UNL     1       3.146   4.456  20.043  0.00  0.00    +0.000 OA
ATOM     24  H   UNL     1       3.131   3.500  19.855  0.00  0.00    +0.000 HD
ENDBRANCH  14  23
ENDBRANCH   1  14
TORSDOF 4
ENDMDL
MODEL 6
REMARK VINA RESULT:      -7.9      2.209      3.409
REMARK  Name = 
REMARK  6 active torsions:
REMARK  status: ('A' for Active; 'I' for Inactive)
REMARK    1  A    between atoms: C_1  and  C_2
REMARK    2  A    between atoms: C_4  and  C_5
REMARK    3  A    between atoms: C_7  and  C_8
REMARK    4  A    between atoms: C_8  and  O_9
REMARK    5  A    between atoms: C_8  and  C_10
REMARK    6  A    between atoms: C_12  and  C_13
REMARK                            x       y       z     vdW  Elec       q    Type
REMARK                         _______ _______ _______ _____ _____    ______ ____
ROOT
ATOM      1  C   UNL     1       5.195   4.673  16.775  0.00  0.00    +0.000 A 
ATOM      2  N   UNL     1       4.793   5.883  17.123  0.00  0.00    +0.000 NA
ATOM      3  C   UNL     1       3.560   5.726  17.715  0.00  0.00    +0.000 A 
ATOM      4  C   UNL     1       3.152   4.418  17.595  0.00  0.00    +0.000 A 
ATOM      5  N   UNL     1       4.195   3.761  17.000  0.00  0.00    +0.000 N 
ATOM      6  H   UNL     1       4.275   2.769  16.825  0.00  0.00    +0.000 HD
ENDROOT
BRANCH   3   7
ATOM      7  C   UNL     1       2.840   6.838  18.323  0.00  0.00    +0.000 A 
ATOM      8  C   UNL     1       2.731   8.023  17.570  0.00  0.00    +0.000 A 
ATOM      9  C   UNL     1       2.049   9.140  18.063  0.00  0.00    +0.000 A 
ATOM     10  C   UNL     1       1.466   9.094  19.325  0.00  0.00    +0.000 A 
ATOM     11  C   UNL     1       1.587   7.940  20.098  0.00  0.00    +0.000 A 
ATOM     12  C   UNL     1       2.280   6.820  19.612  0.00  0.00    +0.000 A 
ATOM     13 CL   UNL     1       2.444   5.501  20.723  0.00  0.00    +0.000 Cl
ENDBRANCH   3   7
BRANCH   1  14
ATOM     14  C   UNL     1       6.546   4.250  16.263  0.00  0.00    +0.000 C 
BRANCH  14  21
ATOM     15  C   UNL     1       8.648   6.266  12.138  0.00  0.00    +0.000 C 
ATOM     16  C   UNL     1       7.722   5.253  12.740  0.00  0.00    +0.000 A 
ATOM     17  C   UNL     1       6.927   4.420  11.949  0.00  0.00    +0.000 A 
ATOM     18  C   UNL     1       6.036   3.513  12.538  0.00  0.00    +0.000 A 
ATOM     19  C   UNL     1       5.180   2.619  11.690  0.00  0.00    +0.000 C 
ATOM     20  C   UNL     1       5.933   3.458  13.937  0.00  0.00    +0.000 A 
ATOM     21  C   UNL     1       6.701   4.303  14.752  0.00  0.00    +0.000 A 
ATOM     22  C   UNL     1       7.618   5.170  14.132  0.00  0.00    +0.000 A 
ENDBRANCH  14  21
BRANCH  14  23
ATOM     23  O   UNL     1       7.505   5.130  16.865  0.00  0.00    +0.000 OA
ATOM     24  H   UNL     1       7.142   6.030  16.768  0.00  0.00    +0.000 HD
ENDBRANCH  14  23
ENDBRANCH   1  14
TORSDOF 4
ENDMDL
MODEL 7
REMARK VINA RESULT:      -7.8      2.976      4.730
REMARK  Name = 
REMARK  6 active torsions:
REMARK  status: ('A' for Active; 'I' for Inactive)
REMARK    1  A    between atoms: C_1  and  C_2
REMARK    2  A    between atoms: C_4  and  C_5
REMARK    3  A    between atoms: C_7  and  C_8
REMARK    4  A    between atoms: C_8  and  O_9
REMARK    5  A    between atoms: C_8  and  C_10
REMARK    6  A    between atoms: C_12  and  C_13
REMARK                            x       y       z     vdW  Elec       q    Type
REMARK                         _______ _______ _______ _____ _____    ______ ____
ROOT
ATOM      1  C   UNL     1       5.585   4.759  16.866  0.00  0.00    +0.000 A 
ATOM      2  N   UNL     1       4.847   4.011  17.668  0.00  0.00    +0.000 NA
ATOM      3  C   UNL     1       3.652   4.676  17.827  0.00  0.00    +0.000 A 
ATOM      4  C   UNL     1       3.725   5.910  17.223  0.00  0.00    +0.000 A 
ATOM      5  N   UNL     1       4.951   5.950  16.617  0.00  0.00    +0.000 N 
ATOM      6  H   UNL     1       5.315   6.679  16.018  0.00  0.00    +0.000 HD
ENDROOT
BRANCH   3   7
ATOM      7  C   UNL     1       2.536   4.106  18.571  0.00  0.00    +0.000 A 
ATOM      8  C   UNL     1       2.027   2.871  18.122  0.00  0.00    +0.000 A 
ATOM      9  C   UNL     1       0.966   2.239  18.777  0.00  0.00    +0.000 A 
ATOM     10  C   UNL     1       0.387   2.834  19.892  0.00  0.00    +0.000 A 
ATOM     11  C   UNL     1       0.857   4.069  20.335  0.00  0.00    +0.000 A 
ATOM     12  C   UNL     1       1.915   4.713  19.676  0.00  0.00    +0.000 A 
ATOM     13 CL   UNL     1       2.318   6.290  20.269  0.00  0.00    +0.000 Cl
ENDBRANCH   3   7
BRANCH   1  14
ATOM     14  C   UNL     1       6.900   4.417  16.219  0.00  0.00    +0.000 C 
BRANCH  14  21
ATOM     15  C   UNL     1       5.309   2.497  11.827  0.00  0.00    +0.000 C 
ATOM     16  C   UNL     1       6.113   3.530  12.560  0.00  0.00    +0.000 A 
ATOM     17  C   UNL     1       6.923   4.446  11.885  0.00  0.00    +0.000 A 
ATOM     18  C   UNL     1       7.699   5.372  12.595  0.00  0.00    +0.000 A 
ATOM     19  C   UNL     1       8.571   6.356  11.873  0.00  0.00    +0.000 C 
ATOM     20  C   UNL     1       7.671   5.361  13.999  0.00  0.00    +0.000 A 
ATOM     21  C   UNL     1       6.886   4.432  14.699  0.00  0.00    +0.000 A 
ATOM     22  C   UNL     1       6.084   3.547  13.957  0.00  0.00    +0.000 A 
ENDBRANCH  14  21
BRANCH  14  23
ATOM     23  O   UNL     1       7.851   5.380  16.690  0.00  0.00    +0.000 OA
ATOM     24  H   UNL     1       7.350   6.001  17.250  0.00  0.00    +0.000 HD
ENDBRANCH  14  23
ENDBRANCH   1  14
TORSDOF 4
ENDMDL
MODEL 8
REMARK VINA RESULT:      -7.8      1.960      2.752
REMARK  Name = 
REMARK  6 active torsions:
REMARK  status: ('A' for Active; 'I' for Inactive)
REMARK    1  A    between atoms: C_1  and  C_2
REMARK    2  A    between atoms: C_4  and  C_5
REMARK    3  A    between atoms: C_7  and  C_8
REMARK    4  A    between atoms: C_8  and  O_9
REMARK    5  A    between atoms: C_8  and  C_10
REMARK    6  A    between atoms: C_12  and  C_13
REMARK                            x       y       z     vdW  Elec       q    Type
REMARK                         _______ _______ _______ _____ _____    ______ ____
ROOT
ATOM      1  C   UNL     1       2.548   7.037  18.919  0.00  0.00    +0.000 A 
ATOM      2  N   UNL     1       1.789   7.721  19.756  0.00  0.00    +0.000 NA
ATOM      3  C   UNL     1       1.471   8.898  19.117  0.00  0.00    +0.000 A 
ATOM      4  C   UNL     1       2.164   8.983  17.931  0.00  0.00    +0.000 A 
ATOM      5  N   UNL     1       2.841   7.799  17.817  0.00  0.00    +0.000 N 
ATOM      6  H   UNL     1       3.395   7.483  17.033  0.00  0.00    +0.000 HD
ENDROOT
BRANCH   3   7
ATOM      7  C   UNL     1       0.555   9.876  19.692  0.00  0.00    +0.000 A 
ATOM      8  C   UNL     1       0.816  10.305  21.008  0.00  0.00    +0.000 A 
ATOM      9  C   UNL     1       0.002  11.249  21.642  0.00  0.00    +0.000 A 
ATOM     10  C   UNL     1      -1.094  11.779  20.971  0.00  0.00    +0.000 A 
ATOM     11  C   UNL     1      -1.387  11.346  19.679  0.00  0.00    +0.000 A 
ATOM     12  C   UNL     1      -0.580  10.391  19.042  0.00  0.00    +0.000 A 
ATOM     13 CL   UNL     1      -1.125   9.868  17.484  0.00  0.00    +0.000 Cl
ENDBRANCH   3   7
BRANCH   1  14
ATOM     14  C   UNL     1       3.016   5.611  19.037  0.00  0.00    +0.000 C 
BRANCH  14  21
ATOM     15  C   UNL     1       8.059   5.718  19.279  0.00  0.00    +0.000 C 
ATOM     16  C   UNL     1       6.819   5.356  18.518  0.00  0.00    +0.000 A 
ATOM     17  C   UNL     1       6.875   4.858  17.214  0.00  0.00    +0.000 A 
ATOM     18  C   UNL     1       5.700   4.570  16.508  0.00  0.00    +0.000 A 
ATOM     19  C   UNL     1       5.758   4.036  15.107  0.00  0.00    +0.000 C 
ATOM     20  C   UNL     1       4.456   4.805  17.116  0.00  0.00    +0.000 A 
ATOM     21  C   UNL     1       4.374   5.332  18.414  0.00  0.00    +0.000 A 
ATOM     22  C   UNL     1       5.571   5.566  19.113  0.00  0.00    +0.000 A 
ENDBRANCH  14  21
BRANCH  14  23
ATOM     23  O   UNL     1       3.072   5.314  20.439  0.00  0.00    +0.000 OA
ATOM     24  H   UNL     1       3.671   4.550  20.528  0.00  0.00    +0.000 HD
ENDBRANCH  14  23
ENDBRANCH   1  14
TORSDOF 4
ENDMDL
MODEL 9
REMARK VINA RESULT:      -7.8      2.026      3.358
REMARK  Name = 
REMARK  6 active torsions:
REMARK  status: ('A' for Active; 'I' for Inactive)
REMARK    1  A    between atoms: C_1  and  C_2
REMARK    2  A    between atoms: C_4  and  C_5
REMARK    3  A    between atoms: C_7  and  C_8
REMARK    4  A    between atoms: C_8  and  O_9
REMARK    5  A    between atoms: C_8  and  C_10
REMARK    6  A    between atoms: C_12  and  C_13
REMARK                            x       y       z     vdW  Elec       q    Type
REMARK                         _______ _______ _______ _____ _____    ______ ____
ROOT
ATOM      1  C   UNL     1       2.528   7.200  18.849  0.00  0.00    +0.000 A 
ATOM      2  N   UNL     1       1.759   7.877  19.684  0.00  0.00    +0.000 NA
ATOM      3  C   UNL     1       1.436   9.053  19.047  0.00  0.00    +0.000 A 
ATOM      4  C   UNL     1       2.134   9.147  17.865  0.00  0.00    +0.000 A 
ATOM      5  N   UNL     1       2.819   7.968  17.750  0.00  0.00    +0.000 N 
ATOM      6  H   UNL     1       3.379   7.658  16.968  0.00  0.00    +0.000 HD
ENDROOT
BRANCH   3   7
ATOM      7  C   UNL     1       0.511  10.022  19.621  0.00  0.00    +0.000 A 
ATOM      8  C   UNL     1       0.798  10.497  20.916  0.00  0.00    +0.000 A 
ATOM      9  C   UNL     1      -0.023  11.437  21.546  0.00  0.00    +0.000 A 
ATOM     10  C   UNL     1      -1.153  11.917  20.894  0.00  0.00    +0.000 A 
ATOM     11  C   UNL     1      -1.471  11.439  19.624  0.00  0.00    +0.000 A 
ATOM     12  C   UNL     1      -0.656  10.488  18.991  0.00  0.00    +0.000 A 
ATOM     13 CL   UNL     1      -1.233   9.905  17.465  0.00  0.00    +0.000 Cl
ENDBRANCH   3   7
BRANCH   1  14
ATOM     14  C   UNL     1       3.005   5.777  18.965  0.00  0.00    +0.000 C 
BRANCH  14  21
ATOM     15  C   UNL     1       5.699   4.090  15.041  0.00  0.00    +0.000 C 
ATOM     16  C   UNL     1       5.672   4.704  16.409  0.00  0.00    +0.000 A 
ATOM     17  C   UNL     1       6.843   4.940  17.134  0.00  0.00    +0.000 A 
ATOM     18  C   UNL     1       6.787   5.473  18.428  0.00  0.00    +0.000 A 
ATOM     19  C   UNL     1       8.043   5.725  19.208  0.00  0.00    +0.000 C 
ATOM     20  C   UNL     1       5.537   5.753  19.005  0.00  0.00    +0.000 A 
ATOM     21  C   UNL     1       4.347   5.499  18.307  0.00  0.00    +0.000 A 
ATOM     22  C   UNL     1       4.438   5.008  16.993  0.00  0.00    +0.000 A 
ENDBRANCH  14  21
BRANCH  14  23
ATOM     23  O   UNL     1       3.101   5.491  20.366  0.00  0.00    +0.000 OA
ATOM     24  H   UNL     1       2.616   4.657  20.504  0.00  0.00    +0.000 HD
ENDBRANCH  14  23
ENDBRANCH   1  14
TORSDOF 4
ENDMDL
