MODEL 1
REMARK VINA RESULT:      -6.9      0.000      0.000
REMARK  Name = 
REMARK  7 active torsions:
REMARK  status: ('A' for Active; 'I' for Inactive)
REMARK    1  A    between atoms: C_1  and  C_2
REMARK    2  A    between atoms: C_2  and  C_3
REMARK    3  A    between atoms: C_3  and  C_4
REMARK    4  A    between atoms: C_4  and  C_5
REMARK    5  A    between atoms: C_5  and  C_6
REMARK    6  A    between atoms: C_6  and  O_7
REMARK    7  A    between atoms: O_7  and  C_8
REMARK                            x       y       z     vdW  Elec       q    Type
REMARK                         _______ _______ _______ _____ _____    ______ ____
ROOT
ATOM      1  C   UNL     1       3.475   3.117  19.396  0.00  0.00    +0.000 A 
ATOM      2  C   UNL     1       3.138   2.869  18.065  0.00  0.00    +0.000 A 
ATOM      3  C   UNL     1       3.922   3.369  17.031  0.00  0.00    +0.000 A 
ATOM      4  C   UNL     1       5.061   4.131  17.327  0.00  0.00    +0.000 A 
ATOM      5  C   UNL     1       5.417   4.388  18.658  0.00  0.00    +0.000 A 
ATOM      6  C   UNL     1       4.618   3.870  19.686  0.00  0.00    +0.000 A 
ATOM      7  C   UNL     1       6.619   5.221  19.032  0.00  0.00    +0.000 C 
ATOM      8  C   UNL     1       7.478   5.766  17.888  0.00  0.00    +0.000 C 
ATOM      9  C   UNL     1       6.998   5.413  16.534  0.00  0.00    +0.000 A 
ATOM     10  N   UNL     1       7.544   5.749  15.383  0.00  0.00    +0.000 NA
ATOM     11  N   UNL     1       6.765   5.220  14.383  0.00  0.00    +0.000 NA
ATOM     12  C   UNL     1       5.769   4.577  14.950  0.00  0.00    +0.000 A 
ATOM     13  N   UNL     1       5.875   4.661  16.314  0.00  0.00    +0.000 N 
ENDROOT
BRANCH   1  14
ATOM     14  O   UNL     1       2.752   2.698  20.478  0.00  0.00    +0.000 OA
BRANCH  14  15
ATOM     15  C   UNL     1       2.119   3.741  21.221  0.00  0.00    +0.000 C 
BRANCH  15  16
ATOM     16  C   UNL     1       1.259   4.557  20.273  0.00  0.00    +0.000 C 
BRANCH  16  17
ATOM     17  C   UNL     1       1.359   6.048  20.587  0.00  0.00    +0.000 C 
BRANCH  17  18
ATOM     18  C   UNL     1       2.544   6.691  19.875  0.00  0.00    +0.000 C 
BRANCH  18  20
ATOM     19  C   UNL     1       3.478   7.380  17.642  0.00  0.00    +0.000 C 
ATOM     20  C   UNL     1       2.390   6.596  18.358  0.00  0.00    +0.000 C 
ENDBRANCH  18  20
ENDBRANCH  17  18
ENDBRANCH  16  17
ENDBRANCH  15  16
ENDBRANCH  14  15
ENDBRANCH   1  14
TORSDOF 6
ENDMDL
MODEL 2
REMARK VINA RESULT:      -6.8      1.292      2.546
REMARK  Name = 
REMARK  7 active torsions:
REMARK  status: ('A' for Active; 'I' for Inactive)
REMARK    1  A    between atoms: C_1  and  C_2
REMARK    2  A    between atoms: C_2  and  C_3
REMARK    3  A    between atoms: C_3  and  C_4
REMARK    4  A    between atoms: C_4  and  C_5
REMARK    5  A    between atoms: C_5  and  C_6
REMARK    6  A    between atoms: C_6  and  O_7
REMARK    7  A    between atoms: O_7  and  C_8
REMARK                            x       y       z     vdW  Elec       q    Type
REMARK                         _______ _______ _______ _____ _____    ______ ____
ROOT
ATOM      1  C   UNL     1       2.917   5.430  19.565  0.00  0.00    +0.000 A 
ATOM      2  C   UNL     1       2.479   5.702  18.268  0.00  0.00    +0.000 A 
ATOM      3  C   UNL     1       3.373   5.702  17.204  0.00  0.00    +0.000 A 
ATOM      4  C   UNL     1       4.729   5.430  17.435  0.00  0.00    +0.000 A 
ATOM      5  C   UNL     1       5.187   5.152  18.730  0.00  0.00    +0.000 A 
ATOM      6  C   UNL     1       4.268   5.149  19.788  0.00  0.00    +0.000 A 
ATOM      7  C   UNL     1       6.639   4.874  19.037  0.00  0.00    +0.000 C 
ATOM      8  C   UNL     1       7.618   4.876  17.860  0.00  0.00    +0.000 C 
ATOM      9  C   UNL     1       7.003   5.172  16.547  0.00  0.00    +0.000 A 
ATOM     10  N   UNL     1       7.610   5.236  15.379  0.00  0.00    +0.000 NA
ATOM     11  N   UNL     1       6.664   5.551  14.435  0.00  0.00    +0.000 NA
ATOM     12  C   UNL     1       5.508   5.668  15.050  0.00  0.00    +0.000 A 
ATOM     13  N   UNL     1       5.666   5.429  16.390  0.00  0.00    +0.000 N 
ENDROOT
BRANCH   1  14
ATOM     14  O   UNL     1       2.122   5.437  20.678  0.00  0.00    +0.000 OA
BRANCH  14  15
ATOM     15  C   UNL     1       0.993   4.563  20.619  0.00  0.00    +0.000 C 
BRANCH  15  16
ATOM     16  C   UNL     1       1.347   3.268  21.327  0.00  0.00    +0.000 C 
BRANCH  16  17
ATOM     17  C   UNL     1       1.910   2.243  20.346  0.00  0.00    +0.000 C 
BRANCH  17  18
ATOM     18  C   UNL     1       1.209   2.321  18.993  0.00  0.00    +0.000 C 
BRANCH  18  20
ATOM     19  C   UNL     1       3.582   1.760  18.373  0.00  0.00    +0.000 C 
ATOM     20  C   UNL     1       2.196   2.095  17.849  0.00  0.00    +0.000 C 
ENDBRANCH  18  20
ENDBRANCH  17  18
ENDBRANCH  16  17
ENDBRANCH  15  16
ENDBRANCH  14  15
ENDBRANCH   1  14
TORSDOF 6
ENDMDL
MODEL 3
REMARK VINA RESULT:      -6.7      3.455      6.528
REMARK  Name = 
REMARK  7 active torsions:
REMARK  status: ('A' for Active; 'I' for Inactive)
REMARK    1  A    between atoms: C_1  and  C_2
REMARK    2  A    between atoms: C_2  and  C_3
REMARK    3  A    between atoms: C_3  and  C_4
REMARK    4  A    between atoms: C_4  and  C_5
REMARK    5  A    between atoms: C_5  and  C_6
REMARK    6  A    between atoms: C_6  and  O_7
REMARK    7  A    between atoms: O_7  and  C_8
REMARK                            x       y       z     vdW  Elec       q    Type
REMARK                         _______ _______ _______ _____ _____    ______ ____
ROOT
ATOM      1  C   UNL     1       5.404   5.285  15.820  0.00  0.00    +0.000 A 
ATOM      2  C   UNL     1       5.124   3.985  16.245  0.00  0.00    +0.000 A 
ATOM      3  C   UNL     1       4.249   3.758  17.301  0.00  0.00    +0.000 A 
ATOM      4  C   UNL     1       3.644   4.845  17.949  0.00  0.00    +0.000 A 
ATOM      5  C   UNL     1       3.910   6.157  17.535  0.00  0.00    +0.000 A 
ATOM      6  C   UNL     1       4.790   6.364  16.463  0.00  0.00    +0.000 A 
ATOM      7  C   UNL     1       3.304   7.362  18.211  0.00  0.00    +0.000 C 
ATOM      8  C   UNL     1       2.341   7.104  19.372  0.00  0.00    +0.000 C 
ATOM      9  C   UNL     1       2.138   5.676  19.700  0.00  0.00    +0.000 A 
ATOM     10  N   UNL     1       1.369   5.177  20.646  0.00  0.00    +0.000 NA
ATOM     11  N   UNL     1       1.491   3.810  20.604  0.00  0.00    +0.000 NA
ATOM     12  C   UNL     1       2.329   3.513  19.636  0.00  0.00    +0.000 A 
ATOM     13  N   UNL     1       2.762   4.660  19.025  0.00  0.00    +0.000 N 
ENDROOT
BRANCH   1  14
ATOM     14  O   UNL     1       6.272   5.610  14.815  0.00  0.00    +0.000 OA
BRANCH  14  15
ATOM     15  C   UNL     1       7.037   4.517  14.302  0.00  0.00    +0.000 C 
BRANCH  15  16
ATOM     16  C   UNL     1       7.103   4.641  12.790  0.00  0.00    +0.000 C 
BRANCH  16  17
ATOM     17  C   UNL     1       6.377   3.481  12.113  0.00  0.00    +0.000 C 
BRANCH  17  18
ATOM     18  C   UNL     1       4.864   3.616  12.246  0.00  0.00    +0.000 C 
BRANCH  18  20
ATOM     19  C   UNL     1       3.320   3.787  10.266  0.00  0.00    +0.000 C 
ATOM     20  C   UNL     1       4.145   2.853  11.135  0.00  0.00    +0.000 C 
ENDBRANCH  18  20
ENDBRANCH  17  18
ENDBRANCH  16  17
ENDBRANCH  15  16
ENDBRANCH  14  15
ENDBRANCH   1  14
TORSDOF 6
ENDMDL
MODEL 4
REMARK VINA RESULT:      -6.6      3.536      6.496
REMARK  Name = 
REMARK  7 active torsions:
REMARK  status: ('A' for Active; 'I' for Inactive)
REMARK    1  A    between atoms: C_1  and  C_2
REMARK    2  A    between atoms: C_2  and  C_3
REMARK    3  A    between atoms: C_3  and  C_4
REMARK    4  A    between atoms: C_4  and  C_5
REMARK    5  A    between atoms: C_5  and  C_6
REMARK    6  A    between atoms: C_6  and  O_7
REMARK    7  A    between atoms: O_7  and  C_8
REMARK                            x       y       z     vdW  Elec       q    Type
REMARK                         _______ _______ _______ _____ _____    ______ ____
ROOT
ATOM      1  C   UNL     1       5.249   4.313  16.088  0.00  0.00    +0.000 A 
ATOM      2  C   UNL     1       5.115   5.702  16.123  0.00  0.00    +0.000 A 
ATOM      3  C   UNL     1       4.328   6.313  17.092  0.00  0.00    +0.000 A 
ATOM      4  C   UNL     1       3.660   5.528  18.043  0.00  0.00    +0.000 A 
ATOM      5  C   UNL     1       3.784   4.132  18.025  0.00  0.00    +0.000 A 
ATOM      6  C   UNL     1       4.588   3.536  17.044  0.00  0.00    +0.000 A 
ATOM      7  C   UNL     1       3.069   3.239  19.009  0.00  0.00    +0.000 C 
ATOM      8  C   UNL     1       2.205   3.919  20.074  0.00  0.00    +0.000 C 
ATOM      9  C   UNL     1       2.168   5.396  19.988  0.00  0.00    +0.000 A 
ATOM     10  N   UNL     1       1.509   6.223  20.773  0.00  0.00    +0.000 NA
ATOM     11  N   UNL     1       1.747   7.499  20.325  0.00  0.00    +0.000 NA
ATOM     12  C   UNL     1       2.543   7.416  19.283  0.00  0.00    +0.000 A 
ATOM     13  N   UNL     1       2.848   6.104  19.032  0.00  0.00    +0.000 N 
ENDROOT
BRANCH   1  14
ATOM     14  O   UNL     1       5.973   3.620  15.157  0.00  0.00    +0.000 OA
BRANCH  14  15
ATOM     15  C   UNL     1       6.641   4.430  14.188  0.00  0.00    +0.000 C 
BRANCH  15  16
ATOM     16  C   UNL     1       6.412   3.828  12.813  0.00  0.00    +0.000 C 
BRANCH  16  17
ATOM     17  C   UNL     1       4.933   3.524  12.588  0.00  0.00    +0.000 C 
BRANCH  17  18
ATOM     18  C   UNL     1       4.685   2.955  11.195  0.00  0.00    +0.000 C 
BRANCH  18  20
ATOM     19  C   UNL     1       3.079   4.129   9.656  0.00  0.00    +0.000 C 
ATOM     20  C   UNL     1       3.223   3.123  10.785  0.00  0.00    +0.000 C 
ENDBRANCH  18  20
ENDBRANCH  17  18
ENDBRANCH  16  17
ENDBRANCH  15  16
ENDBRANCH  14  15
ENDBRANCH   1  14
TORSDOF 6
ENDMDL
MODEL 5
REMARK VINA RESULT:      -6.6      1.340      2.490
REMARK  Name = 
REMARK  7 active torsions:
REMARK  status: ('A' for Active; 'I' for Inactive)
REMARK    1  A    between atoms: C_1  and  C_2
REMARK    2  A    between atoms: C_2  and  C_3
REMARK    3  A    between atoms: C_3  and  C_4
REMARK    4  A    between atoms: C_4  and  C_5
REMARK    5  A    between atoms: C_5  and  C_6
REMARK    6  A    between atoms: C_6  and  O_7
REMARK    7  A    between atoms: O_7  and  C_8
REMARK                            x       y       z     vdW  Elec       q    Type
REMARK                         _______ _______ _______ _____ _____    ______ ____
ROOT
ATOM      1  C   UNL     1       3.640   2.526  18.646  0.00  0.00    +0.000 A 
ATOM      2  C   UNL     1       4.413   3.050  19.682  0.00  0.00    +0.000 A 
ATOM      3  C   UNL     1       5.355   4.042  19.431  0.00  0.00    +0.000 A 
ATOM      4  C   UNL     1       5.532   4.519  18.124  0.00  0.00    +0.000 A 
ATOM      5  C   UNL     1       4.763   4.006  17.071  0.00  0.00    +0.000 A 
ATOM      6  C   UNL     1       3.814   3.011  17.346  0.00  0.00    +0.000 A 
ATOM      7  C   UNL     1       4.928   4.467  15.644  0.00  0.00    +0.000 C 
ATOM      8  C   UNL     1       5.966   5.560  15.375  0.00  0.00    +0.000 C 
ATOM      9  C   UNL     1       6.701   6.020  16.574  0.00  0.00    +0.000 A 
ATOM     10  N   UNL     1       7.640   6.943  16.627  0.00  0.00    +0.000 NA
ATOM     11  N   UNL     1       8.053   7.041  17.933  0.00  0.00    +0.000 NA
ATOM     12  C   UNL     1       7.355   6.180  18.639  0.00  0.00    +0.000 A 
ATOM     13  N   UNL     1       6.477   5.512  17.827  0.00  0.00    +0.000 N 
ENDROOT
BRANCH   1  14
ATOM     14  O   UNL     1       2.714   1.529  18.787  0.00  0.00    +0.000 OA
BRANCH  14  15
ATOM     15  C   UNL     1       1.359   1.973  18.879  0.00  0.00    +0.000 C 
BRANCH  15  16
ATOM     16  C   UNL     1       1.168   2.672  20.214  0.00  0.00    +0.000 C 
BRANCH  16  17
ATOM     17  C   UNL     1       0.820   4.145  20.016  0.00  0.00    +0.000 C 
BRANCH  17  18
ATOM     18  C   UNL     1       1.762   5.051  20.802  0.00  0.00    +0.000 C 
BRANCH  18  20
ATOM     19  C   UNL     1       2.038   5.897  18.448  0.00  0.00    +0.000 C 
ATOM     20  C   UNL     1       2.315   6.167  19.917  0.00  0.00    +0.000 C 
ENDBRANCH  18  20
ENDBRANCH  17  18
ENDBRANCH  16  17
ENDBRANCH  15  16
ENDBRANCH  14  15
ENDBRANCH   1  14
TORSDOF 6
ENDMDL
MODEL 6
REMARK VINA RESULT:      -6.6      1.774      3.105
REMARK  Name = 
REMARK  7 active torsions:
REMARK  status: ('A' for Active; 'I' for Inactive)
REMARK    1  A    between atoms: C_1  and  C_2
REMARK    2  A    between atoms: C_2  and  C_3
REMARK    3  A    between atoms: C_3  and  C_4
REMARK    4  A    between atoms: C_4  and  C_5
REMARK    5  A    between atoms: C_5  and  C_6
REMARK    6  A    between atoms: C_6  and  O_7
REMARK    7  A    between atoms: O_7  and  C_8
REMARK                            x       y       z     vdW  Elec       q    Type
REMARK                         _______ _______ _______ _____ _____    ______ ____
ROOT
ATOM      1  C   UNL     1       1.989   4.352  17.621  0.00  0.00    +0.000 A 
ATOM      2  C   UNL     1       2.177   5.652  18.091  0.00  0.00    +0.000 A 
ATOM      3  C   UNL     1       3.394   6.300  17.914  0.00  0.00    +0.000 A 
ATOM      4  C   UNL     1       4.444   5.641  17.259  0.00  0.00    +0.000 A 
ATOM      5  C   UNL     1       4.273   4.336  16.778  0.00  0.00    +0.000 A 
ATOM      6  C   UNL     1       3.036   3.703  16.960  0.00  0.00    +0.000 A 
ATOM      7  C   UNL     1       5.376   3.573  16.086  0.00  0.00    +0.000 C 
ATOM      8  C   UNL     1       6.713   4.293  15.893  0.00  0.00    +0.000 C 
ATOM      9  C   UNL     1       6.757   5.668  16.438  0.00  0.00    +0.000 A 
ATOM     10  N   UNL     1       7.775   6.504  16.409  0.00  0.00    +0.000 NA
ATOM     11  N   UNL     1       7.382   7.660  17.037  0.00  0.00    +0.000 NA
ATOM     12  C   UNL     1       6.138   7.498  17.430  0.00  0.00    +0.000 A 
ATOM     13  N   UNL     1       5.691   6.255  17.067  0.00  0.00    +0.000 N 
ENDROOT
BRANCH   1  14
ATOM     14  O   UNL     1       0.842   3.622  17.775  0.00  0.00    +0.000 OA
BRANCH  14  15
ATOM     15  C   UNL     1       0.955   2.502  18.655  0.00  0.00    +0.000 C 
BRANCH  15  16
ATOM     16  C   UNL     1       0.660   2.967  20.070  0.00  0.00    +0.000 C 
BRANCH  16  17
ATOM     17  C   UNL     1       1.789   2.576  21.021  0.00  0.00    +0.000 C 
BRANCH  17  18
ATOM     18  C   UNL     1       2.732   3.746  21.280  0.00  0.00    +0.000 C 
BRANCH  18  20
ATOM     19  C   UNL     1       4.320   2.163  20.140  0.00  0.00    +0.000 C 
ATOM     20  C   UNL     1       4.009   3.617  20.451  0.00  0.00    +0.000 C 
ENDBRANCH  18  20
ENDBRANCH  17  18
ENDBRANCH  16  17
ENDBRANCH  15  16
ENDBRANCH  14  15
ENDBRANCH   1  14
TORSDOF 6
ENDMDL
MODEL 7
REMARK VINA RESULT:      -6.5      3.419      6.745
REMARK  Name = 
REMARK  7 active torsions:
REMARK  status: ('A' for Active; 'I' for Inactive)
REMARK    1  A    between atoms: C_1  and  C_2
REMARK    2  A    between atoms: C_2  and  C_3
REMARK    3  A    between atoms: C_3  and  C_4
REMARK    4  A    between atoms: C_4  and  C_5
REMARK    5  A    between atoms: C_5  and  C_6
REMARK    6  A    between atoms: C_6  and  O_7
REMARK    7  A    between atoms: O_7  and  C_8
REMARK                            x       y       z     vdW  Elec       q    Type
REMARK                         _______ _______ _______ _____ _____    ______ ____
ROOT
ATOM      1  C   UNL     1       5.292   5.655  16.050  0.00  0.00    +0.000 A 
ATOM      2  C   UNL     1       4.719   6.632  16.865  0.00  0.00    +0.000 A 
ATOM      3  C   UNL     1       3.826   6.280  17.872  0.00  0.00    +0.000 A 
ATOM      4  C   UNL     1       3.496   4.931  18.069  0.00  0.00    +0.000 A 
ATOM      5  C   UNL     1       4.063   3.936  17.261  0.00  0.00    +0.000 A 
ATOM      6  C   UNL     1       4.966   4.310  16.257  0.00  0.00    +0.000 A 
ATOM      7  C   UNL     1       3.725   2.473  17.415  0.00  0.00    +0.000 C 
ATOM      8  C   UNL     1       2.743   2.093  18.526  0.00  0.00    +0.000 C 
ATOM      9  C   UNL     1       2.227   3.237  19.311  0.00  0.00    +0.000 A 
ATOM     10  N   UNL     1       1.376   3.194  20.316  0.00  0.00    +0.000 NA
ATOM     11  N   UNL     1       1.167   4.484  20.739  0.00  0.00    +0.000 NA
ATOM     12  C   UNL     1       1.894   5.275  19.983  0.00  0.00    +0.000 A 
ATOM     13  N   UNL     1       2.593   4.534  19.067  0.00  0.00    +0.000 N 
ENDROOT
BRANCH   1  14
ATOM     14  O   UNL     1       6.152   5.904  15.016  0.00  0.00    +0.000 OA
BRANCH  14  15
ATOM     15  C   UNL     1       6.875   4.764  14.546  0.00  0.00    +0.000 C 
BRANCH  15  16
ATOM     16  C   UNL     1       7.503   5.109  13.207  0.00  0.00    +0.000 C 
BRANCH  16  17
ATOM     17  C   UNL     1       7.055   4.130  12.124  0.00  0.00    +0.000 C 
BRANCH  17  18
ATOM     18  C   UNL     1       5.842   3.321  12.570  0.00  0.00    +0.000 C 
BRANCH  18  20
ATOM     19  C   UNL     1       6.031   1.181  11.261  0.00  0.00    +0.000 C 
ATOM     20  C   UNL     1       5.280   2.492  11.416  0.00  0.00    +0.000 C 
ENDBRANCH  18  20
ENDBRANCH  17  18
ENDBRANCH  16  17
ENDBRANCH  15  16
ENDBRANCH  14  15
ENDBRANCH   1  14
TORSDOF 6
ENDMDL
MODEL 8
REMARK VINA RESULT:      -6.5      3.480      6.611
REMARK  Name = 
REMARK  7 active torsions:
REMARK  status: ('A' for Active; 'I' for Inactive)
REMARK    1  A    between atoms: C_1  and  C_2
REMARK    2  A    between atoms: C_2  and  C_3
REMARK    3  A    between atoms: C_3  and  C_4
REMARK    4  A    between atoms: C_4  and  C_5
REMARK    5  A    between atoms: C_5  and  C_6
REMARK    6  A    between atoms: C_6  and  O_7
REMARK    7  A    between atoms: O_7  and  C_8
REMARK                            x       y       z     vdW  Elec       q    Type
REMARK                         _______ _______ _______ _____ _____    ______ ____
ROOT
ATOM      1  C   UNL     1       5.112   5.476  16.071  0.00  0.00    +0.000 A 
ATOM      2  C   UNL     1       4.565   6.432  16.928  0.00  0.00    +0.000 A 
ATOM      3  C   UNL     1       3.719   6.053  17.964  0.00  0.00    +0.000 A 
ATOM      4  C   UNL     1       3.410   4.698  18.150  0.00  0.00    +0.000 A 
ATOM      5  C   UNL     1       3.952   3.723  17.301  0.00  0.00    +0.000 A 
ATOM      6  C   UNL     1       4.809   4.125  16.266  0.00  0.00    +0.000 A 
ATOM      7  C   UNL     1       3.635   2.255  17.442  0.00  0.00    +0.000 C 
ATOM      8  C   UNL     1       2.704   1.844  18.586  0.00  0.00    +0.000 C 
ATOM      9  C   UNL     1       2.211   2.968  19.413  0.00  0.00    +0.000 A 
ATOM     10  N   UNL     1       1.404   2.898  20.452  0.00  0.00    +0.000 NA
ATOM     11  N   UNL     1       1.200   4.178  20.906  0.00  0.00    +0.000 NA
ATOM     12  C   UNL     1       1.888   4.991  20.136  0.00  0.00    +0.000 A 
ATOM     13  N   UNL     1       2.554   4.274  19.177  0.00  0.00    +0.000 N 
ENDROOT
BRANCH   1  14
ATOM     14  O   UNL     1       5.926   5.753  15.007  0.00  0.00    +0.000 OA
BRANCH  14  15
ATOM     15  C   UNL     1       6.926   4.768  14.741  0.00  0.00    +0.000 C 
BRANCH  15  16
ATOM     16  C   UNL     1       6.993   4.539  13.241  0.00  0.00    +0.000 C 
BRANCH  16  17
ATOM     17  C   UNL     1       5.986   3.479  12.804  0.00  0.00    +0.000 C 
BRANCH  17  18
ATOM     18  C   UNL     1       5.273   3.884  11.517  0.00  0.00    +0.000 C 
BRANCH  18  20
ATOM     19  C   UNL     1       3.224   3.550  10.096  0.00  0.00    +0.000 C 
ATOM     20  C   UNL     1       3.962   3.118  11.351  0.00  0.00    +0.000 C 
ENDBRANCH  18  20
ENDBRANCH  17  18
ENDBRANCH  16  17
ENDBRANCH  15  16
ENDBRANCH  14  15
ENDBRANCH   1  14
TORSDOF 6
ENDMDL
MODEL 9
REMARK VINA RESULT:      -6.5      3.438      6.631
REMARK  Name = 
REMARK  7 active torsions:
REMARK  status: ('A' for Active; 'I' for Inactive)
REMARK    1  A    between atoms: C_1  and  C_2
REMARK    2  A    between atoms: C_2  and  C_3
REMARK    3  A    between atoms: C_3  and  C_4
REMARK    4  A    between atoms: C_4  and  C_5
REMARK    5  A    between atoms: C_5  and  C_6
REMARK    6  A    between atoms: C_6  and  O_7
REMARK    7  A    between atoms: O_7  and  C_8
REMARK                            x       y       z     vdW  Elec       q    Type
REMARK                         _______ _______ _______ _____ _____    ______ ____
ROOT
ATOM      1  C   UNL     1       4.999   5.281  16.433  0.00  0.00    +0.000 A 
ATOM      2  C   UNL     1       4.862   3.899  16.567  0.00  0.00    +0.000 A 
ATOM      3  C   UNL     1       4.054   3.361  17.562  0.00  0.00    +0.000 A 
ATOM      4  C   UNL     1       3.373   4.214  18.442  0.00  0.00    +0.000 A 
ATOM      5  C   UNL     1       3.496   5.604  18.322  0.00  0.00    +0.000 A 
ATOM      6  C   UNL     1       4.310   6.127  17.307  0.00  0.00    +0.000 A 
ATOM      7  C   UNL     1       2.803   6.566  19.255  0.00  0.00    +0.000 C 
ATOM      8  C   UNL     1       1.915   5.966  20.348  0.00  0.00    +0.000 C 
ATOM      9  C   UNL     1       1.863   4.488  20.358  0.00  0.00    +0.000 A 
ATOM     10  N   UNL     1       1.182   3.720  21.184  0.00  0.00    +0.000 NA
ATOM     11  N   UNL     1       1.434   2.414  20.842  0.00  0.00    +0.000 NA
ATOM     12  C   UNL     1       2.258   2.421  19.818  0.00  0.00    +0.000 A 
ATOM     13  N   UNL     1       2.555   3.711  19.466  0.00  0.00    +0.000 N 
ENDROOT
BRANCH   1  14
ATOM     14  O   UNL     1       5.793   5.904  15.509  0.00  0.00    +0.000 OA
BRANCH  14  15
ATOM     15  C   UNL     1       7.021   5.232  15.220  0.00  0.00    +0.000 C 
BRANCH  15  16
ATOM     16  C   UNL     1       7.084   4.961  13.727  0.00  0.00    +0.000 C 
BRANCH  16  17
ATOM     17  C   UNL     1       6.270   3.722  13.362  0.00  0.00    +0.000 C 
BRANCH  17  18
ATOM     18  C   UNL     1       6.412   3.377  11.883  0.00  0.00    +0.000 C 
BRANCH  18  20
ATOM     19  C   UNL     1       6.325   0.984  11.111  0.00  0.00    +0.000 C 
ATOM     20  C   UNL     1       5.509   2.204  11.503  0.00  0.00    +0.000 C 
ENDBRANCH  18  20
ENDBRANCH  17  18
ENDBRANCH  16  17
ENDBRANCH  15  16
ENDBRANCH  14  15
ENDBRANCH   1  14
TORSDOF 6
ENDMDL
