MODEL 1
REMARK VINA RESULT:      -5.3      0.000      0.000
REMARK  Name = 
REMARK  6 active torsions:
REMARK  status: ('A' for Active; 'I' for Inactive)
REMARK    1  A    between atoms: C_2  and  O_3
REMARK    2  A    between atoms: C_2  and  C_4
REMARK    3  A    between atoms: C_8  and  C_9
REMARK    4  A    between atoms: C_9  and  C_11
REMARK    5  A    between atoms: C_11  and  C_12
REMARK    6  A    between atoms: C_12  and  S_13
REMARK                            x       y       z     vdW  Elec       q    Type
REMARK                         _______ _______ _______ _____ _____    ______ ____
ROOT
ATOM      1  C   UNL     1       6.867   4.762  18.150  0.00  0.00    +0.000 C 
ATOM      2  C   UNL     1       7.363   4.766  16.699  0.00  0.00    +0.000 C 
ATOM      3  C   UNL     1       6.254   4.107  15.893  0.00  0.00    +0.000 C 
ATOM      4  C   UNL     1       4.991   4.239  16.735  0.00  0.00    +0.000 C 
ATOM      5  C   UNL     1       5.373   5.060  17.969  0.00  0.00    +0.000 C 
ENDROOT
BRANCH   1   7
ATOM      6  O   UNL     1       8.005   6.869  18.548  0.00  0.00    +0.000 OA
ATOM      7  C   UNL     1       7.592   5.804  18.982  0.00  0.00    +0.000 C 
BRANCH   7   8
ATOM      8  O   UNL     1       7.780   5.442  20.267  0.00  0.00    +0.000 OA
ATOM      9  H   UNL     1       7.261   5.968  20.924  0.00  0.00    +0.000 HD
ENDBRANCH   7   8
ENDBRANCH   1   7
BRANCH   5  10
ATOM     10  C   UNL     1       4.519   4.678  19.171  0.00  0.00    +0.000 C 
ATOM     11  O   UNL     1       3.882   5.534  19.787  0.00  0.00    +0.000 OA
BRANCH  10  12
ATOM     12  C   UNL     1       4.459   3.198  19.510  0.00  0.00    +0.000 C 
BRANCH  12  13
ATOM     13  C   UNL     1       3.112   2.777  20.076  0.00  0.00    +0.000 C 
BRANCH  13  14
ATOM     14  S   UNL     1       1.980   2.366  18.712  0.00  0.00    +0.000 S 
ATOM     15  H   UNL     1       1.777   3.619  18.277  0.00  0.00    +0.000 HD
ENDBRANCH  13  14
ENDBRANCH  12  13
ENDBRANCH  10  12
ENDBRANCH   5  10
TORSDOF 6
ENDMDL
MODEL 2
REMARK VINA RESULT:      -5.2      3.472      5.034
REMARK  Name = 
REMARK  6 active torsions:
REMARK  status: ('A' for Active; 'I' for Inactive)
REMARK    1  A    between atoms: C_2  and  O_3
REMARK    2  A    between atoms: C_2  and  C_4
REMARK    3  A    between atoms: C_8  and  C_9
REMARK    4  A    between atoms: C_9  and  C_11
REMARK    5  A    between atoms: C_11  and  C_12
REMARK    6  A    between atoms: C_12  and  S_13
REMARK                            x       y       z     vdW  Elec       q    Type
REMARK                         _______ _______ _______ _____ _____    ______ ____
ROOT
ATOM      1  C   UNL     1       3.192   3.400  20.243  0.00  0.00    +0.000 C 
ATOM      2  C   UNL     1       2.854   2.436  21.386  0.00  0.00    +0.000 C 
ATOM      3  C   UNL     1       1.375   2.650  21.670  0.00  0.00    +0.000 C 
ATOM      4  C   UNL     1       0.793   3.272  20.407  0.00  0.00    +0.000 C 
ATOM      5  C   UNL     1       1.927   3.313  19.379  0.00  0.00    +0.000 C 
ENDROOT
BRANCH   1   7
ATOM      6  O   UNL     1       5.450   3.659  19.391  0.00  0.00    +0.000 OA
ATOM      7  C   UNL     1       4.451   2.968  19.512  0.00  0.00    +0.000 C 
BRANCH   7   8
ATOM      8  O   UNL     1       4.368   1.738  18.964  0.00  0.00    +0.000 OA
ATOM      9  H   UNL     1       3.854   1.083  19.496  0.00  0.00    +0.000 HD
ENDBRANCH   7   8
ENDBRANCH   1   7
BRANCH   5  10
ATOM     10  C   UNL     1       1.757   4.481  18.417  0.00  0.00    +0.000 C 
ATOM     11  O   UNL     1       1.266   4.311  17.300  0.00  0.00    +0.000 OA
BRANCH  10  12
ATOM     12  C   UNL     1       2.166   5.849  18.941  0.00  0.00    +0.000 C 
BRANCH  12  13
ATOM     13  C   UNL     1       3.078   6.599  17.984  0.00  0.00    +0.000 C 
BRANCH  13  14
ATOM     14  S   UNL     1       2.517   8.323  17.831  0.00  0.00    +0.000 S 
ATOM     15  H   UNL     1       3.579   8.899  18.415  0.00  0.00    +0.000 HD
ENDBRANCH  13  14
ENDBRANCH  12  13
ENDBRANCH  10  12
ENDBRANCH   5  10
TORSDOF 6
ENDMDL
MODEL 3
REMARK VINA RESULT:      -5.2      1.092      1.199
REMARK  Name = 
REMARK  6 active torsions:
REMARK  status: ('A' for Active; 'I' for Inactive)
REMARK    1  A    between atoms: C_2  and  O_3
REMARK    2  A    between atoms: C_2  and  C_4
REMARK    3  A    between atoms: C_8  and  C_9
REMARK    4  A    between atoms: C_9  and  C_11
REMARK    5  A    between atoms: C_11  and  C_12
REMARK    6  A    between atoms: C_12  and  S_13
REMARK                            x       y       z     vdW  Elec       q    Type
REMARK                         _______ _______ _______ _____ _____    ______ ____
ROOT
ATOM      1  C   UNL     1       6.996   4.726  17.883  0.00  0.00    +0.000 C 
ATOM      2  C   UNL     1       7.358   4.827  16.397  0.00  0.00    +0.000 C 
ATOM      3  C   UNL     1       6.260   4.075  15.662  0.00  0.00    +0.000 C 
ATOM      4  C   UNL     1       5.069   4.041  16.611  0.00  0.00    +0.000 C 
ATOM      5  C   UNL     1       5.468   4.862  17.840  0.00  0.00    +0.000 C 
ENDROOT
BRANCH   1   7
ATOM      6  O   UNL     1       7.870   6.953  18.290  0.00  0.00    +0.000 OA
ATOM      7  C   UNL     1       7.675   5.816  18.692  0.00  0.00    +0.000 C 
BRANCH   7   8
ATOM      8  O   UNL     1       8.086   5.415  19.911  0.00  0.00    +0.000 OA
ATOM      9  H   UNL     1       9.051   5.541  20.084  0.00  0.00    +0.000 HD
ENDBRANCH   7   8
ENDBRANCH   1   7
BRANCH   5  10
ATOM     10  C   UNL     1       4.769   4.353  19.095  0.00  0.00    +0.000 C 
ATOM     11  O   UNL     1       5.125   3.303  19.631  0.00  0.00    +0.000 OA
BRANCH  10  12
ATOM     12  C   UNL     1       3.673   5.241  19.660  0.00  0.00    +0.000 C 
BRANCH  12  13
ATOM     13  C   UNL     1       2.378   4.488  19.918  0.00  0.00    +0.000 C 
BRANCH  13  14
ATOM     14  S   UNL     1       1.634   3.992  18.334  0.00  0.00    +0.000 S 
ATOM     15  H   UNL     1       0.510   4.717  18.441  0.00  0.00    +0.000 HD
ENDBRANCH  13  14
ENDBRANCH  12  13
ENDBRANCH  10  12
ENDBRANCH   5  10
TORSDOF 6
ENDMDL
MODEL 4
REMARK VINA RESULT:      -5.2      3.139      4.816
REMARK  Name = 
REMARK  6 active torsions:
REMARK  status: ('A' for Active; 'I' for Inactive)
REMARK    1  A    between atoms: C_2  and  O_3
REMARK    2  A    between atoms: C_2  and  C_4
REMARK    3  A    between atoms: C_8  and  C_9
REMARK    4  A    between atoms: C_9  and  C_11
REMARK    5  A    between atoms: C_11  and  C_12
REMARK    6  A    between atoms: C_12  and  S_13
REMARK                            x       y       z     vdW  Elec       q    Type
REMARK                         _______ _______ _______ _____ _____    ______ ____
ROOT
ATOM      1  C   UNL     1       3.315   2.910  19.229  0.00  0.00    +0.000 C 
ATOM      2  C   UNL     1       1.866   2.457  19.439  0.00  0.00    +0.000 C 
ATOM      3  C   UNL     1       1.018   3.432  18.639  0.00  0.00    +0.000 C 
ATOM      4  C   UNL     1       1.950   4.041  17.599  0.00  0.00    +0.000 C 
ATOM      5  C   UNL     1       3.298   3.332  17.753  0.00  0.00    +0.000 C 
ENDROOT
BRANCH   1   7
ATOM      6  O   UNL     1       5.061   1.771  20.472  0.00  0.00    +0.000 OA
ATOM      7  C   UNL     1       4.293   1.787  19.522  0.00  0.00    +0.000 C 
BRANCH   7   8
ATOM      8  O   UNL     1       4.270   0.793  18.611  0.00  0.00    +0.000 OA
ATOM      9  H   UNL     1       4.001  -0.089  18.968  0.00  0.00    +0.000 HD
ENDBRANCH   7   8
ENDBRANCH   1   7
BRANCH   5  10
ATOM     10  C   UNL     1       4.451   4.246  17.360  0.00  0.00    +0.000 C 
ATOM     11  O   UNL     1       5.041   4.090  16.291  0.00  0.00    +0.000 OA
BRANCH  10  12
ATOM     12  C   UNL     1       4.772   5.376  18.325  0.00  0.00    +0.000 C 
BRANCH  12  13
ATOM     13  C   UNL     1       6.135   5.222  18.981  0.00  0.00    +0.000 C 
BRANCH  13  14
ATOM     14  S   UNL     1       7.349   6.266  18.118  0.00  0.00    +0.000 S 
ATOM     15  H   UNL     1       6.510   7.258  17.780  0.00  0.00    +0.000 HD
ENDBRANCH  13  14
ENDBRANCH  12  13
ENDBRANCH  10  12
ENDBRANCH   5  10
TORSDOF 6
ENDMDL
MODEL 5
REMARK VINA RESULT:      -5.2      2.777      4.509
REMARK  Name = 
REMARK  6 active torsions:
REMARK  status: ('A' for Active; 'I' for Inactive)
REMARK    1  A    between atoms: C_2  and  O_3
REMARK    2  A    between atoms: C_2  and  C_4
REMARK    3  A    between atoms: C_8  and  C_9
REMARK    4  A    between atoms: C_9  and  C_11
REMARK    5  A    between atoms: C_11  and  C_12
REMARK    6  A    between atoms: C_12  and  S_13
REMARK                            x       y       z     vdW  Elec       q    Type
REMARK                         _______ _______ _______ _____ _____    ______ ____
ROOT
ATOM      1  C   UNL     1       3.623   3.674  19.062  0.00  0.00    +0.000 C 
ATOM      2  C   UNL     1       2.196   3.774  18.508  0.00  0.00    +0.000 C 
ATOM      3  C   UNL     1       2.058   5.203  18.008  0.00  0.00    +0.000 C 
ATOM      4  C   UNL     1       3.477   5.704  17.776  0.00  0.00    +0.000 C 
ATOM      5  C   UNL     1       4.408   4.520  18.052  0.00  0.00    +0.000 C 
ENDROOT
BRANCH   1   7
ATOM      6  O   UNL     1       3.618   1.322  18.459  0.00  0.00    +0.000 OA
ATOM      7  C   UNL     1       4.088   2.230  19.128  0.00  0.00    +0.000 C 
BRANCH   7   8
ATOM      8  O   UNL     1       5.066   2.014  20.030  0.00  0.00    +0.000 OA
ATOM      9  H   UNL     1       5.483   1.119  19.981  0.00  0.00    +0.000 HD
ENDBRANCH   7   8
ENDBRANCH   1   7
BRANCH   5  10
ATOM     10  C   UNL     1       5.763   4.992  18.565  0.00  0.00    +0.000 C 
ATOM     11  O   UNL     1       6.070   4.853  19.749  0.00  0.00    +0.000 OA
BRANCH  10  12
ATOM     12  C   UNL     1       6.710   5.571  17.526  0.00  0.00    +0.000 C 
BRANCH  12  13
ATOM     13  C   UNL     1       7.317   4.508  16.625  0.00  0.00    +0.000 C 
BRANCH  13  14
ATOM     14  S   UNL     1       6.690   4.715  14.929  0.00  0.00    +0.000 S 
ATOM     15  H   UNL     1       6.422   6.028  15.008  0.00  0.00    +0.000 HD
ENDBRANCH  13  14
ENDBRANCH  12  13
ENDBRANCH  10  12
ENDBRANCH   5  10
TORSDOF 6
ENDMDL
MODEL 6
REMARK VINA RESULT:      -5.2      2.038      2.615
REMARK  Name = 
REMARK  6 active torsions:
REMARK  status: ('A' for Active; 'I' for Inactive)
REMARK    1  A    between atoms: C_2  and  O_3
REMARK    2  A    between atoms: C_2  and  C_4
REMARK    3  A    between atoms: C_8  and  C_9
REMARK    4  A    between atoms: C_9  and  C_11
REMARK    5  A    between atoms: C_11  and  C_12
REMARK    6  A    between atoms: C_12  and  S_13
REMARK                            x       y       z     vdW  Elec       q    Type
REMARK                         _______ _______ _______ _____ _____    ______ ____
ROOT
ATOM      1  C   UNL     1       5.638   5.186  16.784  0.00  0.00    +0.000 C 
ATOM      2  C   UNL     1       5.474   6.692  16.547  0.00  0.00    +0.000 C 
ATOM      3  C   UNL     1       4.187   7.075  17.261  0.00  0.00    +0.000 C 
ATOM      4  C   UNL     1       3.945   5.985  18.298  0.00  0.00    +0.000 C 
ATOM      5  C   UNL     1       5.151   5.045  18.232  0.00  0.00    +0.000 C 
ENDROOT
BRANCH   1   7
ATOM      6  O   UNL     1       7.841   4.460  17.498  0.00  0.00    +0.000 OA
ATOM      7  C   UNL     1       7.079   4.751  16.589  0.00  0.00    +0.000 C 
BRANCH   7   8
ATOM      8  O   UNL     1       7.476   4.741  15.300  0.00  0.00    +0.000 OA
ATOM      9  H   UNL     1       6.958   4.137  14.714  0.00  0.00    +0.000 HD
ENDBRANCH   7   8
ENDBRANCH   1   7
BRANCH   5  10
ATOM     10  C   UNL     1       4.762   3.622  18.615  0.00  0.00    +0.000 C 
ATOM     11  O   UNL     1       5.165   3.121  19.665  0.00  0.00    +0.000 OA
BRANCH  10  12
ATOM     12  C   UNL     1       3.814   2.906  17.666  0.00  0.00    +0.000 C 
BRANCH  12  13
ATOM     13  C   UNL     1       2.956   1.865  18.365  0.00  0.00    +0.000 C 
BRANCH  13  14
ATOM     14  S   UNL     1       1.326   2.577  18.751  0.00  0.00    +0.000 S 
ATOM     15  H   UNL     1       0.590   1.707  18.042  0.00  0.00    +0.000 HD
ENDBRANCH  13  14
ENDBRANCH  12  13
ENDBRANCH  10  12
ENDBRANCH   5  10
TORSDOF 6
ENDMDL
MODEL 7
REMARK VINA RESULT:      -5.2      3.782      5.362
REMARK  Name = 
REMARK  6 active torsions:
REMARK  status: ('A' for Active; 'I' for Inactive)
REMARK    1  A    between atoms: C_2  and  O_3
REMARK    2  A    between atoms: C_2  and  C_4
REMARK    3  A    between atoms: C_8  and  C_9
REMARK    4  A    between atoms: C_9  and  C_11
REMARK    5  A    between atoms: C_11  and  C_12
REMARK    6  A    between atoms: C_12  and  S_13
REMARK                            x       y       z     vdW  Elec       q    Type
REMARK                         _______ _______ _______ _____ _____    ______ ____
ROOT
ATOM      1  C   UNL     1       2.338   4.594  20.224  0.00  0.00    +0.000 C 
ATOM      2  C   UNL     1       1.879   5.992  20.658  0.00  0.00    +0.000 C 
ATOM      3  C   UNL     1       2.295   6.921  19.528  0.00  0.00    +0.000 C 
ATOM      4  C   UNL     1       2.464   6.036  18.300  0.00  0.00    +0.000 C 
ATOM      5  C   UNL     1       2.045   4.624  18.719  0.00  0.00    +0.000 C 
ENDROOT
BRANCH   1   7
ATOM      6  O   UNL     1       1.974   2.957  21.978  0.00  0.00    +0.000 OA
ATOM      7  C   UNL     1       1.576   3.510  20.964  0.00  0.00    +0.000 C 
BRANCH   7   8
ATOM      8  O   UNL     1       0.408   3.172  20.384  0.00  0.00    +0.000 OA
ATOM      9  H   UNL     1      -0.041   3.907  19.899  0.00  0.00    +0.000 HD
ENDBRANCH   7   8
ENDBRANCH   1   7
BRANCH   5  10
ATOM     10  C   UNL     1       2.799   3.566  17.923  0.00  0.00    +0.000 C 
ATOM     11  O   UNL     1       2.191   2.697  17.299  0.00  0.00    +0.000 OA
BRANCH  10  12
ATOM     12  C   UNL     1       4.314   3.694  17.902  0.00  0.00    +0.000 C 
BRANCH  12  13
ATOM     13  C   UNL     1       4.868   3.903  16.502  0.00  0.00    +0.000 C 
BRANCH  13  14
ATOM     14  S   UNL     1       5.976   5.346  16.493  0.00  0.00    +0.000 S 
ATOM     15  H   UNL     1       5.030   6.287  16.634  0.00  0.00    +0.000 HD
ENDBRANCH  13  14
ENDBRANCH  12  13
ENDBRANCH  10  12
ENDBRANCH   5  10
TORSDOF 6
ENDMDL
MODEL 8
REMARK VINA RESULT:      -5.2      2.948      4.664
REMARK  Name = 
REMARK  6 active torsions:
REMARK  status: ('A' for Active; 'I' for Inactive)
REMARK    1  A    between atoms: C_2  and  O_3
REMARK    2  A    between atoms: C_2  and  C_4
REMARK    3  A    between atoms: C_8  and  C_9
REMARK    4  A    between atoms: C_9  and  C_11
REMARK    5  A    between atoms: C_11  and  C_12
REMARK    6  A    between atoms: C_12  and  S_13
REMARK                            x       y       z     vdW  Elec       q    Type
REMARK                         _______ _______ _______ _____ _____    ______ ____
ROOT
ATOM      1  C   UNL     1       3.740   3.761  19.112  0.00  0.00    +0.000 C 
ATOM      2  C   UNL     1       2.332   4.052  18.580  0.00  0.00    +0.000 C 
ATOM      3  C   UNL     1       2.378   5.487  18.081  0.00  0.00    +0.000 C 
ATOM      4  C   UNL     1       3.849   5.794  17.827  0.00  0.00    +0.000 C 
ATOM      5  C   UNL     1       4.616   4.496  18.090  0.00  0.00    +0.000 C 
ENDROOT
BRANCH   1   7
ATOM      6  O   UNL     1       3.353   1.424  18.581  0.00  0.00    +0.000 OA
ATOM      7  C   UNL     1       4.009   2.268  19.173  0.00  0.00    +0.000 C 
BRANCH   7   8
ATOM      8  O   UNL     1       5.037   1.932  19.977  0.00  0.00    +0.000 OA
ATOM      9  H   UNL     1       4.800   1.833  20.932  0.00  0.00    +0.000 HD
ENDBRANCH   7   8
ENDBRANCH   1   7
BRANCH   5  10
ATOM     10  C   UNL     1       6.030   4.781  18.583  0.00  0.00    +0.000 C 
ATOM     11  O   UNL     1       6.250   4.985  19.777  0.00  0.00    +0.000 OA
BRANCH  10  12
ATOM     12  C   UNL     1       7.129   4.733  17.534  0.00  0.00    +0.000 C 
BRANCH  12  13
ATOM     13  C   UNL     1       7.110   5.935  16.605  0.00  0.00    +0.000 C 
BRANCH  13  14
ATOM     14  S   UNL     1       7.500   7.442  17.547  0.00  0.00    +0.000 S 
ATOM     15  H   UNL     1       8.348   6.879  18.422  0.00  0.00    +0.000 HD
ENDBRANCH  13  14
ENDBRANCH  12  13
ENDBRANCH  10  12
ENDBRANCH   5  10
TORSDOF 6
ENDMDL
MODEL 9
REMARK VINA RESULT:      -5.2      3.086      5.584
REMARK  Name = 
REMARK  6 active torsions:
REMARK  status: ('A' for Active; 'I' for Inactive)
REMARK    1  A    between atoms: C_2  and  O_3
REMARK    2  A    between atoms: C_2  and  C_4
REMARK    3  A    between atoms: C_8  and  C_9
REMARK    4  A    between atoms: C_9  and  C_11
REMARK    5  A    between atoms: C_11  and  C_12
REMARK    6  A    between atoms: C_12  and  S_13
REMARK                            x       y       z     vdW  Elec       q    Type
REMARK                         _______ _______ _______ _____ _____    ______ ____
ROOT
ATOM      1  C   UNL     1       2.115   3.336  19.682  0.00  0.00    +0.000 C 
ATOM      2  C   UNL     1       1.038   4.207  20.340  0.00  0.00    +0.000 C 
ATOM      3  C   UNL     1       1.736   5.511  20.693  0.00  0.00    +0.000 C 
ATOM      4  C   UNL     1       2.961   5.588  19.791  0.00  0.00    +0.000 C 
ATOM      5  C   UNL     1       2.895   4.372  18.863  0.00  0.00    +0.000 C 
ENDROOT
BRANCH   1   7
ATOM      6  O   UNL     1       0.315   2.195  18.520  0.00  0.00    +0.000 OA
ATOM      7  C   UNL     1       1.495   2.241  18.833  0.00  0.00    +0.000 C 
BRANCH   7   8
ATOM      8  O   UNL     1       2.364   1.277  18.467  0.00  0.00    +0.000 OA
ATOM      9  H   UNL     1       3.008   1.546  17.767  0.00  0.00    +0.000 HD
ENDBRANCH   7   8
ENDBRANCH   1   7
BRANCH   5  10
ATOM     10  C   UNL     1       4.290   3.913  18.456  0.00  0.00    +0.000 C 
ATOM     11  O   UNL     1       5.049   3.403  19.280  0.00  0.00    +0.000 OA
BRANCH  10  12
ATOM     12  C   UNL     1       4.645   4.063  16.985  0.00  0.00    +0.000 C 
BRANCH  12  13
ATOM     13  C   UNL     1       4.971   5.498  16.602  0.00  0.00    +0.000 C 
BRANCH  13  14
ATOM     14  S   UNL     1       6.769   5.762  16.701  0.00  0.00    +0.000 S 
ATOM     15  H   UNL     1       7.010   5.778  15.381  0.00  0.00    +0.000 HD
ENDBRANCH  13  14
ENDBRANCH  12  13
ENDBRANCH  10  12
ENDBRANCH   5  10
TORSDOF 6
ENDMDL
