MODEL 1
REMARK VINA RESULT:      -7.8      0.000      0.000
REMARK  Name = 
REMARK  5 active torsions:
REMARK  status: ('A' for Active; 'I' for Inactive)
REMARK    1  A    between atoms: C_1  and  O_2
REMARK    2  A    between atoms: O_2  and  C_3
REMARK    3  A    between atoms: C_11  and  C_12
REMARK    4  A    between atoms: C_12  and  O_13
REMARK    5  A    between atoms: O_13  and  C_14
REMARK                            x       y       z     vdW  Elec       q    Type
REMARK                         _______ _______ _______ _____ _____    ______ ____
ROOT
ATOM      1  C   UNL     1       5.902   3.484  12.567  0.00  0.00    +0.000 A 
ATOM      2  C   UNL     1       7.070   4.203  12.314  0.00  0.00    +0.000 A 
ATOM      3  C   UNL     1       7.626   4.991  13.315  0.00  0.00    +0.000 A 
ATOM      4  C   UNL     1       7.001   5.063  14.560  0.00  0.00    +0.000 A 
ATOM      5  O   UNL     1       7.641   5.867  15.523  0.00  0.00    +0.000 OA
ATOM      6  C   UNL     1       7.123   5.994  16.798  0.00  0.00    +0.000 A 
ATOM      7  O   UNL     1       7.672   6.661  17.669  0.00  0.00    +0.000 OA
ATOM      8  C   UNL     1       5.850   5.312  17.068  0.00  0.00    +0.000 A 
ATOM      9  C   UNL     1       5.212   4.542  16.173  0.00  0.00    +0.000 A 
ATOM     10  C   UNL     1       5.816   4.381  14.840  0.00  0.00    +0.000 A 
ATOM     11  C   UNL     1       5.276   3.587  13.817  0.00  0.00    +0.000 A 
ENDROOT
BRANCH   1  13
ATOM     12  C   UNL     1       3.991   3.159  11.215  0.00  0.00    +0.000 C 
ATOM     13  O   UNL     1       5.261   2.688  11.655  0.00  0.00    +0.000 OA
ENDBRANCH   1  13
BRANCH   9  14
ATOM     14  C   UNL     1       3.896   3.895  16.520  0.00  0.00    +0.000 C 
BRANCH  14  15
ATOM     15  O   UNL     1       4.047   3.220  17.768  0.00  0.00    +0.000 OA
BRANCH  15  16
ATOM     16  C   UNL     1       3.097   3.450  18.726  0.00  0.00    +0.000 A 
ATOM     17  C   UNL     1       2.361   2.474  19.403  0.00  0.00    +0.000 A 
ATOM     18  C   UNL     1       1.442   2.846  20.389  0.00  0.00    +0.000 A 
ATOM     19  C   UNL     1       1.249   4.191  20.700  0.00  0.00    +0.000 A 
ATOM     20  C   UNL     1       1.971   5.165  20.014  0.00  0.00    +0.000 A 
ATOM     21  I   UNL     1       1.689   7.173  20.472  0.00  0.00    +0.000 I 
ATOM     22  C   UNL     1       2.888   4.799  19.027  0.00  0.00    +0.000 A 
ENDBRANCH  15  16
ENDBRANCH  14  15
ENDBRANCH   9  14
TORSDOF 4
ENDMDL
MODEL 2
REMARK VINA RESULT:      -7.7      1.230      1.689
REMARK  Name = 
REMARK  5 active torsions:
REMARK  status: ('A' for Active; 'I' for Inactive)
REMARK    1  A    between atoms: C_1  and  O_2
REMARK    2  A    between atoms: O_2  and  C_3
REMARK    3  A    between atoms: C_11  and  C_12
REMARK    4  A    between atoms: C_12  and  O_13
REMARK    5  A    between atoms: O_13  and  C_14
REMARK                            x       y       z     vdW  Elec       q    Type
REMARK                         _______ _______ _______ _____ _____    ______ ____
ROOT
ATOM      1  C   UNL     1       6.191   3.579  12.671  0.00  0.00    +0.000 A 
ATOM      2  C   UNL     1       7.243   4.459  12.417  0.00  0.00    +0.000 A 
ATOM      3  C   UNL     1       7.732   5.264  13.439  0.00  0.00    +0.000 A 
ATOM      4  C   UNL     1       7.156   5.190  14.708  0.00  0.00    +0.000 A 
ATOM      5  O   UNL     1       7.725   6.023  15.689  0.00  0.00    +0.000 OA
ATOM      6  C   UNL     1       7.249   6.017  16.987  0.00  0.00    +0.000 A 
ATOM      7  O   UNL     1       7.742   6.708  17.873  0.00  0.00    +0.000 OA
ATOM      8  C   UNL     1       6.089   5.158  17.265  0.00  0.00    +0.000 A 
ATOM      9  C   UNL     1       5.521   4.356  16.352  0.00  0.00    +0.000 A 
ATOM     10  C   UNL     1       6.084   4.343  14.991  0.00  0.00    +0.000 A 
ATOM     11  C   UNL     1       5.610   3.535  13.947  0.00  0.00    +0.000 A 
ENDROOT
BRANCH   1  13
ATOM     12  C   UNL     1       4.295   3.087  11.349  0.00  0.00    +0.000 C 
ATOM     13  O   UNL     1       5.623   2.750  11.741  0.00  0.00    +0.000 OA
ENDBRANCH   1  13
BRANCH   9  14
ATOM     14  C   UNL     1       4.317   3.523  16.710  0.00  0.00    +0.000 C 
BRANCH  14  15
ATOM     15  O   UNL     1       3.178   4.380  16.749  0.00  0.00    +0.000 OA
BRANCH  15  16
ATOM     16  C   UNL     1       2.797   4.864  17.971  0.00  0.00    +0.000 A 
ATOM     17  C   UNL     1       2.638   6.210  18.308  0.00  0.00    +0.000 A 
ATOM     18  C   UNL     1       2.208   6.567  19.590  0.00  0.00    +0.000 A 
ATOM     19  C   UNL     1       1.939   5.585  20.542  0.00  0.00    +0.000 A 
ATOM     20  C   UNL     1       2.113   4.243  20.211  0.00  0.00    +0.000 A 
ATOM     21  I   UNL     1       1.714   2.772  21.624  0.00  0.00    +0.000 I 
ATOM     22  C   UNL     1       2.544   3.881  18.933  0.00  0.00    +0.000 A 
ENDBRANCH  15  16
ENDBRANCH  14  15
ENDBRANCH   9  14
TORSDOF 4
ENDMDL
MODEL 3
REMARK VINA RESULT:      -7.7      2.767      6.835
REMARK  Name = 
REMARK  5 active torsions:
REMARK  status: ('A' for Active; 'I' for Inactive)
REMARK    1  A    between atoms: C_1  and  O_2
REMARK    2  A    between atoms: O_2  and  C_3
REMARK    3  A    between atoms: C_11  and  C_12
REMARK    4  A    between atoms: C_12  and  O_13
REMARK    5  A    between atoms: O_13  and  C_14
REMARK                            x       y       z     vdW  Elec       q    Type
REMARK                         _______ _______ _______ _____ _____    ______ ____
ROOT
ATOM      1  C   UNL     1       2.357   7.509  18.599  0.00  0.00    +0.000 A 
ATOM      2  C   UNL     1       1.936   7.806  19.895  0.00  0.00    +0.000 A 
ATOM      3  C   UNL     1       1.732   6.776  20.807  0.00  0.00    +0.000 A 
ATOM      4  C   UNL     1       1.941   5.455  20.411  0.00  0.00    +0.000 A 
ATOM      5  O   UNL     1       1.733   4.477  21.401  0.00  0.00    +0.000 OA
ATOM      6  C   UNL     1       1.932   3.137  21.127  0.00  0.00    +0.000 A 
ATOM      7  O   UNL     1       1.789   2.262  21.975  0.00  0.00    +0.000 OA
ATOM      8  C   UNL     1       2.299   2.789  19.747  0.00  0.00    +0.000 A 
ATOM      9  C   UNL     1       2.501   3.695  18.779  0.00  0.00    +0.000 A 
ATOM     10  C   UNL     1       2.335   5.120  19.114  0.00  0.00    +0.000 A 
ATOM     11  C   UNL     1       2.540   6.174  18.212  0.00  0.00    +0.000 A 
ENDROOT
BRANCH   1  13
ATOM     12  C   UNL     1       1.946   9.700  17.815  0.00  0.00    +0.000 C 
ATOM     13  O   UNL     1       2.577   8.438  17.617  0.00  0.00    +0.000 OA
ENDBRANCH   1  13
BRANCH   9  14
ATOM     14  C   UNL     1       2.852   3.256  17.380  0.00  0.00    +0.000 C 
BRANCH  14  15
ATOM     15  O   UNL     1       4.242   2.938  17.349  0.00  0.00    +0.000 OA
BRANCH  15  16
ATOM     16  C   UNL     1       5.055   3.749  16.603  0.00  0.00    +0.000 A 
ATOM     17  C   UNL     1       5.246   3.672  15.222  0.00  0.00    +0.000 A 
ATOM     18  C   UNL     1       6.082   4.589  14.576  0.00  0.00    +0.000 A 
ATOM     19  C   UNL     1       6.734   5.582  15.305  0.00  0.00    +0.000 A 
ATOM     20  C   UNL     1       6.555   5.649  16.686  0.00  0.00    +0.000 A 
ATOM     21  I   UNL     1       7.524   7.127  17.781  0.00  0.00    +0.000 I 
ATOM     22  C   UNL     1       5.723   4.735  17.335  0.00  0.00    +0.000 A 
ENDBRANCH  15  16
ENDBRANCH  14  15
ENDBRANCH   9  14
TORSDOF 4
ENDMDL
MODEL 4
REMARK VINA RESULT:      -7.7      3.257      6.715
REMARK  Name = 
REMARK  5 active torsions:
REMARK  status: ('A' for Active; 'I' for Inactive)
REMARK    1  A    between atoms: C_1  and  O_2
REMARK    2  A    between atoms: O_2  and  C_3
REMARK    3  A    between atoms: C_11  and  C_12
REMARK    4  A    between atoms: C_12  and  O_13
REMARK    5  A    between atoms: O_13  and  C_14
REMARK                            x       y       z     vdW  Elec       q    Type
REMARK                         _______ _______ _______ _____ _____    ______ ____
ROOT
ATOM      1  C   UNL     1       2.104   3.086  18.703  0.00  0.00    +0.000 A 
ATOM      2  C   UNL     1       1.508   2.932  19.955  0.00  0.00    +0.000 A 
ATOM      3  C   UNL     1       1.241   4.052  20.735  0.00  0.00    +0.000 A 
ATOM      4  C   UNL     1       1.584   5.318  20.260  0.00  0.00    +0.000 A 
ATOM      5  O   UNL     1       1.260   6.398  21.103  0.00  0.00    +0.000 OA
ATOM      6  C   UNL     1       1.532   7.699  20.725  0.00  0.00    +0.000 A 
ATOM      7  O   UNL     1       1.235   8.664  21.421  0.00  0.00    +0.000 OA
ATOM      8  C   UNL     1       2.232   7.886  19.446  0.00  0.00    +0.000 A 
ATOM      9  C   UNL     1       2.559   6.879  18.621  0.00  0.00    +0.000 A 
ATOM     10  C   UNL     1       2.206   5.507  19.025  0.00  0.00    +0.000 A 
ATOM     11  C   UNL     1       2.461   4.365  18.252  0.00  0.00    +0.000 A 
ENDROOT
BRANCH   1  13
ATOM     12  C   UNL     1       3.665   1.412  18.118  0.00  0.00    +0.000 C 
ATOM     13  O   UNL     1       2.422   2.058  17.857  0.00  0.00    +0.000 OA
ENDBRANCH   1  13
BRANCH   9  14
ATOM     14  C   UNL     1       3.299   7.152  17.337  0.00  0.00    +0.000 C 
BRANCH  14  15
ATOM     15  O   UNL     1       4.663   7.420  17.657  0.00  0.00    +0.000 OA
BRANCH  15  16
ATOM     16  C   UNL     1       5.580   6.447  17.364  0.00  0.00    +0.000 A 
ATOM     17  C   UNL     1       6.570   5.967  18.224  0.00  0.00    +0.000 A 
ATOM     18  C   UNL     1       7.424   4.940  17.809  0.00  0.00    +0.000 A 
ATOM     19  C   UNL     1       7.297   4.391  16.534  0.00  0.00    +0.000 A 
ATOM     20  C   UNL     1       6.320   4.881  15.670  0.00  0.00    +0.000 A 
ATOM     21  I   UNL     1       6.124   4.069  13.767  0.00  0.00    +0.000 I 
ATOM     22  C   UNL     1       5.466   5.907  16.080  0.00  0.00    +0.000 A 
ENDBRANCH  15  16
ENDBRANCH  14  15
ENDBRANCH   9  14
TORSDOF 4
ENDMDL
MODEL 5
REMARK VINA RESULT:      -7.6      3.239      5.713
REMARK  Name = 
REMARK  5 active torsions:
REMARK  status: ('A' for Active; 'I' for Inactive)
REMARK    1  A    between atoms: C_1  and  O_2
REMARK    2  A    between atoms: O_2  and  C_3
REMARK    3  A    between atoms: C_11  and  C_12
REMARK    4  A    between atoms: C_12  and  O_13
REMARK    5  A    between atoms: O_13  and  C_14
REMARK                            x       y       z     vdW  Elec       q    Type
REMARK                         _______ _______ _______ _____ _____    ______ ____
ROOT
ATOM      1  C   UNL     1       5.793   6.088  16.771  0.00  0.00    +0.000 A 
ATOM      2  C   UNL     1       5.916   4.855  16.131  0.00  0.00    +0.000 A 
ATOM      3  C   UNL     1       4.952   3.873  16.333  0.00  0.00    +0.000 A 
ATOM      4  C   UNL     1       3.878   4.130  17.186  0.00  0.00    +0.000 A 
ATOM      5  O   UNL     1       2.939   3.090  17.319  0.00  0.00    +0.000 OA
ATOM      6  C   UNL     1       1.822   3.241  18.120  0.00  0.00    +0.000 A 
ATOM      7  O   UNL     1       0.969   2.368  18.233  0.00  0.00    +0.000 OA
ATOM      8  C   UNL     1       1.709   4.501  18.869  0.00  0.00    +0.000 A 
ATOM      9  C   UNL     1       2.588   5.509  18.769  0.00  0.00    +0.000 A 
ATOM     10  C   UNL     1       3.739   5.341  17.865  0.00  0.00    +0.000 A 
ATOM     11  C   UNL     1       4.719   6.319  17.642  0.00  0.00    +0.000 A 
ENDROOT
BRANCH   1  13
ATOM     12  C   UNL     1       7.689   7.181  17.663  0.00  0.00    +0.000 C 
ATOM     13  O   UNL     1       6.685   7.121  16.654  0.00  0.00    +0.000 OA
ENDBRANCH   1  13
BRANCH   9  14
ATOM     14  C   UNL     1       2.414   6.761  19.591  0.00  0.00    +0.000 C 
BRANCH  14  15
ATOM     15  O   UNL     1       2.304   7.868  18.698  0.00  0.00    +0.000 OA
BRANCH  15  16
ATOM     16  C   UNL     1       1.493   8.903  19.078  0.00  0.00    +0.000 A 
ATOM     17  C   UNL     1       1.060   9.949  18.260  0.00  0.00    +0.000 A 
ATOM     18  C   UNL     1       0.200  10.928  18.768  0.00  0.00    +0.000 A 
ATOM     19  C   UNL     1      -0.227  10.871  20.094  0.00  0.00    +0.000 A 
ATOM     20  C   UNL     1       0.217   9.836  20.914  0.00  0.00    +0.000 A 
ATOM     21  I   UNL     1      -0.415   9.743  22.892  0.00  0.00    +0.000 I 
ATOM     22  C   UNL     1       1.077   8.858  20.411  0.00  0.00    +0.000 A 
ENDBRANCH  15  16
ENDBRANCH  14  15
ENDBRANCH   9  14
TORSDOF 4
ENDMDL
MODEL 6
REMARK VINA RESULT:      -7.6      3.269      7.080
REMARK  Name = 
REMARK  5 active torsions:
REMARK  status: ('A' for Active; 'I' for Inactive)
REMARK    1  A    between atoms: C_1  and  O_2
REMARK    2  A    between atoms: O_2  and  C_3
REMARK    3  A    between atoms: C_11  and  C_12
REMARK    4  A    between atoms: C_12  and  O_13
REMARK    5  A    between atoms: O_13  and  C_14
REMARK                            x       y       z     vdW  Elec       q    Type
REMARK                         _______ _______ _______ _____ _____    ______ ____
ROOT
ATOM      1  C   UNL     1       2.253   7.761  18.519  0.00  0.00    +0.000 A 
ATOM      2  C   UNL     1       1.883   8.050  19.833  0.00  0.00    +0.000 A 
ATOM      3  C   UNL     1       1.780   7.023  20.763  0.00  0.00    +0.000 A 
ATOM      4  C   UNL     1       2.034   5.709  20.368  0.00  0.00    +0.000 A 
ATOM      5  O   UNL     1       1.927   4.733  21.376  0.00  0.00    +0.000 OA
ATOM      6  C   UNL     1       2.179   3.402  21.105  0.00  0.00    +0.000 A 
ATOM      7  O   UNL     1       2.124   2.531  21.967  0.00  0.00    +0.000 OA
ATOM      8  C   UNL     1       2.492   3.057  19.710  0.00  0.00    +0.000 A 
ATOM      9  C   UNL     1       2.598   3.961  18.725  0.00  0.00    +0.000 A 
ATOM     10  C   UNL     1       2.378   5.379  19.056  0.00  0.00    +0.000 A 
ATOM     11  C   UNL     1       2.483   6.432  18.135  0.00  0.00    +0.000 A 
ENDROOT
BRANCH   1  13
ATOM     12  C   UNL     1       1.883   9.989  17.827  0.00  0.00    +0.000 C 
ATOM     13  O   UNL     1       2.375   8.688  17.519  0.00  0.00    +0.000 OA
ENDBRANCH   1  13
BRANCH   9  14
ATOM     14  C   UNL     1       2.899   3.523  17.314  0.00  0.00    +0.000 C 
BRANCH  14  15
ATOM     15  O   UNL     1       4.235   3.025  17.278  0.00  0.00    +0.000 OA
BRANCH  15  16
ATOM     16  C   UNL     1       5.165   3.770  16.605  0.00  0.00    +0.000 A 
ATOM     17  C   UNL     1       5.982   4.758  17.158  0.00  0.00    +0.000 A 
ATOM     18  C   UNL     1       6.920   5.422  16.361  0.00  0.00    +0.000 A 
ATOM     19  C   UNL     1       7.044   5.106  15.009  0.00  0.00    +0.000 A 
ATOM     20  C   UNL     1       6.218   4.131  14.453  0.00  0.00    +0.000 A 
ATOM     21  I   UNL     1       6.397   3.654  12.438  0.00  0.00    +0.000 I 
ATOM     22  C   UNL     1       5.279   3.467  15.244  0.00  0.00    +0.000 A 
ENDBRANCH  15  16
ENDBRANCH  14  15
ENDBRANCH   9  14
TORSDOF 4
ENDMDL
MODEL 7
REMARK VINA RESULT:      -7.6      3.226      5.549
REMARK  Name = 
REMARK  5 active torsions:
REMARK  status: ('A' for Active; 'I' for Inactive)
REMARK    1  A    between atoms: C_1  and  O_2
REMARK    2  A    between atoms: O_2  and  C_3
REMARK    3  A    between atoms: C_11  and  C_12
REMARK    4  A    between atoms: C_12  and  O_13
REMARK    5  A    between atoms: O_13  and  C_14
REMARK                            x       y       z     vdW  Elec       q    Type
REMARK                         _______ _______ _______ _____ _____    ______ ____
ROOT
ATOM      1  C   UNL     1       6.362   6.496  16.925  0.00  0.00    +0.000 A 
ATOM      2  C   UNL     1       6.740   5.164  16.757  0.00  0.00    +0.000 A 
ATOM      3  C   UNL     1       5.804   4.152  16.936  0.00  0.00    +0.000 A 
ATOM      4  C   UNL     1       4.497   4.481  17.295  0.00  0.00    +0.000 A 
ATOM      5  O   UNL     1       3.608   3.399  17.437  0.00  0.00    +0.000 OA
ATOM      6  C   UNL     1       2.283   3.607  17.767  0.00  0.00    +0.000 A 
ATOM      7  O   UNL     1       1.476   2.689  17.868  0.00  0.00    +0.000 OA
ATOM      8  C   UNL     1       1.874   4.995  18.028  0.00  0.00    +0.000 A 
ATOM      9  C   UNL     1       2.696   6.049  17.907  0.00  0.00    +0.000 A 
ATOM     10  C   UNL     1       4.089   5.801  17.500  0.00  0.00    +0.000 A 
ATOM     11  C   UNL     1       5.048   6.806  17.307  0.00  0.00    +0.000 A 
ENDROOT
BRANCH   1  13
ATOM     12  C   UNL     1       7.981   7.891  17.932  0.00  0.00    +0.000 C 
ATOM     13  O   UNL     1       7.199   7.570  16.785  0.00  0.00    +0.000 OA
ENDBRANCH   1  13
BRANCH   9  14
ATOM     14  C   UNL     1       2.207   7.440  18.217  0.00  0.00    +0.000 C 
BRANCH  14  15
ATOM     15  O   UNL     1       2.392   7.677  19.612  0.00  0.00    +0.000 OA
BRANCH  15  16
ATOM     16  C   UNL     1       1.454   8.443  20.249  0.00  0.00    +0.000 A 
ATOM     17  C   UNL     1       0.989   8.257  21.552  0.00  0.00    +0.000 A 
ATOM     18  C   UNL     1       0.050   9.139  22.097  0.00  0.00    +0.000 A 
ATOM     19  C   UNL     1      -0.433  10.206  21.342  0.00  0.00    +0.000 A 
ATOM     20  C   UNL     1       0.018  10.383  20.036  0.00  0.00    +0.000 A 
ATOM     21  I   UNL     1      -0.697  11.973  18.903  0.00  0.00    +0.000 I 
ATOM     22  C   UNL     1       0.955   9.504  19.488  0.00  0.00    +0.000 A 
ENDBRANCH  15  16
ENDBRANCH  14  15
ENDBRANCH   9  14
TORSDOF 4
ENDMDL
MODEL 8
REMARK VINA RESULT:      -7.5      3.932      5.958
REMARK  Name = 
REMARK  5 active torsions:
REMARK  status: ('A' for Active; 'I' for Inactive)
REMARK    1  A    between atoms: C_1  and  O_2
REMARK    2  A    between atoms: O_2  and  C_3
REMARK    3  A    between atoms: C_11  and  C_12
REMARK    4  A    between atoms: C_12  and  O_13
REMARK    5  A    between atoms: O_13  and  C_14
REMARK                            x       y       z     vdW  Elec       q    Type
REMARK                         _______ _______ _______ _____ _____    ______ ____
ROOT
ATOM      1  C   UNL     1       6.679   6.144  16.786  0.00  0.00    +0.000 A 
ATOM      2  C   UNL     1       6.740   4.781  16.498  0.00  0.00    +0.000 A 
ATOM      3  C   UNL     1       5.608   3.989  16.659  0.00  0.00    +0.000 A 
ATOM      4  C   UNL     1       4.425   4.568  17.120  0.00  0.00    +0.000 A 
ATOM      5  O   UNL     1       3.323   3.701  17.235  0.00  0.00    +0.000 OA
ATOM      6  C   UNL     1       2.094   4.169  17.660  0.00  0.00    +0.000 A 
ATOM      7  O   UNL     1       1.105   3.447  17.742  0.00  0.00    +0.000 OA
ATOM      8  C   UNL     1       2.021   5.585  18.048  0.00  0.00    +0.000 A 
ATOM      9  C   UNL     1       3.053   6.437  17.955  0.00  0.00    +0.000 A 
ATOM     10  C   UNL     1       4.336   5.922  17.446  0.00  0.00    +0.000 A 
ATOM     11  C   UNL     1       5.487   6.703  17.270  0.00  0.00    +0.000 A 
ENDROOT
BRANCH   1  13
ATOM     12  C   UNL     1       7.707   8.121  17.572  0.00  0.00    +0.000 C 
ATOM     13  O   UNL     1       7.731   7.014  16.676  0.00  0.00    +0.000 OA
ENDBRANCH   1  13
BRANCH   9  14
ATOM     14  C   UNL     1       2.904   7.870  18.396  0.00  0.00    +0.000 C 
BRANCH  14  15
ATOM     15  O   UNL     1       2.125   8.558  17.419  0.00  0.00    +0.000 OA
BRANCH  15  16
ATOM     16  C   UNL     1       1.325   9.578  17.858  0.00  0.00    +0.000 A 
ATOM     17  C   UNL     1      -0.068   9.544  17.958  0.00  0.00    +0.000 A 
ATOM     18  C   UNL     1      -0.764  10.648  18.458  0.00  0.00    +0.000 A 
ATOM     19  C   UNL     1      -0.076  11.793  18.856  0.00  0.00    +0.000 A 
ATOM     20  C   UNL     1       1.313  11.834  18.742  0.00  0.00    +0.000 A 
ATOM     21  I   UNL     1       2.347  13.537  19.333  0.00  0.00    +0.000 I 
ATOM     22  C   UNL     1       2.012  10.733  18.242  0.00  0.00    +0.000 A 
ENDBRANCH  15  16
ENDBRANCH  14  15
ENDBRANCH   9  14
TORSDOF 4
ENDMDL
MODEL 9
REMARK VINA RESULT:      -7.5      1.684      2.272
REMARK  Name = 
REMARK  5 active torsions:
REMARK  status: ('A' for Active; 'I' for Inactive)
REMARK    1  A    between atoms: C_1  and  O_2
REMARK    2  A    between atoms: O_2  and  C_3
REMARK    3  A    between atoms: C_11  and  C_12
REMARK    4  A    between atoms: C_12  and  O_13
REMARK    5  A    between atoms: O_13  and  C_14
REMARK                            x       y       z     vdW  Elec       q    Type
REMARK                         _______ _______ _______ _____ _____    ______ ____
ROOT
ATOM      1  C   UNL     1       5.840   4.173  14.131  0.00  0.00    +0.000 A 
ATOM      2  C   UNL     1       7.036   4.892  14.148  0.00  0.00    +0.000 A 
ATOM      3  C   UNL     1       7.580   5.298  15.361  0.00  0.00    +0.000 A 
ATOM      4  C   UNL     1       6.917   4.991  16.550  0.00  0.00    +0.000 A 
ATOM      5  O   UNL     1       7.547   5.420  17.733  0.00  0.00    +0.000 OA
ATOM      6  C   UNL     1       6.992   5.152  18.970  0.00  0.00    +0.000 A 
ATOM      7  O   UNL     1       7.530   5.485  20.020  0.00  0.00    +0.000 OA
ATOM      8  C   UNL     1       5.692   4.466  18.979  0.00  0.00    +0.000 A 
ATOM      9  C   UNL     1       5.063   4.047  17.870  0.00  0.00    +0.000 A 
ATOM     10  C   UNL     1       5.705   4.299  16.569  0.00  0.00    +0.000 A 
ATOM     11  C   UNL     1       5.176   3.894  15.335  0.00  0.00    +0.000 A 
ENDROOT
BRANCH   1  13
ATOM     12  C   UNL     1       6.003   2.942  12.121  0.00  0.00    +0.000 C 
ATOM     13  O   UNL     1       5.208   3.734  12.999  0.00  0.00    +0.000 OA
ENDBRANCH   1  13
BRANCH   9  14
ATOM     14  C   UNL     1       3.718   3.372  17.963  0.00  0.00    +0.000 C 
BRANCH  14  15
ATOM     15  O   UNL     1       2.718   4.320  17.595  0.00  0.00    +0.000 OA
BRANCH  15  16
ATOM     16  C   UNL     1       2.370   5.260  18.527  0.00  0.00    +0.000 A 
ATOM     17  C   UNL     1       2.107   5.020  19.878  0.00  0.00    +0.000 A 
ATOM     18  C   UNL     1       1.796   6.081  20.733  0.00  0.00    +0.000 A 
ATOM     19  C   UNL     1       1.740   7.385  20.245  0.00  0.00    +0.000 A 
ATOM     20  C   UNL     1       1.986   7.624  18.894  0.00  0.00    +0.000 A 
ATOM     21  I   UNL     1       1.905   9.566  18.158  0.00  0.00    +0.000 I 
ATOM     22  C   UNL     1       2.296   6.567  18.036  0.00  0.00    +0.000 A 
ENDBRANCH  15  16
ENDBRANCH  14  15
ENDBRANCH   9  14
TORSDOF 4
ENDMDL
