MODEL 1
REMARK VINA RESULT:      -7.2      0.000      0.000
REMARK  Name = 
REMARK  8 active torsions:
REMARK  status: ('A' for Active; 'I' for Inactive)
REMARK    1  A    between atoms: C_1  and  C_2
REMARK    2  A    between atoms: C_6  and  N_7
REMARK    3  A    between atoms: N_10  and  C_11
REMARK    4  A    between atoms: C_14  and  C_15
REMARK    5  A    between atoms: C_15  and  O_17
REMARK    6  A    between atoms: C_19  and  N_20
REMARK    7  A    between atoms: C_21  and  C_23
REMARK    8  A    between atoms: C_31  and  C_32
REMARK                            x       y       z     vdW  Elec       q    Type
REMARK                         _______ _______ _______ _____ _____    ______ ____
ROOT
ATOM      1  C   UNL     1       0.962  13.477  19.462  0.00  0.00    +0.000 A 
ATOM      2  C   UNL     1       2.048  14.343  19.764  0.00  0.00    +0.000 A 
ATOM      3  C   UNL     1       1.971  15.731  19.656  0.00  0.00    +0.000 A 
ATOM      4  C   UNL     1       0.803  16.308  19.189  0.00  0.00    +0.000 A 
ATOM      5  C   UNL     1      -0.262  15.483  18.826  0.00  0.00    +0.000 A 
ATOM      6  C   UNL     1      -0.241  14.086  19.014  0.00  0.00    +0.000 A 
ENDROOT
BRANCH   1  10
ATOM      7  N   UNL     1       1.341   9.249  19.618  0.00  0.00    +0.000 N 
ATOM      8  C   UNL     1       0.690   9.930  20.753  0.00  0.00    +0.000 C 
ATOM      9  C   UNL     1       1.210  11.392  20.899  0.00  0.00    +0.000 C 
ATOM     10  N   UNL     1       1.206  12.117  19.617  0.00  0.00    +0.000 N 
ATOM     11  C   UNL     1       1.849  11.392  18.496  0.00  0.00    +0.000 C 
ATOM     12  C   UNL     1       1.268   9.965  18.323  0.00  0.00    +0.000 C 
ATOM     13  C   UNL     1      -0.169   9.978  17.785  0.00  0.00    +0.000 C 
BRANCH   7  19
ATOM     14  C   UNL     1       3.614   5.337  17.568  0.00  0.00    +0.000 C 
ATOM     15  C   UNL     1       2.795   5.939  18.670  0.00  0.00    +0.000 A 
ATOM     16  C   UNL     1       2.416   5.169  19.772  0.00  0.00    +0.000 A 
ATOM     17  C   UNL     1       1.688   5.749  20.802  0.00  0.00    +0.000 A 
ATOM     18  C   UNL     1       1.347   7.102  20.738  0.00  0.00    +0.000 A 
ATOM     19  C   UNL     1       1.711   7.915  19.652  0.00  0.00    +0.000 A 
ATOM     20  C   UNL     1       2.433   7.301  18.619  0.00  0.00    +0.000 A 
ENDBRANCH   7  19
ENDBRANCH   1  10
BRANCH   6  21
ATOM     21  N   UNL     1      -1.440  13.333  18.806  0.00  0.00    +0.000 N 
ATOM     22  C   UNL     1      -2.352  12.948  19.788  0.00  0.00    +0.000 C 
ATOM     23  O   UNL     1      -2.219  13.142  20.994  0.00  0.00    +0.000 OA
ATOM     24  H   UNL     1      -1.570  12.967  17.871  0.00  0.00    +0.000 HD
BRANCH  22  25
ATOM     25  C   UNL     1      -3.602  12.242  19.382  0.00  0.00    +0.000 A 
ATOM     26  C   UNL     1      -3.519  11.341  18.300  0.00  0.00    +0.000 A 
ATOM     27  C   UNL     1      -4.632  10.606  17.883  0.00  0.00    +0.000 A 
ATOM     28  C   UNL     1      -5.847  10.765  18.541  0.00  0.00    +0.000 A 
ATOM     29  C   UNL     1      -5.950  11.671  19.599  0.00  0.00    +0.000 A 
ATOM     30  C   UNL     1      -4.832  12.402  20.011  0.00  0.00    +0.000 A 
ATOM     31  F   UNL     1      -4.978  13.264  21.028  0.00  0.00    +0.000 F 
ENDBRANCH  22  25
ENDBRANCH   6  21
BRANCH   4  32
ATOM     32  C   UNL     1       0.732  17.786  19.058  0.00  0.00    +0.000 C 
ATOM     33  O   UNL     1      -0.178  18.441  19.536  0.00  0.00    +0.000 OA
BRANCH  32  34
ATOM     34  O   UNL     1       1.717  18.329  18.312  0.00  0.00    +0.000 OA
ATOM     35  H   UNL     1       1.434  18.844  17.531  0.00  0.00    +0.000 HD
ENDBRANCH  32  34
ENDBRANCH   4  32
TORSDOF 6
ENDMDL
MODEL 2
REMARK VINA RESULT:      -7.0      3.034      4.171
REMARK  Name = 
REMARK  8 active torsions:
REMARK  status: ('A' for Active; 'I' for Inactive)
REMARK    1  A    between atoms: C_1  and  C_2
REMARK    2  A    between atoms: C_6  and  N_7
REMARK    3  A    between atoms: N_10  and  C_11
REMARK    4  A    between atoms: C_14  and  C_15
REMARK    5  A    between atoms: C_15  and  O_17
REMARK    6  A    between atoms: C_19  and  N_20
REMARK    7  A    between atoms: C_21  and  C_23
REMARK    8  A    between atoms: C_31  and  C_32
REMARK                            x       y       z     vdW  Elec       q    Type
REMARK                         _______ _______ _______ _____ _____    ______ ____
ROOT
ATOM      1  C   UNL     1      -1.681  13.633  22.400  0.00  0.00    +0.000 A 
ATOM      2  C   UNL     1      -1.116  14.025  23.644  0.00  0.00    +0.000 A 
ATOM      3  C   UNL     1      -1.709  14.961  24.491  0.00  0.00    +0.000 A 
ATOM      4  C   UNL     1      -2.880  15.582  24.095  0.00  0.00    +0.000 A 
ATOM      5  C   UNL     1      -3.430  15.265  22.852  0.00  0.00    +0.000 A 
ATOM      6  C   UNL     1      -2.900  14.256  22.022  0.00  0.00    +0.000 A 
ENDROOT
BRANCH   1  10
ATOM      7  N   UNL     1       0.597  10.527  20.607  0.00  0.00    +0.000 N 
ATOM      8  C   UNL     1       1.243  11.839  20.800  0.00  0.00    +0.000 C 
ATOM      9  C   UNL     1       0.188  12.987  20.798  0.00  0.00    +0.000 C 
ATOM     10  N   UNL     1      -0.960  12.692  21.673  0.00  0.00    +0.000 N 
ATOM     11  C   UNL     1      -1.568  11.356  21.464  0.00  0.00    +0.000 C 
ATOM     12  C   UNL     1      -0.512  10.223  21.541  0.00  0.00    +0.000 C 
ATOM     13  C   UNL     1       0.016  10.008  22.966  0.00  0.00    +0.000 C 
BRANCH   7  19
ATOM     14  C   UNL     1       2.376   5.908  20.192  0.00  0.00    +0.000 C 
ATOM     15  C   UNL     1       2.078   7.250  19.592  0.00  0.00    +0.000 A 
ATOM     16  C   UNL     1       2.336   7.494  18.241  0.00  0.00    +0.000 A 
ATOM     17  C   UNL     1       2.023   8.730  17.690  0.00  0.00    +0.000 A 
ATOM     18  C   UNL     1       1.442   9.719  18.486  0.00  0.00    +0.000 A 
ATOM     19  C   UNL     1       1.160   9.516  19.848  0.00  0.00    +0.000 A 
ATOM     20  C   UNL     1       1.500   8.265  20.382  0.00  0.00    +0.000 A 
ENDBRANCH   7  19
ENDBRANCH   1  10
BRANCH   6  21
ATOM     21  N   UNL     1      -3.630  13.851  20.859  0.00  0.00    +0.000 N 
ATOM     22  C   UNL     1      -4.714  12.974  20.832  0.00  0.00    +0.000 C 
ATOM     23  O   UNL     1      -5.156  12.362  21.802  0.00  0.00    +0.000 OA
ATOM     24  H   UNL     1      -3.248  14.158  19.974  0.00  0.00    +0.000 HD
BRANCH  22  25
ATOM     25  C   UNL     1      -5.419  12.731  19.540  0.00  0.00    +0.000 A 
ATOM     26  C   UNL     1      -6.729  13.238  19.408  0.00  0.00    +0.000 A 
ATOM     27  C   UNL     1      -7.443  13.094  18.215  0.00  0.00    +0.000 A 
ATOM     28  C   UNL     1      -6.860  12.435  17.138  0.00  0.00    +0.000 A 
ATOM     29  C   UNL     1      -5.572  11.908  17.263  0.00  0.00    +0.000 A 
ATOM     30  C   UNL     1      -4.862  12.057  18.458  0.00  0.00    +0.000 A 
ATOM     31  F   UNL     1      -3.632  11.530  18.534  0.00  0.00    +0.000 F 
ENDBRANCH  22  25
ENDBRANCH   6  21
BRANCH   4  32
ATOM     32  C   UNL     1      -3.499  16.591  24.992  0.00  0.00    +0.000 C 
ATOM     33  O   UNL     1      -2.849  17.457  25.550  0.00  0.00    +0.000 OA
BRANCH  32  34
ATOM     34  O   UNL     1      -4.825  16.425  25.189  0.00  0.00    +0.000 OA
ATOM     35  H   UNL     1      -5.277  17.125  25.700  0.00  0.00    +0.000 HD
ENDBRANCH  32  34
ENDBRANCH   4  32
TORSDOF 6
ENDMDL
MODEL 3
REMARK VINA RESULT:      -7.0      2.969      3.755
REMARK  Name = 
REMARK  8 active torsions:
REMARK  status: ('A' for Active; 'I' for Inactive)
REMARK    1  A    between atoms: C_1  and  C_2
REMARK    2  A    between atoms: C_6  and  N_7
REMARK    3  A    between atoms: N_10  and  C_11
REMARK    4  A    between atoms: C_14  and  C_15
REMARK    5  A    between atoms: C_15  and  O_17
REMARK    6  A    between atoms: C_19  and  N_20
REMARK    7  A    between atoms: C_21  and  C_23
REMARK    8  A    between atoms: C_31  and  C_32
REMARK                            x       y       z     vdW  Elec       q    Type
REMARK                         _______ _______ _______ _____ _____    ______ ____
ROOT
ATOM      1  C   UNL     1      -1.499  13.504  22.628  0.00  0.00    +0.000 A 
ATOM      2  C   UNL     1      -0.709  14.353  23.450  0.00  0.00    +0.000 A 
ATOM      3  C   UNL     1      -1.230  15.445  24.143  0.00  0.00    +0.000 A 
ATOM      4  C   UNL     1      -2.569  15.761  23.998  0.00  0.00    +0.000 A 
ATOM      5  C   UNL     1      -3.360  14.984  23.151  0.00  0.00    +0.000 A 
ATOM      6  C   UNL     1      -2.879  13.822  22.514  0.00  0.00    +0.000 A 
ENDROOT
BRANCH   1  10
ATOM      7  N   UNL     1       0.227  10.354  20.360  0.00  0.00    +0.000 N 
ATOM      8  C   UNL     1      -0.558   9.998  21.558  0.00  0.00    +0.000 C 
ATOM      9  C   UNL     1      -0.530  11.151  22.606  0.00  0.00    +0.000 C 
ATOM     10  N   UNL     1      -0.823  12.463  22.003  0.00  0.00    +0.000 N 
ATOM     11  C   UNL     1      -0.030  12.774  20.790  0.00  0.00    +0.000 C 
ATOM     12  C   UNL     1      -0.129  11.647  19.730  0.00  0.00    +0.000 C 
ATOM     13  C   UNL     1      -1.515  11.573  19.078  0.00  0.00    +0.000 C 
BRANCH   7  19
ATOM     14  C   UNL     1       2.476   5.934  20.082  0.00  0.00    +0.000 C 
ATOM     15  C   UNL     1       2.165   7.278  19.494  0.00  0.00    +0.000 A 
ATOM     16  C   UNL     1       2.634   7.622  18.224  0.00  0.00    +0.000 A 
ATOM     17  C   UNL     1       2.308   8.856  17.678  0.00  0.00    +0.000 A 
ATOM     18  C   UNL     1       1.505   9.745  18.396  0.00  0.00    +0.000 A 
ATOM     19  C   UNL     1       1.008   9.440  19.674  0.00  0.00    +0.000 A 
ATOM     20  C   UNL     1       1.363   8.193  20.208  0.00  0.00    +0.000 A 
ENDBRANCH   7  19
ENDBRANCH   1  10
BRANCH   6  21
ATOM     21  N   UNL     1      -3.798  12.969  21.824  0.00  0.00    +0.000 N 
ATOM     22  C   UNL     1      -4.695  13.359  20.830  0.00  0.00    +0.000 C 
ATOM     23  O   UNL     1      -4.875  14.514  20.450  0.00  0.00    +0.000 OA
ATOM     24  H   UNL     1      -3.862  12.021  22.174  0.00  0.00    +0.000 HD
BRANCH  22  25
ATOM     25  C   UNL     1      -5.520  12.319  20.149  0.00  0.00    +0.000 A 
ATOM     26  C   UNL     1      -5.156  11.955  18.836  0.00  0.00    +0.000 A 
ATOM     27  C   UNL     1      -5.848  10.959  18.143  0.00  0.00    +0.000 A 
ATOM     28  C   UNL     1      -6.920  10.314  18.752  0.00  0.00    +0.000 A 
ATOM     29  C   UNL     1      -7.306  10.680  20.043  0.00  0.00    +0.000 A 
ATOM     30  C   UNL     1      -6.608  11.677  20.731  0.00  0.00    +0.000 A 
ATOM     31  F   UNL     1      -7.018  11.999  21.967  0.00  0.00    +0.000 F 
ENDBRANCH  22  25
ENDBRANCH   6  21
BRANCH   4  32
ATOM     32  C   UNL     1      -3.115  16.936  24.724  0.00  0.00    +0.000 C 
ATOM     33  O   UNL     1      -4.239  16.948  25.195  0.00  0.00    +0.000 OA
BRANCH  32  34
ATOM     34  O   UNL     1      -2.291  18.005  24.757  0.00  0.00    +0.000 OA
ATOM     35  H   UNL     1      -2.722  18.882  24.761  0.00  0.00    +0.000 HD
ENDBRANCH  32  34
ENDBRANCH   4  32
TORSDOF 6
ENDMDL
MODEL 4
REMARK VINA RESULT:      -7.0      0.888      1.217
REMARK  Name = 
REMARK  8 active torsions:
REMARK  status: ('A' for Active; 'I' for Inactive)
REMARK    1  A    between atoms: C_1  and  C_2
REMARK    2  A    between atoms: C_6  and  N_7
REMARK    3  A    between atoms: N_10  and  C_11
REMARK    4  A    between atoms: C_14  and  C_15
REMARK    5  A    between atoms: C_15  and  O_17
REMARK    6  A    between atoms: C_19  and  N_20
REMARK    7  A    between atoms: C_21  and  C_23
REMARK    8  A    between atoms: C_31  and  C_32
REMARK                            x       y       z     vdW  Elec       q    Type
REMARK                         _______ _______ _______ _____ _____    ______ ____
ROOT
ATOM      1  C   UNL     1       1.146  13.320  19.291  0.00  0.00    +0.000 A 
ATOM      2  C   UNL     1       2.261  14.165  19.544  0.00  0.00    +0.000 A 
ATOM      3  C   UNL     1       2.216  15.552  19.401  0.00  0.00    +0.000 A 
ATOM      4  C   UNL     1       1.053  16.147  18.948  0.00  0.00    +0.000 A 
ATOM      5  C   UNL     1      -0.042  15.341  18.633  0.00  0.00    +0.000 A 
ATOM      6  C   UNL     1      -0.052  13.949  18.857  0.00  0.00    +0.000 A 
ENDROOT
BRANCH   1  10
ATOM      7  N   UNL     1       1.446   9.089  19.520  0.00  0.00    +0.000 N 
ATOM      8  C   UNL     1       0.753   9.796  20.614  0.00  0.00    +0.000 C 
ATOM      9  C   UNL     1       1.290  11.251  20.766  0.00  0.00    +0.000 C 
ATOM     10  N   UNL     1       1.360  11.959  19.476  0.00  0.00    +0.000 N 
ATOM     11  C   UNL     1       2.044  11.208  18.396  0.00  0.00    +0.000 C 
ATOM     12  C   UNL     1       1.447   9.788  18.214  0.00  0.00    +0.000 C 
ATOM     13  C   UNL     1       0.038   9.817  17.608  0.00  0.00    +0.000 C 
BRANCH   7  19
ATOM     14  C   UNL     1       3.506   5.044  17.505  0.00  0.00    +0.000 C 
ATOM     15  C   UNL     1       2.771   5.711  18.630  0.00  0.00    +0.000 A 
ATOM     16  C   UNL     1       2.448   4.997  19.786  0.00  0.00    +0.000 A 
ATOM     17  C   UNL     1       1.800   5.636  20.834  0.00  0.00    +0.000 A 
ATOM     18  C   UNL     1       1.481   6.992  20.731  0.00  0.00    +0.000 A 
ATOM     19  C   UNL     1       1.791   7.750  19.590  0.00  0.00    +0.000 A 
ATOM     20  C   UNL     1       2.433   7.077  18.541  0.00  0.00    +0.000 A 
ENDBRANCH   7  19
ENDBRANCH   1  10
BRANCH   6  21
ATOM     21  N   UNL     1      -1.274  13.222  18.698  0.00  0.00    +0.000 N 
ATOM     22  C   UNL     1      -2.195  12.929  19.703  0.00  0.00    +0.000 C 
ATOM     23  O   UNL     1      -2.052  13.194  20.895  0.00  0.00    +0.000 OA
ATOM     24  H   UNL     1      -1.418  12.803  17.788  0.00  0.00    +0.000 HD
BRANCH  22  25
ATOM     25  C   UNL     1      -3.468  12.238  19.343  0.00  0.00    +0.000 A 
ATOM     26  C   UNL     1      -4.597  12.493  20.148  0.00  0.00    +0.000 A 
ATOM     27  C   UNL     1      -5.839  11.922  19.855  0.00  0.00    +0.000 A 
ATOM     28  C   UNL     1      -5.967  11.082  18.753  0.00  0.00    +0.000 A 
ATOM     29  C   UNL     1      -4.851  10.802  17.961  0.00  0.00    +0.000 A 
ATOM     30  C   UNL     1      -3.612  11.378  18.260  0.00  0.00    +0.000 A 
ATOM     31  F   UNL     1      -2.568  11.076  17.475  0.00  0.00    +0.000 F 
ENDBRANCH  22  25
ENDBRANCH   6  21
BRANCH   4  32
ATOM     32  C   UNL     1       1.015  17.622  18.781  0.00  0.00    +0.000 C 
ATOM     33  O   UNL     1       0.220  18.327  19.376  0.00  0.00    +0.000 OA
BRANCH  32  34
ATOM     34  O   UNL     1       1.886  18.103  17.868  0.00  0.00    +0.000 OA
ATOM     35  H   UNL     1       2.340  18.936  18.100  0.00  0.00    +0.000 HD
ENDBRANCH  32  34
ENDBRANCH   4  32
TORSDOF 6
ENDMDL
MODEL 5
REMARK VINA RESULT:      -6.9      2.872      5.487
REMARK  Name = 
REMARK  8 active torsions:
REMARK  status: ('A' for Active; 'I' for Inactive)
REMARK    1  A    between atoms: C_1  and  C_2
REMARK    2  A    between atoms: C_6  and  N_7
REMARK    3  A    between atoms: N_10  and  C_11
REMARK    4  A    between atoms: C_14  and  C_15
REMARK    5  A    between atoms: C_15  and  O_17
REMARK    6  A    between atoms: C_19  and  N_20
REMARK    7  A    between atoms: C_21  and  C_23
REMARK    8  A    between atoms: C_31  and  C_32
REMARK                            x       y       z     vdW  Elec       q    Type
REMARK                         _______ _______ _______ _____ _____    ______ ____
ROOT
ATOM      1  C   UNL     1      -0.672  12.027  22.257  0.00  0.00    +0.000 A 
ATOM      2  C   UNL     1      -1.817  11.645  23.008  0.00  0.00    +0.000 A 
ATOM      3  C   UNL     1      -2.632  12.560  23.674  0.00  0.00    +0.000 A 
ATOM      4  C   UNL     1      -2.299  13.902  23.652  0.00  0.00    +0.000 A 
ATOM      5  C   UNL     1      -1.147  14.304  22.975  0.00  0.00    +0.000 A 
ATOM      6  C   UNL     1      -0.360  13.412  22.217  0.00  0.00    +0.000 A 
ENDROOT
BRANCH   1  10
ATOM      7  N   UNL     1       1.163   8.886  20.063  0.00  0.00    +0.000 N 
ATOM      8  C   UNL     1       0.354   8.527  21.243  0.00  0.00    +0.000 C 
ATOM      9  C   UNL     1       0.336   9.690  22.281  0.00  0.00    +0.000 C 
ATOM     10  N   UNL     1       0.036  10.991  21.658  0.00  0.00    +0.000 N 
ATOM     11  C   UNL     1       0.855  11.305  20.463  0.00  0.00    +0.000 C 
ATOM     12  C   UNL     1       0.802  10.167  19.412  0.00  0.00    +0.000 C 
ATOM     13  C   UNL     1      -0.566  10.064  18.725  0.00  0.00    +0.000 C 
BRANCH   7  19
ATOM     14  C   UNL     1       3.348   4.433  19.801  0.00  0.00    +0.000 C 
ATOM     15  C   UNL     1       3.105   5.801  19.238  0.00  0.00    +0.000 A 
ATOM     16  C   UNL     1       3.673   6.176  18.018  0.00  0.00    +0.000 A 
ATOM     17  C   UNL     1       3.410   7.434  17.491  0.00  0.00    +0.000 A 
ATOM     18  C   UNL     1       2.573   8.315  18.178  0.00  0.00    +0.000 A 
ATOM     19  C   UNL     1       1.976   7.979  19.405  0.00  0.00    +0.000 A 
ATOM     20  C   UNL     1       2.269   6.708  19.921  0.00  0.00    +0.000 A 
ENDBRANCH   7  19
ENDBRANCH   1  10
BRANCH   6  21
ATOM     21  N   UNL     1       0.686  13.931  21.391  0.00  0.00    +0.000 N 
ATOM     22  C   UNL     1       0.523  14.723  20.255  0.00  0.00    +0.000 C 
ATOM     23  O   UNL     1      -0.557  15.035  19.757  0.00  0.00    +0.000 OA
ATOM     24  H   UNL     1       1.618  13.598  21.605  0.00  0.00    +0.000 HD
BRANCH  22  25
ATOM     25  C   UNL     1       1.732  15.256  19.561  0.00  0.00    +0.000 A 
ATOM     26  C   UNL     1       2.288  16.456  20.051  0.00  0.00    +0.000 A 
ATOM     27  C   UNL     1       3.445  17.000  19.487  0.00  0.00    +0.000 A 
ATOM     28  C   UNL     1       4.061  16.353  18.420  0.00  0.00    +0.000 A 
ATOM     29  C   UNL     1       3.507  15.176  17.910  0.00  0.00    +0.000 A 
ATOM     30  C   UNL     1       2.350  14.637  18.480  0.00  0.00    +0.000 A 
ATOM     31  F   UNL     1       1.851  13.509  17.954  0.00  0.00    +0.000 F 
ENDBRANCH  22  25
ENDBRANCH   6  21
BRANCH   4  32
ATOM     32  C   UNL     1      -3.161  14.870  24.378  0.00  0.00    +0.000 C 
ATOM     33  O   UNL     1      -3.597  15.879  23.853  0.00  0.00    +0.000 OA
BRANCH  32  34
ATOM     34  O   UNL     1      -3.361  14.573  25.680  0.00  0.00    +0.000 OA
ATOM     35  H   UNL     1      -3.608  15.319  26.261  0.00  0.00    +0.000 HD
ENDBRANCH  32  34
ENDBRANCH   4  32
TORSDOF 6
ENDMDL
MODEL 6
REMARK VINA RESULT:      -6.9      2.953      5.434
REMARK  Name = 
REMARK  8 active torsions:
REMARK  status: ('A' for Active; 'I' for Inactive)
REMARK    1  A    between atoms: C_1  and  C_2
REMARK    2  A    between atoms: C_6  and  N_7
REMARK    3  A    between atoms: N_10  and  C_11
REMARK    4  A    between atoms: C_14  and  C_15
REMARK    5  A    between atoms: C_15  and  O_17
REMARK    6  A    between atoms: C_19  and  N_20
REMARK    7  A    between atoms: C_21  and  C_23
REMARK    8  A    between atoms: C_31  and  C_32
REMARK                            x       y       z     vdW  Elec       q    Type
REMARK                         _______ _______ _______ _____ _____    ______ ____
ROOT
ATOM      1  C   UNL     1      -1.053  11.952  22.268  0.00  0.00    +0.000 A 
ATOM      2  C   UNL     1      -2.182  11.658  23.081  0.00  0.00    +0.000 A 
ATOM      3  C   UNL     1      -2.884  12.630  23.793  0.00  0.00    +0.000 A 
ATOM      4  C   UNL     1      -2.446  13.942  23.756  0.00  0.00    +0.000 A 
ATOM      5  C   UNL     1      -1.305  14.255  23.017  0.00  0.00    +0.000 A 
ATOM      6  C   UNL     1      -0.634  13.309  22.215  0.00  0.00    +0.000 A 
ENDROOT
BRANCH   1  10
ATOM      7  N   UNL     1       1.128   8.699  20.622  0.00  0.00    +0.000 N 
ATOM      8  C   UNL     1       1.079   9.960  19.857  0.00  0.00    +0.000 C 
ATOM      9  C   UNL     1      -0.220  10.759  20.181  0.00  0.00    +0.000 C 
ATOM     10  N   UNL     1      -0.464  10.867  21.629  0.00  0.00    +0.000 N 
ATOM     11  C   UNL     1      -0.385   9.582  22.365  0.00  0.00    +0.000 C 
ATOM     12  C   UNL     1       0.945   8.837  22.086  0.00  0.00    +0.000 C 
ATOM     13  C   UNL     1       2.154   9.534  22.723  0.00  0.00    +0.000 C 
BRANCH   7  19
ATOM     14  C   UNL     1       1.781   3.782  20.891  0.00  0.00    +0.000 C 
ATOM     15  C   UNL     1       1.995   5.090  20.189  0.00  0.00    +0.000 A 
ATOM     16  C   UNL     1       2.671   5.135  18.967  0.00  0.00    +0.000 A 
ATOM     17  C   UNL     1       2.832   6.348  18.311  0.00  0.00    +0.000 A 
ATOM     18  C   UNL     1       2.309   7.516  18.869  0.00  0.00    +0.000 A 
ATOM     19  C   UNL     1       1.618   7.517  20.093  0.00  0.00    +0.000 A 
ATOM     20  C   UNL     1       1.483   6.282  20.742  0.00  0.00    +0.000 A 
ENDBRANCH   7  19
ENDBRANCH   1  10
BRANCH   6  21
ATOM     21  N   UNL     1       0.404  13.747  21.333  0.00  0.00    +0.000 N 
ATOM     22  C   UNL     1       0.235  14.204  20.026  0.00  0.00    +0.000 C 
ATOM     23  O   UNL     1      -0.831  14.228  19.415  0.00  0.00    +0.000 OA
ATOM     24  H   UNL     1       1.349  13.611  21.668  0.00  0.00    +0.000 HD
BRANCH  22  25
ATOM     25  C   UNL     1       1.421  14.712  19.275  0.00  0.00    +0.000 A 
ATOM     26  C   UNL     1       2.450  13.792  18.985  0.00  0.00    +0.000 A 
ATOM     27  C   UNL     1       3.575  14.175  18.248  0.00  0.00    +0.000 A 
ATOM     28  C   UNL     1       3.688  15.485  17.795  0.00  0.00    +0.000 A 
ATOM     29  C   UNL     1       2.687  16.411  18.095  0.00  0.00    +0.000 A 
ATOM     30  C   UNL     1       1.564  16.022  18.832  0.00  0.00    +0.000 A 
ATOM     31  F   UNL     1       0.631  16.946  19.101  0.00  0.00    +0.000 F 
ENDBRANCH  22  25
ENDBRANCH   6  21
BRANCH   4  32
ATOM     32  C   UNL     1      -3.186  14.971  24.530  0.00  0.00    +0.000 C 
ATOM     33  O   UNL     1      -2.626  15.896  25.089  0.00  0.00    +0.000 OA
BRANCH  32  34
ATOM     34  O   UNL     1      -4.516  14.755  24.617  0.00  0.00    +0.000 OA
ATOM     35  H   UNL     1      -5.062  15.126  23.897  0.00  0.00    +0.000 HD
ENDBRANCH  32  34
ENDBRANCH   4  32
TORSDOF 6
ENDMDL
MODEL 7
REMARK VINA RESULT:      -6.9      3.000      5.544
REMARK  Name = 
REMARK  8 active torsions:
REMARK  status: ('A' for Active; 'I' for Inactive)
REMARK    1  A    between atoms: C_1  and  C_2
REMARK    2  A    between atoms: C_6  and  N_7
REMARK    3  A    between atoms: N_10  and  C_11
REMARK    4  A    between atoms: C_14  and  C_15
REMARK    5  A    between atoms: C_15  and  O_17
REMARK    6  A    between atoms: C_19  and  N_20
REMARK    7  A    between atoms: C_21  and  C_23
REMARK    8  A    between atoms: C_31  and  C_32
REMARK                            x       y       z     vdW  Elec       q    Type
REMARK                         _______ _______ _______ _____ _____    ______ ____
ROOT
ATOM      1  C   UNL     1      -1.062  11.915  22.300  0.00  0.00    +0.000 A 
ATOM      2  C   UNL     1      -2.202  11.622  23.097  0.00  0.00    +0.000 A 
ATOM      3  C   UNL     1      -2.905  12.592  23.810  0.00  0.00    +0.000 A 
ATOM      4  C   UNL     1      -2.458  13.901  23.791  0.00  0.00    +0.000 A 
ATOM      5  C   UNL     1      -1.307  14.213  23.067  0.00  0.00    +0.000 A 
ATOM      6  C   UNL     1      -0.634  13.269  22.263  0.00  0.00    +0.000 A 
ENDROOT
BRANCH   1  10
ATOM      7  N   UNL     1       1.125   8.679  20.629  0.00  0.00    +0.000 N 
ATOM      8  C   UNL     1       1.032   9.929  19.851  0.00  0.00    +0.000 C 
ATOM      9  C   UNL     1      -0.271  10.709  20.203  0.00  0.00    +0.000 C 
ATOM     10  N   UNL     1      -0.473  10.832  21.657  0.00  0.00    +0.000 N 
ATOM     11  C   UNL     1      -0.351   9.559  22.406  0.00  0.00    +0.000 C 
ATOM     12  C   UNL     1       0.984   8.833  22.096  0.00  0.00    +0.000 C 
ATOM     13  C   UNL     1       2.199   9.559  22.688  0.00  0.00    +0.000 C 
BRANCH   7  19
ATOM     14  C   UNL     1       1.782   3.762  20.892  0.00  0.00    +0.000 C 
ATOM     15  C   UNL     1       2.000   5.072  20.194  0.00  0.00    +0.000 A 
ATOM     16  C   UNL     1       2.683   5.120  18.976  0.00  0.00    +0.000 A 
ATOM     17  C   UNL     1       2.846   6.335  18.324  0.00  0.00    +0.000 A 
ATOM     18  C   UNL     1       2.319   7.501  18.882  0.00  0.00    +0.000 A 
ATOM     19  C   UNL     1       1.620   7.499  20.101  0.00  0.00    +0.000 A 
ATOM     20  C   UNL     1       1.482   6.262  20.746  0.00  0.00    +0.000 A 
ENDBRANCH   7  19
ENDBRANCH   1  10
BRANCH   6  21
ATOM     21  N   UNL     1       0.416  13.709  21.396  0.00  0.00    +0.000 N 
ATOM     22  C   UNL     1       0.264  14.186  20.095  0.00  0.00    +0.000 C 
ATOM     23  O   UNL     1      -0.796  14.230  19.475  0.00  0.00    +0.000 OA
ATOM     24  H   UNL     1       1.357  13.559  21.738  0.00  0.00    +0.000 HD
BRANCH  22  25
ATOM     25  C   UNL     1       1.462  14.691  19.362  0.00  0.00    +0.000 A 
ATOM     26  C   UNL     1       1.571  16.085  19.176  0.00  0.00    +0.000 A 
ATOM     27  C   UNL     1       2.682  16.645  18.540  0.00  0.00    +0.000 A 
ATOM     28  C   UNL     1       3.699  15.817  18.075  0.00  0.00    +0.000 A 
ATOM     29  C   UNL     1       3.593  14.433  18.232  0.00  0.00    +0.000 A 
ATOM     30  C   UNL     1       2.479  13.880  18.870  0.00  0.00    +0.000 A 
ATOM     31  F   UNL     1       2.417  12.546  18.993  0.00  0.00    +0.000 F 
ENDBRANCH  22  25
ENDBRANCH   6  21
BRANCH   4  32
ATOM     32  C   UNL     1      -3.200  14.927  24.566  0.00  0.00    +0.000 C 
ATOM     33  O   UNL     1      -2.636  15.770  25.242  0.00  0.00    +0.000 OA
BRANCH  32  34
ATOM     34  O   UNL     1      -4.543  14.805  24.513  0.00  0.00    +0.000 OA
ATOM     35  H   UNL     1      -4.955  14.254  25.208  0.00  0.00    +0.000 HD
ENDBRANCH  32  34
ENDBRANCH   4  32
TORSDOF 6
ENDMDL
MODEL 8
REMARK VINA RESULT:      -6.8      2.287      2.772
REMARK  Name = 
REMARK  8 active torsions:
REMARK  status: ('A' for Active; 'I' for Inactive)
REMARK    1  A    between atoms: C_1  and  C_2
REMARK    2  A    between atoms: C_6  and  N_7
REMARK    3  A    between atoms: N_10  and  C_11
REMARK    4  A    between atoms: C_14  and  C_15
REMARK    5  A    between atoms: C_15  and  O_17
REMARK    6  A    between atoms: C_19  and  N_20
REMARK    7  A    between atoms: C_21  and  C_23
REMARK    8  A    between atoms: C_31  and  C_32
REMARK                            x       y       z     vdW  Elec       q    Type
REMARK                         _______ _______ _______ _____ _____    ______ ____
ROOT
ATOM      1  C   UNL     1       1.339  13.619  19.262  0.00  0.00    +0.000 A 
ATOM      2  C   UNL     1       2.314  14.242  18.436  0.00  0.00    +0.000 A 
ATOM      3  C   UNL     1       2.293  15.601  18.123  0.00  0.00    +0.000 A 
ATOM      4  C   UNL     1       1.255  16.386  18.591  0.00  0.00    +0.000 A 
ATOM      5  C   UNL     1       0.248  15.793  19.355  0.00  0.00    +0.000 A 
ATOM      6  C   UNL     1       0.297  14.444  19.763  0.00  0.00    +0.000 A 
ENDROOT
BRANCH   1  10
ATOM      7  N   UNL     1       1.433   9.388  19.630  0.00  0.00    +0.000 N 
ATOM      8  C   UNL     1       0.958  10.174  20.784  0.00  0.00    +0.000 C 
ATOM      9  C   UNL     1       1.593  11.598  20.788  0.00  0.00    +0.000 C 
ATOM     10  N   UNL     1       1.502  12.254  19.472  0.00  0.00    +0.000 N 
ATOM     11  C   UNL     1       1.969  11.425  18.336  0.00  0.00    +0.000 C 
ATOM     12  C   UNL     1       1.273  10.039  18.309  0.00  0.00    +0.000 C 
ATOM     13  C   UNL     1      -0.209  10.134  17.923  0.00  0.00    +0.000 C 
BRANCH   7  19
ATOM     14  C   UNL     1       3.384   5.257  17.679  0.00  0.00    +0.000 C 
ATOM     15  C   UNL     1       2.632   5.953  18.775  0.00  0.00    +0.000 A 
ATOM     16  C   UNL     1       2.224   5.250  19.911  0.00  0.00    +0.000 A 
ATOM     17  C   UNL     1       1.561   5.915  20.933  0.00  0.00    +0.000 A 
ATOM     18  C   UNL     1       1.313   7.286  20.826  0.00  0.00    +0.000 A 
ATOM     19  C   UNL     1       1.710   8.033  19.705  0.00  0.00    +0.000 A 
ATOM     20  C   UNL     1       2.365   7.334  18.681  0.00  0.00    +0.000 A 
ENDBRANCH   7  19
ENDBRANCH   1  10
BRANCH   6  21
ATOM     21  N   UNL     1      -0.665  13.963  20.707  0.00  0.00    +0.000 N 
ATOM     22  C   UNL     1      -0.616  14.131  22.090  0.00  0.00    +0.000 C 
ATOM     23  O   UNL     1       0.305  14.661  22.708  0.00  0.00    +0.000 OA
ATOM     24  H   UNL     1      -1.385  13.360  20.329  0.00  0.00    +0.000 HD
BRANCH  22  25
ATOM     25  C   UNL     1      -1.754  13.641  22.922  0.00  0.00    +0.000 A 
ATOM     26  C   UNL     1      -2.457  14.594  23.688  0.00  0.00    +0.000 A 
ATOM     27  C   UNL     1      -3.563  14.227  24.460  0.00  0.00    +0.000 A 
ATOM     28  C   UNL     1      -3.980  12.900  24.480  0.00  0.00    +0.000 A 
ATOM     29  C   UNL     1      -3.278  11.942  23.744  0.00  0.00    +0.000 A 
ATOM     30  C   UNL     1      -2.174  12.316  22.973  0.00  0.00    +0.000 A 
ATOM     31  F   UNL     1      -1.528  11.362  22.286  0.00  0.00    +0.000 F 
ENDBRANCH  22  25
ENDBRANCH   6  21
BRANCH   4  32
ATOM     32  C   UNL     1       1.226  17.829  18.240  0.00  0.00    +0.000 C 
ATOM     33  O   UNL     1       0.522  18.631  18.827  0.00  0.00    +0.000 OA
BRANCH  32  34
ATOM     34  O   UNL     1       1.991  18.160  17.178  0.00  0.00    +0.000 OA
ATOM     35  H   UNL     1       1.880  19.067  16.831  0.00  0.00    +0.000 HD
ENDBRANCH  32  34
ENDBRANCH   4  32
TORSDOF 6
ENDMDL
MODEL 9
REMARK VINA RESULT:      -6.8      3.080      7.159
REMARK  Name = 
REMARK  8 active torsions:
REMARK  status: ('A' for Active; 'I' for Inactive)
REMARK    1  A    between atoms: C_1  and  C_2
REMARK    2  A    between atoms: C_6  and  N_7
REMARK    3  A    between atoms: N_10  and  C_11
REMARK    4  A    between atoms: C_14  and  C_15
REMARK    5  A    between atoms: C_15  and  O_17
REMARK    6  A    between atoms: C_19  and  N_20
REMARK    7  A    between atoms: C_21  and  C_23
REMARK    8  A    between atoms: C_31  and  C_32
REMARK                            x       y       z     vdW  Elec       q    Type
REMARK                         _______ _______ _______ _____ _____    ______ ____
ROOT
ATOM      1  C   UNL     1      -0.565  13.663  20.371  0.00  0.00    +0.000 A 
ATOM      2  C   UNL     1      -1.465  14.602  20.945  0.00  0.00    +0.000 A 
ATOM      3  C   UNL     1      -2.809  14.322  21.185  0.00  0.00    +0.000 A 
ATOM      4  C   UNL     1      -3.321  13.094  20.809  0.00  0.00    +0.000 A 
ATOM      5  C   UNL     1      -2.480  12.170  20.187  0.00  0.00    +0.000 A 
ATOM      6  C   UNL     1      -1.098  12.394  20.019  0.00  0.00    +0.000 A 
ENDROOT
BRANCH   1  10
ATOM      7  N   UNL     1       3.485  14.624  19.522  0.00  0.00    +0.000 N 
ATOM      8  C   UNL     1       3.179  13.989  20.818  0.00  0.00    +0.000 C 
ATOM      9  C   UNL     1       1.724  14.317  21.270  0.00  0.00    +0.000 C 
ATOM     10  N   UNL     1       0.742  14.102  20.193  0.00  0.00    +0.000 N 
ATOM     11  C   UNL     1       1.095  14.737  18.901  0.00  0.00    +0.000 C 
ATOM     12  C   UNL     1       2.520  14.342  18.434  0.00  0.00    +0.000 C 
ATOM     13  C   UNL     1       2.607  12.875  17.993  0.00  0.00    +0.000 C 
BRANCH   7  19
ATOM     14  C   UNL     1       7.002  18.041  20.320  0.00  0.00    +0.000 C 
ATOM     15  C   UNL     1       6.481  16.857  19.559  0.00  0.00    +0.000 A 
ATOM     16  C   UNL     1       7.252  16.266  18.555  0.00  0.00    +0.000 A 
ATOM     17  C   UNL     1       6.773  15.149  17.884  0.00  0.00    +0.000 A 
ATOM     18  C   UNL     1       5.528  14.615  18.221  0.00  0.00    +0.000 A 
ATOM     19  C   UNL     1       4.721  15.174  19.227  0.00  0.00    +0.000 A 
ATOM     20  C   UNL     1       5.222  16.309  19.879  0.00  0.00    +0.000 A 
ENDBRANCH   7  19
ENDBRANCH   1  10
BRANCH   6  21
ATOM     21  N   UNL     1      -0.266  11.325  19.557  0.00  0.00    +0.000 N 
ATOM     22  C   UNL     1       0.428  10.416  20.355  0.00  0.00    +0.000 C 
ATOM     23  O   UNL     1       0.481  10.448  21.583  0.00  0.00    +0.000 OA
ATOM     24  H   UNL     1      -0.096  11.303  18.559  0.00  0.00    +0.000 HD
BRANCH  22  25
ATOM     25  C   UNL     1       1.177   9.302  19.705  0.00  0.00    +0.000 A 
ATOM     26  C   UNL     1       1.517   9.453  18.344  0.00  0.00    +0.000 A 
ATOM     27  C   UNL     1       2.257   8.477  17.671  0.00  0.00    +0.000 A 
ATOM     28  C   UNL     1       2.663   7.331  18.349  0.00  0.00    +0.000 A 
ATOM     29  C   UNL     1       2.314   7.159  19.690  0.00  0.00    +0.000 A 
ATOM     30  C   UNL     1       1.575   8.140  20.358  0.00  0.00    +0.000 A 
ATOM     31  F   UNL     1       1.258   7.929  21.644  0.00  0.00    +0.000 F 
ENDBRANCH  22  25
ENDBRANCH   6  21
BRANCH   4  32
ATOM     32  C   UNL     1      -4.759  12.807  21.050  0.00  0.00    +0.000 C 
ATOM     33  O   UNL     1      -5.159  12.293  22.079  0.00  0.00    +0.000 OA
BRANCH  32  34
ATOM     34  O   UNL     1      -5.568  13.100  20.010  0.00  0.00    +0.000 OA
ATOM     35  H   UNL     1      -5.264  13.810  19.412  0.00  0.00    +0.000 HD
ENDBRANCH  32  34
ENDBRANCH   4  32
TORSDOF 6
ENDMDL
