MODEL 1
REMARK VINA RESULT:      -8.0      0.000      0.000
REMARK  Name = 
REMARK  9 active torsions:
REMARK  status: ('A' for Active; 'I' for Inactive)
REMARK    1  A    between atoms: C_2  and  C_12
REMARK    2  A    between atoms: N_3  and  C_4
REMARK    3  A    between atoms: C_4  and  C_5
REMARK    4  A    between atoms: C_15  and  C_16
REMARK    5  A    between atoms: C_16  and  C_17
REMARK    6  A    between atoms: C_17  and  N_18
REMARK    7  A    between atoms: N_18  and  C_19
REMARK    8  A    between atoms: C_19  and  C_20
REMARK    9  A    between atoms: C_20  and  C_21
REMARK                            x       y       z     vdW  Elec       q    Type
REMARK                         _______ _______ _______ _____ _____    ______ ____
ROOT
ATOM      1  C   UNL     1       1.886   8.548  18.881  0.00  0.00    +0.000 A 
ATOM      2  C   UNL     1       2.749   7.917  18.014  0.00  0.00    +0.000 A 
ATOM      3  N   UNL     1       3.081   6.676  18.477  0.00  0.00    +0.000 NA
ATOM      4  C   UNL     1       2.407   6.567  19.603  0.00  0.00    +0.000 A 
ATOM      5  O   UNL     1       1.668   7.689  19.939  0.00  0.00    +0.000 OA
ENDROOT
BRANCH   1   7
ATOM      6  O   UNL     1       1.838  10.789  18.181  0.00  0.00    +0.000 OA
ATOM      7  C   UNL     1       1.249   9.841  18.720  0.00  0.00    +0.000 C 
ATOM      8  N   UNL     1      -0.028  10.009  19.195  0.00  0.00    +0.000 N 
ATOM      9  H   UNL     1      -0.424   9.314  19.823  0.00  0.00    +0.000 HD
BRANCH   8  10
ATOM     10  C   UNL     1      -0.670  11.316  19.098  0.00  0.00    +0.000 C 
BRANCH  10  11
ATOM     11  C   UNL     1      -2.091  11.289  18.588  0.00  0.00    +0.000 A 
ATOM     12  N   UNL     1      -3.038  11.998  19.268  0.00  0.00    +0.000 NA
ATOM     13  C   UNL     1      -4.307  11.932  18.804  0.00  0.00    +0.000 A 
ATOM     14  C   UNL     1      -4.693  11.210  17.683  0.00  0.00    +0.000 A 
ATOM     15  C   UNL     1      -3.715  10.501  16.992  0.00  0.00    +0.000 A 
ATOM     16  C   UNL     1      -2.404  10.540  17.453  0.00  0.00    +0.000 A 
ATOM     17  F   UNL     1      -1.461   9.849  16.796  0.00  0.00    +0.000 F 
ENDBRANCH  10  11
ENDBRANCH   8  10
ENDBRANCH   1   7
BRANCH   4  18
ATOM     18  C   UNL     1       2.325   5.356  20.476  0.00  0.00    +0.000 C 
BRANCH  18  19
ATOM     19  C   UNL     1       1.503   4.253  19.787  0.00  0.00    +0.000 C 
BRANCH  19  20
ATOM     20  N   UNL     1       1.972   3.951  18.423  0.00  0.00    +0.000 NA
ATOM     21  H   UNL     1       2.929   4.292  18.312  0.00  0.00    +0.000 HD
BRANCH  20  22
ATOM     22  C   UNL     1       1.970   2.494  18.199  0.00  0.00    +0.000 C 
BRANCH  22  23
ATOM     23  C   UNL     1       3.400   1.955  18.078  0.00  0.00    +0.000 C 
BRANCH  23  24
ATOM     24  C   UNL     1       4.378   3.071  17.943  0.00  0.00    +0.000 A 
ATOM     25  N   UNL     1       4.639   3.754  16.848  0.00  0.00    +0.000 NA
ATOM     26  C   UNL     1       5.591   4.677  17.205  0.00  0.00    +0.000 A 
ATOM     27  C   UNL     1       6.230   5.653  16.428  0.00  0.00    +0.000 A 
ATOM     28  C   UNL     1       7.181   6.480  17.039  0.00  0.00    +0.000 A 
ATOM     29  C   UNL     1       7.481   6.344  18.397  0.00  0.00    +0.000 A 
ATOM     30  C   UNL     1       6.849   5.378  19.190  0.00  0.00    +0.000 A 
ATOM     31  C   UNL     1       5.913   4.561  18.553  0.00  0.00    +0.000 A 
ATOM     32  N   UNL     1       5.132   3.526  18.998  0.00  0.00    +0.000 N 
ATOM     33  H   UNL     1       5.114   3.160  19.939  0.00  0.00    +0.000 HD
ENDBRANCH  23  24
ENDBRANCH  22  23
ENDBRANCH  20  22
ENDBRANCH  19  20
ENDBRANCH  18  19
ENDBRANCH   4  18
TORSDOF 9
ENDMDL
MODEL 2
REMARK VINA RESULT:      -7.7      1.677      3.670
REMARK  Name = 
REMARK  9 active torsions:
REMARK  status: ('A' for Active; 'I' for Inactive)
REMARK    1  A    between atoms: C_2  and  C_12
REMARK    2  A    between atoms: N_3  and  C_4
REMARK    3  A    between atoms: C_4  and  C_5
REMARK    4  A    between atoms: C_15  and  C_16
REMARK    5  A    between atoms: C_16  and  C_17
REMARK    6  A    between atoms: C_17  and  N_18
REMARK    7  A    between atoms: N_18  and  C_19
REMARK    8  A    between atoms: C_19  and  C_20
REMARK    9  A    between atoms: C_20  and  C_21
REMARK                            x       y       z     vdW  Elec       q    Type
REMARK                         _______ _______ _______ _____ _____    ______ ____
ROOT
ATOM      1  C   UNL     1       1.872   8.447  18.820  0.00  0.00    +0.000 A 
ATOM      2  C   UNL     1       2.278   7.357  19.557  0.00  0.00    +0.000 A 
ATOM      3  N   UNL     1       3.247   6.658  18.896  0.00  0.00    +0.000 NA
ATOM      4  C   UNL     1       3.424   7.338  17.782  0.00  0.00    +0.000 A 
ATOM      5  O   UNL     1       2.595   8.439  17.645  0.00  0.00    +0.000 OA
ENDROOT
BRANCH   1   7
ATOM      6  O   UNL     1       0.520   9.585  20.366  0.00  0.00    +0.000 OA
ATOM      7  C   UNL     1       0.918   9.472  19.198  0.00  0.00    +0.000 C 
ATOM      8  N   UNL     1       0.440  10.316  18.226  0.00  0.00    +0.000 N 
ATOM      9  H   UNL     1       0.592  10.089  17.247  0.00  0.00    +0.000 HD
BRANCH   8  10
ATOM     10  C   UNL     1      -0.564  11.319  18.568  0.00  0.00    +0.000 C 
BRANCH  10  11
ATOM     11  C   UNL     1      -1.893  11.149  17.871  0.00  0.00    +0.000 A 
ATOM     12  N   UNL     1      -1.926  10.450  16.700  0.00  0.00    +0.000 NA
ATOM     13  C   UNL     1      -3.126  10.338  16.084  0.00  0.00    +0.000 A 
ATOM     14  C   UNL     1      -4.310  10.871  16.576  0.00  0.00    +0.000 A 
ATOM     15  C   UNL     1      -4.263  11.571  17.778  0.00  0.00    +0.000 A 
ATOM     16  C   UNL     1      -3.041  11.712  18.427  0.00  0.00    +0.000 A 
ATOM     17  F   UNL     1      -2.992  12.397  19.580  0.00  0.00    +0.000 F 
ENDBRANCH  10  11
ENDBRANCH   8  10
ENDBRANCH   1   7
BRANCH   4  18
ATOM     18  C   UNL     1       4.454   7.068  16.731  0.00  0.00    +0.000 C 
BRANCH  18  19
ATOM     19  C   UNL     1       5.816   6.770  17.379  0.00  0.00    +0.000 C 
BRANCH  19  20
ATOM     20  N   UNL     1       5.949   5.370  17.822  0.00  0.00    +0.000 NA
ATOM     21  H   UNL     1       5.077   5.072  18.262  0.00  0.00    +0.000 HD
BRANCH  20  22
ATOM     22  C   UNL     1       6.207   4.495  16.663  0.00  0.00    +0.000 C 
BRANCH  22  23
ATOM     23  C   UNL     1       4.995   3.605  16.367  0.00  0.00    +0.000 C 
BRANCH  23  24
ATOM     24  C   UNL     1       4.157   3.426  17.587  0.00  0.00    +0.000 A 
ATOM     25  N   UNL     1       4.568   2.990  18.760  0.00  0.00    +0.000 NA
ATOM     26  C   UNL     1       3.457   3.003  19.568  0.00  0.00    +0.000 A 
ATOM     27  C   UNL     1       3.323   2.631  20.913  0.00  0.00    +0.000 A 
ATOM     28  C   UNL     1       2.062   2.736  21.515  0.00  0.00    +0.000 A 
ATOM     29  C   UNL     1       0.962   3.208  20.794  0.00  0.00    +0.000 A 
ATOM     30  C   UNL     1       1.079   3.588  19.451  0.00  0.00    +0.000 A 
ATOM     31  C   UNL     1       2.344   3.465  18.875  0.00  0.00    +0.000 A 
ATOM     32  N   UNL     1       2.816   3.721  17.612  0.00  0.00    +0.000 N 
ATOM     33  H   UNL     1       2.271   4.066  16.835  0.00  0.00    +0.000 HD
ENDBRANCH  23  24
ENDBRANCH  22  23
ENDBRANCH  20  22
ENDBRANCH  19  20
ENDBRANCH  18  19
ENDBRANCH   4  18
TORSDOF 9
ENDMDL
MODEL 3
REMARK VINA RESULT:      -7.5      1.775      2.382
REMARK  Name = 
REMARK  9 active torsions:
REMARK  status: ('A' for Active; 'I' for Inactive)
REMARK    1  A    between atoms: C_2  and  C_12
REMARK    2  A    between atoms: N_3  and  C_4
REMARK    3  A    between atoms: C_4  and  C_5
REMARK    4  A    between atoms: C_15  and  C_16
REMARK    5  A    between atoms: C_16  and  C_17
REMARK    6  A    between atoms: C_17  and  N_18
REMARK    7  A    between atoms: N_18  and  C_19
REMARK    8  A    between atoms: C_19  and  C_20
REMARK    9  A    between atoms: C_20  and  C_21
REMARK                            x       y       z     vdW  Elec       q    Type
REMARK                         _______ _______ _______ _____ _____    ______ ____
ROOT
ATOM      1  C   UNL     1       2.042   7.997  18.890  0.00  0.00    +0.000 A 
ATOM      2  C   UNL     1       2.440   7.091  17.933  0.00  0.00    +0.000 A 
ATOM      3  N   UNL     1       2.583   5.845  18.472  0.00  0.00    +0.000 NA
ATOM      4  C   UNL     1       2.259   6.010  19.739  0.00  0.00    +0.000 A 
ATOM      5  O   UNL     1       1.940   7.312  20.084  0.00  0.00    +0.000 OA
ENDROOT
BRANCH   1   7
ATOM      6  O   UNL     1       1.993   9.996  17.659  0.00  0.00    +0.000 OA
ATOM      7  C   UNL     1       1.716   9.399  18.709  0.00  0.00    +0.000 C 
ATOM      8  N   UNL     1       1.105  10.070  19.739  0.00  0.00    +0.000 N 
ATOM      9  H   UNL     1       1.078   9.650  20.665  0.00  0.00    +0.000 HD
BRANCH   8  10
ATOM     10  C   UNL     1       0.818  11.495  19.606  0.00  0.00    +0.000 C 
BRANCH  10  11
ATOM     11  C   UNL     1      -0.247  12.018  20.539  0.00  0.00    +0.000 A 
ATOM     12  N   UNL     1       0.116  12.359  21.810  0.00  0.00    +0.000 NA
ATOM     13  C   UNL     1      -0.864  12.799  22.633  0.00  0.00    +0.000 A 
ATOM     14  C   UNL     1      -2.194  12.937  22.260  0.00  0.00    +0.000 A 
ATOM     15  C   UNL     1      -2.548  12.598  20.957  0.00  0.00    +0.000 A 
ATOM     16  C   UNL     1      -1.563  12.132  20.093  0.00  0.00    +0.000 A 
ATOM     17  F   UNL     1      -1.903  11.793  18.840  0.00  0.00    +0.000 F 
ENDBRANCH  10  11
ENDBRANCH   8  10
ENDBRANCH   1   7
BRANCH   4  18
ATOM     18  C   UNL     1       2.144   4.935  20.772  0.00  0.00    +0.000 C 
BRANCH  18  19
ATOM     19  C   UNL     1       1.014   3.958  20.408  0.00  0.00    +0.000 C 
BRANCH  19  20
ATOM     20  N   UNL     1       1.392   3.012  19.342  0.00  0.00    +0.000 NA
ATOM     21  H   UNL     1       1.558   3.528  18.477  0.00  0.00    +0.000 HD
BRANCH  20  22
ATOM     22  C   UNL     1       2.635   2.308  19.709  0.00  0.00    +0.000 C 
BRANCH  22  23
ATOM     23  C   UNL     1       3.526   2.093  18.481  0.00  0.00    +0.000 C 
BRANCH  23  24
ATOM     24  C   UNL     1       4.534   3.183  18.357  0.00  0.00    +0.000 A 
ATOM     25  N   UNL     1       5.233   3.716  19.338  0.00  0.00    +0.000 NA
ATOM     26  C   UNL     1       6.031   4.666  18.749  0.00  0.00    +0.000 A 
ATOM     27  C   UNL     1       6.966   5.536  19.328  0.00  0.00    +0.000 A 
ATOM     28  C   UNL     1       7.657   6.427  18.497  0.00  0.00    +0.000 A 
ATOM     29  C   UNL     1       7.428   6.444  17.118  0.00  0.00    +0.000 A 
ATOM     30  C   UNL     1       6.501   5.580  16.523  0.00  0.00    +0.000 A 
ATOM     31  C   UNL     1       5.820   4.709  17.376  0.00  0.00    +0.000 A 
ATOM     32  N   UNL     1       4.856   3.759  17.152  0.00  0.00    +0.000 N 
ATOM     33  H   UNL     1       4.452   3.524  16.258  0.00  0.00    +0.000 HD
ENDBRANCH  23  24
ENDBRANCH  22  23
ENDBRANCH  20  22
ENDBRANCH  19  20
ENDBRANCH  18  19
ENDBRANCH   4  18
TORSDOF 9
ENDMDL
MODEL 4
REMARK VINA RESULT:      -7.5      5.663      8.539
REMARK  Name = 
REMARK  9 active torsions:
REMARK  status: ('A' for Active; 'I' for Inactive)
REMARK    1  A    between atoms: C_2  and  C_12
REMARK    2  A    between atoms: N_3  and  C_4
REMARK    3  A    between atoms: C_4  and  C_5
REMARK    4  A    between atoms: C_15  and  C_16
REMARK    5  A    between atoms: C_16  and  C_17
REMARK    6  A    between atoms: C_17  and  N_18
REMARK    7  A    between atoms: N_18  and  C_19
REMARK    8  A    between atoms: C_19  and  C_20
REMARK    9  A    between atoms: C_20  and  C_21
REMARK                            x       y       z     vdW  Elec       q    Type
REMARK                         _______ _______ _______ _____ _____    ______ ____
ROOT
ATOM      1  C   UNL     1       8.758   9.168  18.668  0.00  0.00    +0.000 A 
ATOM      2  C   UNL     1       7.961   9.163  17.545  0.00  0.00    +0.000 A 
ATOM      3  N   UNL     1       7.445   7.919  17.322  0.00  0.00    +0.000 NA
ATOM      4  C   UNL     1       7.920   7.196  18.315  0.00  0.00    +0.000 A 
ATOM      5  O   UNL     1       8.761   7.884  19.173  0.00  0.00    +0.000 OA
ENDROOT
BRANCH   1   7
ATOM      6  O   UNL     1       9.366  10.507  20.499  0.00  0.00    +0.000 OA
ATOM      7  C   UNL     1       9.429  10.300  19.279  0.00  0.00    +0.000 C 
ATOM      8  N   UNL     1      10.131  11.162  18.472  0.00  0.00    +0.000 N 
ATOM      9  H   UNL     1      10.003  11.121  17.465  0.00  0.00    +0.000 HD
BRANCH   8  10
ATOM     10  C   UNL     1      10.767  12.340  19.053  0.00  0.00    +0.000 C 
BRANCH  10  11
ATOM     11  C   UNL     1      10.352  13.654  18.435  0.00  0.00    +0.000 A 
ATOM     12  N   UNL     1      11.237  14.292  17.615  0.00  0.00    +0.000 NA
ATOM     13  C   UNL     1      10.849  15.481  17.098  0.00  0.00    +0.000 A 
ATOM     14  C   UNL     1       9.616  16.072  17.337  0.00  0.00    +0.000 A 
ATOM     15  C   UNL     1       8.719  15.404  18.166  0.00  0.00    +0.000 A 
ATOM     16  C   UNL     1       9.095  14.186  18.720  0.00  0.00    +0.000 A 
ATOM     17  F   UNL     1       8.237  13.545  19.529  0.00  0.00    +0.000 F 
ENDBRANCH  10  11
ENDBRANCH   8  10
ENDBRANCH   1   7
BRANCH   4  18
ATOM     18  C   UNL     1       7.583   5.770  18.616  0.00  0.00    +0.000 C 
BRANCH  18  19
ATOM     19  C   UNL     1       7.653   4.921  17.336  0.00  0.00    +0.000 C 
BRANCH  19  20
ATOM     20  N   UNL     1       6.417   4.159  17.082  0.00  0.00    +0.000 NA
ATOM     21  H   UNL     1       5.832   4.176  17.919  0.00  0.00    +0.000 HD
BRANCH  20  22
ATOM     22  C   UNL     1       5.662   4.776  15.975  0.00  0.00    +0.000 C 
BRANCH  22  23
ATOM     23  C   UNL     1       4.627   5.773  16.507  0.00  0.00    +0.000 C 
BRANCH  23  24
ATOM     24  C   UNL     1       3.731   5.127  17.508  0.00  0.00    +0.000 A 
ATOM     25  N   UNL     1       2.808   4.220  17.260  0.00  0.00    +0.000 NA
ATOM     26  C   UNL     1       2.253   3.916  18.479  0.00  0.00    +0.000 A 
ATOM     27  C   UNL     1       1.223   3.020  18.796  0.00  0.00    +0.000 A 
ATOM     28  C   UNL     1       0.832   2.895  20.136  0.00  0.00    +0.000 A 
ATOM     29  C   UNL     1       1.460   3.641  21.137  0.00  0.00    +0.000 A 
ATOM     30  C   UNL     1       2.493   4.538  20.839  0.00  0.00    +0.000 A 
ATOM     31  C   UNL     1       2.856   4.649  19.496  0.00  0.00    +0.000 A 
ATOM     32  N   UNL     1       3.790   5.417  18.849  0.00  0.00    +0.000 N 
ATOM     33  H   UNL     1       4.412   6.083  19.283  0.00  0.00    +0.000 HD
ENDBRANCH  23  24
ENDBRANCH  22  23
ENDBRANCH  20  22
ENDBRANCH  19  20
ENDBRANCH  18  19
ENDBRANCH   4  18
TORSDOF 9
ENDMDL
MODEL 5
REMARK VINA RESULT:      -7.4      6.190      9.561
REMARK  Name = 
REMARK  9 active torsions:
REMARK  status: ('A' for Active; 'I' for Inactive)
REMARK    1  A    between atoms: C_2  and  C_12
REMARK    2  A    between atoms: N_3  and  C_4
REMARK    3  A    between atoms: C_4  and  C_5
REMARK    4  A    between atoms: C_15  and  C_16
REMARK    5  A    between atoms: C_16  and  C_17
REMARK    6  A    between atoms: C_17  and  N_18
REMARK    7  A    between atoms: N_18  and  C_19
REMARK    8  A    between atoms: C_19  and  C_20
REMARK    9  A    between atoms: C_20  and  C_21
REMARK                            x       y       z     vdW  Elec       q    Type
REMARK                         _______ _______ _______ _____ _____    ______ ____
ROOT
ATOM      1  C   UNL     1       6.333   5.324  17.615  0.00  0.00    +0.000 A 
ATOM      2  C   UNL     1       7.061   5.314  16.447  0.00  0.00    +0.000 A 
ATOM      3  N   UNL     1       7.687   6.512  16.255  0.00  0.00    +0.000 NA
ATOM      4  C   UNL     1       7.343   7.222  17.311  0.00  0.00    +0.000 A 
ATOM      5  O   UNL     1       6.486   6.572  18.183  0.00  0.00    +0.000 OA
ENDROOT
BRANCH   1   7
ATOM      6  O   UNL     1       5.816   3.842  19.363  0.00  0.00    +0.000 OA
ATOM      7  C   UNL     1       5.585   4.230  18.208  0.00  0.00    +0.000 C 
ATOM      8  N   UNL     1       4.619   3.610  17.456  0.00  0.00    +0.000 N 
ATOM      9  H   UNL     1       4.581   3.776  16.454  0.00  0.00    +0.000 HD
BRANCH   8  10
ATOM     10  C   UNL     1       3.893   2.471  18.008  0.00  0.00    +0.000 C 
BRANCH  10  11
ATOM     11  C   UNL     1       2.973   2.801  19.158  0.00  0.00    +0.000 A 
ATOM     12  N   UNL     1       3.327   2.388  20.410  0.00  0.00    +0.000 NA
ATOM     13  C   UNL     1       2.469   2.674  21.417  0.00  0.00    +0.000 A 
ATOM     14  C   UNL     1       1.277   3.367  21.256  0.00  0.00    +0.000 A 
ATOM     15  C   UNL     1       0.934   3.792  19.976  0.00  0.00    +0.000 A 
ATOM     16  C   UNL     1       1.791   3.502  18.919  0.00  0.00    +0.000 A 
ATOM     17  F   UNL     1       1.458   3.901  17.682  0.00  0.00    +0.000 F 
ENDBRANCH  10  11
ENDBRANCH   8  10
ENDBRANCH   1   7
BRANCH   4  18
ATOM     18  C   UNL     1       7.838   8.588  17.661  0.00  0.00    +0.000 C 
BRANCH  18  19
ATOM     19  C   UNL     1       8.668   8.543  18.955  0.00  0.00    +0.000 C 
BRANCH  19  20
ATOM     20  N   UNL     1       9.318   9.829  19.268  0.00  0.00    +0.000 NA
ATOM     21  H   UNL     1      10.311   9.670  19.443  0.00  0.00    +0.000 HD
BRANCH  20  22
ATOM     22  C   UNL     1       9.188  10.751  18.125  0.00  0.00    +0.000 C 
BRANCH  22  23
ATOM     23  C   UNL     1      10.512  11.473  17.850  0.00  0.00    +0.000 C 
BRANCH  23  24
ATOM     24  C   UNL     1      10.315  12.949  17.809  0.00  0.00    +0.000 A 
ATOM     25  N   UNL     1       9.304  13.617  18.325  0.00  0.00    +0.000 NA
ATOM     26  C   UNL     1       9.557  14.939  18.052  0.00  0.00    +0.000 A 
ATOM     27  C   UNL     1       8.804  16.079  18.365  0.00  0.00    +0.000 A 
ATOM     28  C   UNL     1       9.286  17.332  17.965  0.00  0.00    +0.000 A 
ATOM     29  C   UNL     1      10.496  17.447  17.276  0.00  0.00    +0.000 A 
ATOM     30  C   UNL     1      11.263  16.319  16.957  0.00  0.00    +0.000 A 
ATOM     31  C   UNL     1      10.754  15.083  17.361  0.00  0.00    +0.000 A 
ATOM     32  N   UNL     1      11.214  13.800  17.212  0.00  0.00    +0.000 N 
ATOM     33  H   UNL     1      12.066  13.526  16.745  0.00  0.00    +0.000 HD
ENDBRANCH  23  24
ENDBRANCH  22  23
ENDBRANCH  20  22
ENDBRANCH  19  20
ENDBRANCH  18  19
ENDBRANCH   4  18
TORSDOF 9
ENDMDL
MODEL 6
REMARK VINA RESULT:      -7.4      4.858      8.101
REMARK  Name = 
REMARK  9 active torsions:
REMARK  status: ('A' for Active; 'I' for Inactive)
REMARK    1  A    between atoms: C_2  and  C_12
REMARK    2  A    between atoms: N_3  and  C_4
REMARK    3  A    between atoms: C_4  and  C_5
REMARK    4  A    between atoms: C_15  and  C_16
REMARK    5  A    between atoms: C_16  and  C_17
REMARK    6  A    between atoms: C_17  and  N_18
REMARK    7  A    between atoms: N_18  and  C_19
REMARK    8  A    between atoms: C_19  and  C_20
REMARK    9  A    between atoms: C_20  and  C_21
REMARK                            x       y       z     vdW  Elec       q    Type
REMARK                         _______ _______ _______ _____ _____    ______ ____
ROOT
ATOM      1  C   UNL     1       8.108   8.249  18.100  0.00  0.00    +0.000 A 
ATOM      2  C   UNL     1       8.290   7.115  18.858  0.00  0.00    +0.000 A 
ATOM      3  N   UNL     1       7.734   6.028  18.248  0.00  0.00    +0.000 NA
ATOM      4  C   UNL     1       7.239   6.513  17.127  0.00  0.00    +0.000 A 
ATOM      5  O   UNL     1       7.402   7.879  16.973  0.00  0.00    +0.000 OA
ENDROOT
BRANCH   1   7
ATOM      6  O   UNL     1       8.367  10.528  17.592  0.00  0.00    +0.000 OA
ATOM      7  C   UNL     1       8.605   9.587  18.364  0.00  0.00    +0.000 C 
ATOM      8  N   UNL     1       9.368   9.795  19.485  0.00  0.00    +0.000 N 
ATOM      9  H   UNL     1       9.743   8.997  19.992  0.00  0.00    +0.000 HD
BRANCH   8  10
ATOM     10  C   UNL     1       9.929  11.117  19.744  0.00  0.00    +0.000 C 
BRANCH  10  11
ATOM     11  C   UNL     1       9.131  11.969  20.701  0.00  0.00    +0.000 A 
ATOM     12  N   UNL     1       8.692  11.401  21.862  0.00  0.00    +0.000 NA
ATOM     13  C   UNL     1       7.956  12.181  22.688  0.00  0.00    +0.000 A 
ATOM     14  C   UNL     1       7.640  13.509  22.434  0.00  0.00    +0.000 A 
ATOM     15  C   UNL     1       8.104  14.078  21.253  0.00  0.00    +0.000 A 
ATOM     16  C   UNL     1       8.854  13.298  20.379  0.00  0.00    +0.000 A 
ATOM     17  F   UNL     1       9.293  13.841  19.233  0.00  0.00    +0.000 F 
ENDBRANCH  10  11
ENDBRANCH   8  10
ENDBRANCH   1   7
BRANCH   4  18
ATOM     18  C   UNL     1       6.604   5.728  16.024  0.00  0.00    +0.000 C 
BRANCH  18  19
ATOM     19  C   UNL     1       5.084   5.633  16.239  0.00  0.00    +0.000 C 
BRANCH  19  20
ATOM     20  N   UNL     1       4.642   6.248  17.503  0.00  0.00    +0.000 NA
ATOM     21  H   UNL     1       5.457   6.441  18.087  0.00  0.00    +0.000 HD
BRANCH  20  22
ATOM     22  C   UNL     1       3.953   7.523  17.231  0.00  0.00    +0.000 C 
BRANCH  22  23
ATOM     23  C   UNL     1       2.592   7.572  17.934  0.00  0.00    +0.000 C 
BRANCH  23  24
ATOM     24  C   UNL     1       2.325   6.301  18.665  0.00  0.00    +0.000 A 
ATOM     25  N   UNL     1       2.478   6.096  19.957  0.00  0.00    +0.000 NA
ATOM     26  C   UNL     1       2.103   4.792  20.171  0.00  0.00    +0.000 A 
ATOM     27  C   UNL     1       2.078   4.051  21.360  0.00  0.00    +0.000 A 
ATOM     28  C   UNL     1       1.652   2.717  21.310  0.00  0.00    +0.000 A 
ATOM     29  C   UNL     1       1.252   2.139  20.102  0.00  0.00    +0.000 A 
ATOM     30  C   UNL     1       1.267   2.866  18.905  0.00  0.00    +0.000 A 
ATOM     31  C   UNL     1       1.705   4.189  18.984  0.00  0.00    +0.000 A 
ATOM     32  N   UNL     1       1.862   5.169  18.038  0.00  0.00    +0.000 N 
ATOM     33  H   UNL     1       1.672   5.077  17.051  0.00  0.00    +0.000 HD
ENDBRANCH  23  24
ENDBRANCH  22  23
ENDBRANCH  20  22
ENDBRANCH  19  20
ENDBRANCH  18  19
ENDBRANCH   4  18
TORSDOF 9
ENDMDL
MODEL 7
REMARK VINA RESULT:      -7.4      2.391      3.152
REMARK  Name = 
REMARK  9 active torsions:
REMARK  status: ('A' for Active; 'I' for Inactive)
REMARK    1  A    between atoms: C_2  and  C_12
REMARK    2  A    between atoms: N_3  and  C_4
REMARK    3  A    between atoms: C_4  and  C_5
REMARK    4  A    between atoms: C_15  and  C_16
REMARK    5  A    between atoms: C_16  and  C_17
REMARK    6  A    between atoms: C_17  and  N_18
REMARK    7  A    between atoms: N_18  and  C_19
REMARK    8  A    between atoms: C_19  and  C_20
REMARK    9  A    between atoms: C_20  and  C_21
REMARK                            x       y       z     vdW  Elec       q    Type
REMARK                         _______ _______ _______ _____ _____    ______ ____
ROOT
ATOM      1  C   UNL     1       1.668   8.196  19.531  0.00  0.00    +0.000 A 
ATOM      2  C   UNL     1       2.548   7.669  18.612  0.00  0.00    +0.000 A 
ATOM      3  N   UNL     1       2.897   6.393  18.950  0.00  0.00    +0.000 NA
ATOM      4  C   UNL     1       2.217   6.161  20.055  0.00  0.00    +0.000 A 
ATOM      5  O   UNL     1       1.458   7.232  20.495  0.00  0.00    +0.000 OA
ENDROOT
BRANCH   1   7
ATOM      6  O   UNL     1       0.461   9.906  18.466  0.00  0.00    +0.000 OA
ATOM      7  C   UNL     1       1.011   9.489  19.495  0.00  0.00    +0.000 C 
ATOM      8  N   UNL     1       1.024  10.264  20.629  0.00  0.00    +0.000 N 
ATOM      9  H   UNL     1       1.652  10.027  21.391  0.00  0.00    +0.000 HD
BRANCH   8  10
ATOM     10  C   UNL     1       0.421  11.593  20.603  0.00  0.00    +0.000 C 
BRANCH  10  11
ATOM     11  C   UNL     1       1.365  12.711  20.229  0.00  0.00    +0.000 A 
ATOM     12  N   UNL     1       2.324  13.076  21.127  0.00  0.00    +0.000 NA
ATOM     13  C   UNL     1       3.138  14.099  20.776  0.00  0.00    +0.000 A 
ATOM     14  C   UNL     1       3.064  14.777  19.567  0.00  0.00    +0.000 A 
ATOM     15  C   UNL     1       2.089  14.386  18.655  0.00  0.00    +0.000 A 
ATOM     16  C   UNL     1       1.230  13.345  18.994  0.00  0.00    +0.000 A 
ATOM     17  F   UNL     1       0.281  12.973  18.122  0.00  0.00    +0.000 F 
ENDBRANCH  10  11
ENDBRANCH   8  10
ENDBRANCH   1   7
BRANCH   4  18
ATOM     18  C   UNL     1       2.149   4.867  20.800  0.00  0.00    +0.000 C 
BRANCH  18  19
ATOM     19  C   UNL     1       0.994   4.002  20.269  0.00  0.00    +0.000 C 
BRANCH  19  20
ATOM     20  N   UNL     1       1.440   2.688  19.770  0.00  0.00    +0.000 NA
ATOM     21  H   UNL     1       0.647   2.045  19.758  0.00  0.00    +0.000 HD
BRANCH  20  22
ATOM     22  C   UNL     1       1.954   2.819  18.393  0.00  0.00    +0.000 C 
BRANCH  22  23
ATOM     23  C   UNL     1       3.363   2.228  18.276  0.00  0.00    +0.000 C 
BRANCH  23  24
ATOM     24  C   UNL     1       4.378   3.305  18.101  0.00  0.00    +0.000 A 
ATOM     25  N   UNL     1       4.607   3.993  17.002  0.00  0.00    +0.000 NA
ATOM     26  C   UNL     1       5.614   4.871  17.318  0.00  0.00    +0.000 A 
ATOM     27  C   UNL     1       6.250   5.831  16.519  0.00  0.00    +0.000 A 
ATOM     28  C   UNL     1       7.266   6.610  17.088  0.00  0.00    +0.000 A 
ATOM     29  C   UNL     1       7.634   6.442  18.426  0.00  0.00    +0.000 A 
ATOM     30  C   UNL     1       7.006   5.490  19.239  0.00  0.00    +0.000 A 
ATOM     31  C   UNL     1       6.004   4.722  18.644  0.00  0.00    +0.000 A 
ATOM     32  N   UNL     1       5.206   3.713  19.119  0.00  0.00    +0.000 N 
ATOM     33  H   UNL     1       5.224   3.334  20.055  0.00  0.00    +0.000 HD
ENDBRANCH  23  24
ENDBRANCH  22  23
ENDBRANCH  20  22
ENDBRANCH  19  20
ENDBRANCH  18  19
ENDBRANCH   4  18
TORSDOF 9
ENDMDL
MODEL 8
REMARK VINA RESULT:      -7.3      3.138      4.679
REMARK  Name = 
REMARK  9 active torsions:
REMARK  status: ('A' for Active; 'I' for Inactive)
REMARK    1  A    between atoms: C_2  and  C_12
REMARK    2  A    between atoms: N_3  and  C_4
REMARK    3  A    between atoms: C_4  and  C_5
REMARK    4  A    between atoms: C_15  and  C_16
REMARK    5  A    between atoms: C_16  and  C_17
REMARK    6  A    between atoms: C_17  and  N_18
REMARK    7  A    between atoms: N_18  and  C_19
REMARK    8  A    between atoms: C_19  and  C_20
REMARK    9  A    between atoms: C_20  and  C_21
REMARK                            x       y       z     vdW  Elec       q    Type
REMARK                         _______ _______ _______ _____ _____    ______ ____
ROOT
ATOM      1  C   UNL     1       1.151   9.404  20.229  0.00  0.00    +0.000 A 
ATOM      2  C   UNL     1       0.980  10.035  19.018  0.00  0.00    +0.000 A 
ATOM      3  N   UNL     1       1.508   9.290  18.003  0.00  0.00    +0.000 NA
ATOM      4  C   UNL     1       1.976   8.217  18.609  0.00  0.00    +0.000 A 
ATOM      5  O   UNL     1       1.821   8.223  19.985  0.00  0.00    +0.000 OA
ENDROOT
BRANCH   1   7
ATOM      6  O   UNL     1       1.276   9.529  22.572  0.00  0.00    +0.000 OA
ATOM      7  C   UNL     1       0.674   9.831  21.531  0.00  0.00    +0.000 C 
ATOM      8  N   UNL     1      -0.481  10.570  21.598  0.00  0.00    +0.000 N 
ATOM      9  H   UNL     1      -1.086  10.630  20.783  0.00  0.00    +0.000 HD
BRANCH   8  10
ATOM     10  C   UNL     1      -1.015  10.963  22.899  0.00  0.00    +0.000 C 
BRANCH  10  11
ATOM     11  C   UNL     1      -1.309  12.437  23.045  0.00  0.00    +0.000 A 
ATOM     12  N   UNL     1      -0.321  13.328  22.742  0.00  0.00    +0.000 NA
ATOM     13  C   UNL     1      -0.605  14.641  22.909  0.00  0.00    +0.000 A 
ATOM     14  C   UNL     1      -1.829  15.126  23.349  0.00  0.00    +0.000 A 
ATOM     15  C   UNL     1      -2.831  14.207  23.642  0.00  0.00    +0.000 A 
ATOM     16  C   UNL     1      -2.565  12.850  23.491  0.00  0.00    +0.000 A 
ATOM     17  F   UNL     1      -3.525  11.961  23.784  0.00  0.00    +0.000 F 
ENDBRANCH  10  11
ENDBRANCH   8  10
ENDBRANCH   1   7
BRANCH   4  18
ATOM     18  C   UNL     1       2.572   7.014  17.950  0.00  0.00    +0.000 C 
BRANCH  18  19
ATOM     19  C   UNL     1       3.980   7.335  17.421  0.00  0.00    +0.000 C 
BRANCH  19  20
ATOM     20  N   UNL     1       4.920   6.208  17.563  0.00  0.00    +0.000 NA
ATOM     21  H   UNL     1       4.529   5.524  18.212  0.00  0.00    +0.000 HD
BRANCH  20  22
ATOM     22  C   UNL     1       5.120   5.550  16.258  0.00  0.00    +0.000 C 
BRANCH  22  23
ATOM     23  C   UNL     1       4.891   4.039  16.366  0.00  0.00    +0.000 C 
BRANCH  23  24
ATOM     24  C   UNL     1       4.045   3.712  17.548  0.00  0.00    +0.000 A 
ATOM     25  N   UNL     1       2.730   3.763  17.607  0.00  0.00    +0.000 NA
ATOM     26  C   UNL     1       2.401   3.369  18.880  0.00  0.00    +0.000 A 
ATOM     27  C   UNL     1       1.142   3.249  19.485  0.00  0.00    +0.000 A 
ATOM     28  C   UNL     1       1.076   2.823  20.818  0.00  0.00    +0.000 A 
ATOM     29  C   UNL     1       2.239   2.516  21.530  0.00  0.00    +0.000 A 
ATOM     30  C   UNL     1       3.505   2.627  20.941  0.00  0.00    +0.000 A 
ATOM     31  C   UNL     1       3.541   3.061  19.615  0.00  0.00    +0.000 A 
ATOM     32  N   UNL     1       4.576   3.295  18.745  0.00  0.00    +0.000 N 
ATOM     33  H   UNL     1       5.558   3.181  18.949  0.00  0.00    +0.000 HD
ENDBRANCH  23  24
ENDBRANCH  22  23
ENDBRANCH  20  22
ENDBRANCH  19  20
ENDBRANCH  18  19
ENDBRANCH   4  18
TORSDOF 9
ENDMDL
MODEL 9
REMARK VINA RESULT:      -7.2      2.539      3.359
REMARK  Name = 
REMARK  9 active torsions:
REMARK  status: ('A' for Active; 'I' for Inactive)
REMARK    1  A    between atoms: C_2  and  C_12
REMARK    2  A    between atoms: N_3  and  C_4
REMARK    3  A    between atoms: C_4  and  C_5
REMARK    4  A    between atoms: C_15  and  C_16
REMARK    5  A    between atoms: C_16  and  C_17
REMARK    6  A    between atoms: C_17  and  N_18
REMARK    7  A    between atoms: N_18  and  C_19
REMARK    8  A    between atoms: C_19  and  C_20
REMARK    9  A    between atoms: C_20  and  C_21
REMARK                            x       y       z     vdW  Elec       q    Type
REMARK                         _______ _______ _______ _____ _____    ______ ____
ROOT
ATOM      1  C   UNL     1       1.297   8.407  20.167  0.00  0.00    +0.000 A 
ATOM      2  C   UNL     1       2.150   8.093  19.134  0.00  0.00    +0.000 A 
ATOM      3  N   UNL     1       2.616   6.816  19.260  0.00  0.00    +0.000 NA
ATOM      4  C   UNL     1       2.031   6.372  20.354  0.00  0.00    +0.000 A 
ATOM      5  O   UNL     1       1.224   7.301  20.989  0.00  0.00    +0.000 OA
ENDROOT
BRANCH   1   7
ATOM      6  O   UNL     1      -0.608   9.758  19.918  0.00  0.00    +0.000 OA
ATOM      7  C   UNL     1       0.544   9.632  20.359  0.00  0.00    +0.000 C 
ATOM      8  N   UNL     1       1.139  10.672  21.029  0.00  0.00    +0.000 N 
ATOM      9  H   UNL     1       2.142  10.653  21.194  0.00  0.00    +0.000 HD
BRANCH   8  10
ATOM     10  C   UNL     1       0.425  11.935  21.186  0.00  0.00    +0.000 C 
BRANCH  10  11
ATOM     11  C   UNL     1       1.155  13.146  20.657  0.00  0.00    +0.000 A 
ATOM     12  N   UNL     1       1.864  13.911  21.537  0.00  0.00    +0.000 NA
ATOM     13  C   UNL     1       2.485  15.006  21.039  0.00  0.00    +0.000 A 
ATOM     14  C   UNL     1       2.457  15.381  19.703  0.00  0.00    +0.000 A 
ATOM     15  C   UNL     1       1.740  14.585  18.814  0.00  0.00    +0.000 A 
ATOM     16  C   UNL     1       1.082  13.460  19.300  0.00  0.00    +0.000 A 
ATOM     17  F   UNL     1       0.380  12.697  18.447  0.00  0.00    +0.000 F 
ENDBRANCH  10  11
ENDBRANCH   8  10
ENDBRANCH   1   7
BRANCH   4  18
ATOM     18  C   UNL     1       2.111   4.983  20.902  0.00  0.00    +0.000 C 
BRANCH  18  19
ATOM     19  C   UNL     1       1.322   4.008  20.012  0.00  0.00    +0.000 C 
BRANCH  19  20
ATOM     20  N   UNL     1       1.740   4.053  18.598  0.00  0.00    +0.000 NA
ATOM     21  H   UNL     1       2.630   4.548  18.525  0.00  0.00    +0.000 HD
BRANCH  20  22
ATOM     22  C   UNL     1       1.926   2.683  18.084  0.00  0.00    +0.000 C 
BRANCH  22  23
ATOM     23  C   UNL     1       3.326   2.158  18.419  0.00  0.00    +0.000 C 
BRANCH  23  24
ATOM     24  C   UNL     1       4.344   3.239  18.295  0.00  0.00    +0.000 A 
ATOM     25  N   UNL     1       5.131   3.685  19.253  0.00  0.00    +0.000 NA
ATOM     26  C   UNL     1       5.899   4.665  18.674  0.00  0.00    +0.000 A 
ATOM     27  C   UNL     1       6.895   5.474  19.238  0.00  0.00    +0.000 A 
ATOM     28  C   UNL     1       7.537   6.415  18.422  0.00  0.00    +0.000 A 
ATOM     29  C   UNL     1       7.198   6.541  17.072  0.00  0.00    +0.000 A 
ATOM     30  C   UNL     1       6.208   5.739  16.491  0.00  0.00    +0.000 A 
ATOM     31  C   UNL     1       5.580   4.816  17.329  0.00  0.00    +0.000 A 
ATOM     32  N   UNL     1       4.581   3.901  17.115  0.00  0.00    +0.000 N 
ATOM     33  H   UNL     1       4.102   3.741  16.241  0.00  0.00    +0.000 HD
ENDBRANCH  23  24
ENDBRANCH  22  23
ENDBRANCH  20  22
ENDBRANCH  19  20
ENDBRANCH  18  19
ENDBRANCH   4  18
TORSDOF 9
ENDMDL
