MODEL 1
REMARK VINA RESULT:      -7.2      0.000      0.000
REMARK  Name = 
REMARK  4 active torsions:
REMARK  status: ('A' for Active; 'I' for Inactive)
REMARK    1  A    between atoms: C_4  and  C_5
REMARK    2  A    between atoms: C_10  and  O_11
REMARK    3  A    between atoms: C_14  and  C_15
REMARK    4  A    between atoms: C_19  and  C_20
REMARK                            x       y       z     vdW  Elec       q    Type
REMARK                         _______ _______ _______ _____ _____    ______ ____
ROOT
ATOM      1  O   UNL     1       3.355  13.941  21.526  0.00  0.00    +0.000 OA
ATOM      2  C   UNL     1       2.357  13.803  20.850  0.00  0.00    +0.000 A 
ATOM      3  C   UNL     1       1.389  14.872  20.524  0.00  0.00    +0.000 A 
ATOM      4  C   UNL     1       0.308  14.634  19.752  0.00  0.00    +0.000 A 
ATOM      5  N   UNL     1       0.053  13.347  19.256  0.00  0.00    +0.000 N 
ATOM      6  N   UNL     1      -0.954  12.912  18.472  0.00  0.00    +0.000 NA
ATOM      7  C   UNL     1      -0.771  11.582  18.340  0.00  0.00    +0.000 A 
ATOM      8  C   UNL     1       0.430  11.144  18.999  0.00  0.00    +0.000 A 
ATOM      9  C   UNL     1       0.924  12.308  19.552  0.00  0.00    +0.000 A 
ATOM     10  N   UNL     1       2.074  12.513  20.299  0.00  0.00    +0.000 N 
ATOM     11  H   UNL     1       2.743  11.775  20.474  0.00  0.00    +0.000 HD
ENDROOT
BRANCH   8  12
ATOM     12  C   UNL     1       1.009   9.807  19.131  0.00  0.00    +0.000 A 
ATOM     13  C   UNL     1       0.936   9.117  20.352  0.00  0.00    +0.000 A 
ATOM     14  C   UNL     1       1.579   7.886  20.532  0.00  0.00    +0.000 A 
ATOM     15  C   UNL     1       2.260   7.298  19.472  0.00  0.00    +0.000 A 
ATOM     16 CL   UNL     1       3.058   5.794  19.693  0.00  0.00    +0.000 Cl
ATOM     17  C   UNL     1       2.303   7.937  18.238  0.00  0.00    +0.000 A 
ATOM     18  C   UNL     1       1.701   9.193  18.074  0.00  0.00    +0.000 A 
ENDBRANCH   8  12
BRANCH   4  19
ATOM     19  C   UNL     1      -0.601  15.761  19.487  0.00  0.00    +0.000 A 
ATOM     20  C   UNL     1      -0.341  16.631  18.419  0.00  0.00    +0.000 A 
ATOM     21  C   UNL     1      -1.166  17.736  18.197  0.00  0.00    +0.000 A 
ATOM     22  C   UNL     1      -2.252  17.982  19.036  0.00  0.00    +0.000 A 
ATOM     23  C   UNL     1      -2.525  17.120  20.099  0.00  0.00    +0.000 A 
ATOM     24  C   UNL     1      -1.700  16.017  20.320  0.00  0.00    +0.000 A 
BRANCH  24  25
ATOM     25  O   UNL     1      -1.945  15.177  21.375  0.00  0.00    +0.000 OA
ATOM     26  H   UNL     1      -1.972  14.263  21.039  0.00  0.00    +0.000 HD
ENDBRANCH  24  25
ENDBRANCH   4  19
BRANCH   7  27
ATOM     27  C   UNL     1      -1.779  10.734  17.593  0.00  0.00    +0.000 C 
ATOM     28  F   UNL     1      -2.497  11.436  16.678  0.00  0.00    +0.000 F 
ATOM     29  F   UNL     1      -1.178   9.721  16.913  0.00  0.00    +0.000 F 
ATOM     30  F   UNL     1      -2.675  10.165  18.441  0.00  0.00    +0.000 F 
ENDBRANCH   7  27
TORSDOF 4
ENDMDL
MODEL 2
REMARK VINA RESULT:      -7.1      0.628      1.105
REMARK  Name = 
REMARK  4 active torsions:
REMARK  status: ('A' for Active; 'I' for Inactive)
REMARK    1  A    between atoms: C_4  and  C_5
REMARK    2  A    between atoms: C_10  and  O_11
REMARK    3  A    between atoms: C_14  and  C_15
REMARK    4  A    between atoms: C_19  and  C_20
REMARK                            x       y       z     vdW  Elec       q    Type
REMARK                         _______ _______ _______ _____ _____    ______ ____
ROOT
ATOM      1  O   UNL     1       3.899  14.447  20.438  0.00  0.00    +0.000 OA
ATOM      2  C   UNL     1       2.788  14.248  19.991  0.00  0.00    +0.000 A 
ATOM      3  C   UNL     1       1.759  15.285  19.762  0.00  0.00    +0.000 A 
ATOM      4  C   UNL     1       0.550  14.978  19.249  0.00  0.00    +0.000 A 
ATOM      5  N   UNL     1       0.220  13.650  18.941  0.00  0.00    +0.000 N 
ATOM      6  N   UNL     1      -0.916  13.145  18.420  0.00  0.00    +0.000 NA
ATOM      7  C   UNL     1      -0.744  11.807  18.384  0.00  0.00    +0.000 A 
ATOM      8  C   UNL     1       0.571  11.430  18.829  0.00  0.00    +0.000 A 
ATOM      9  C   UNL     1       1.148  12.641  19.157  0.00  0.00    +0.000 A 
ATOM     10  N   UNL     1       2.421  12.912  19.636  0.00  0.00    +0.000 N 
ATOM     11  H   UNL     1       3.122  12.191  19.744  0.00  0.00    +0.000 HD
ENDROOT
BRANCH   8  12
ATOM     12  C   UNL     1       1.184  10.110  18.973  0.00  0.00    +0.000 A 
ATOM     13  C   UNL     1       1.852   9.513  17.891  0.00  0.00    +0.000 A 
ATOM     14  C   UNL     1       2.349   8.207  17.974  0.00  0.00    +0.000 A 
ATOM     15  C   UNL     1       2.234   7.495  19.161  0.00  0.00    +0.000 A 
ATOM     16 CL   UNL     1       2.832   5.888  19.261  0.00  0.00    +0.000 Cl
ATOM     17  C   UNL     1       1.622   8.082  20.264  0.00  0.00    +0.000 A 
ATOM     18  C   UNL     1       1.081   9.372  20.164  0.00  0.00    +0.000 A 
ENDBRANCH   8  12
BRANCH   4  19
ATOM     19  C   UNL     1      -0.410  16.078  19.062  0.00  0.00    +0.000 A 
ATOM     20  C   UNL     1      -0.205  17.018  18.043  0.00  0.00    +0.000 A 
ATOM     21  C   UNL     1      -1.080  18.097  17.897  0.00  0.00    +0.000 A 
ATOM     22  C   UNL     1      -2.161  18.248  18.765  0.00  0.00    +0.000 A 
ATOM     23  C   UNL     1      -2.379  17.316  19.780  0.00  0.00    +0.000 A 
ATOM     24  C   UNL     1      -1.505  16.238  19.925  0.00  0.00    +0.000 A 
BRANCH  24  25
ATOM     25  O   UNL     1      -1.696  15.330  20.933  0.00  0.00    +0.000 OA
ATOM     26  H   UNL     1      -2.352  15.695  21.553  0.00  0.00    +0.000 HD
ENDBRANCH  24  25
ENDBRANCH   4  19
BRANCH   7  27
ATOM     27  C   UNL     1      -1.867  10.896  17.938  0.00  0.00    +0.000 C 
ATOM     28  F   UNL     1      -3.041  11.549  17.736  0.00  0.00    +0.000 F 
ATOM     29  F   UNL     1      -1.571  10.267  16.770  0.00  0.00    +0.000 F 
ATOM     30  F   UNL     1      -2.114   9.926  18.858  0.00  0.00    +0.000 F 
ENDBRANCH   7  27
TORSDOF 4
ENDMDL
MODEL 3
REMARK VINA RESULT:      -6.9      5.516      9.034
REMARK  Name = 
REMARK  4 active torsions:
REMARK  status: ('A' for Active; 'I' for Inactive)
REMARK    1  A    between atoms: C_4  and  C_5
REMARK    2  A    between atoms: C_10  and  O_11
REMARK    3  A    between atoms: C_14  and  C_15
REMARK    4  A    between atoms: C_19  and  C_20
REMARK                            x       y       z     vdW  Elec       q    Type
REMARK                         _______ _______ _______ _____ _____    ______ ____
ROOT
ATOM      1  O   UNL     1       2.235   3.856  22.037  0.00  0.00    +0.000 OA
ATOM      2  C   UNL     1       2.475   4.619  21.124  0.00  0.00    +0.000 A 
ATOM      3  C   UNL     1       3.405   4.350  20.006  0.00  0.00    +0.000 A 
ATOM      4  C   UNL     1       3.604   5.251  19.022  0.00  0.00    +0.000 A 
ATOM      5  N   UNL     1       2.951   6.492  19.045  0.00  0.00    +0.000 N 
ATOM      6  N   UNL     1       3.008   7.511  18.164  0.00  0.00    +0.000 NA
ATOM      7  C   UNL     1       2.245   8.494  18.686  0.00  0.00    +0.000 A 
ATOM      8  C   UNL     1       1.613   8.081  19.910  0.00  0.00    +0.000 A 
ATOM      9  C   UNL     1       2.083   6.795  20.085  0.00  0.00    +0.000 A 
ATOM     10  N   UNL     1       1.807   5.883  21.093  0.00  0.00    +0.000 N 
ATOM     11  H   UNL     1       1.135   6.074  21.824  0.00  0.00    +0.000 HD
ENDROOT
BRANCH   8  12
ATOM     12  C   UNL     1       0.727   8.812  20.816  0.00  0.00    +0.000 A 
ATOM     13  C   UNL     1      -0.330   9.585  20.309  0.00  0.00    +0.000 A 
ATOM     14  C   UNL     1      -1.120  10.379  21.150  0.00  0.00    +0.000 A 
ATOM     15  C   UNL     1      -0.898  10.368  22.522  0.00  0.00    +0.000 A 
ATOM     16 CL   UNL     1      -1.858  11.350  23.554  0.00  0.00    +0.000 Cl
ATOM     17  C   UNL     1       0.110   9.572  23.055  0.00  0.00    +0.000 A 
ATOM     18  C   UNL     1       0.932   8.816  22.206  0.00  0.00    +0.000 A 
ENDBRANCH   8  12
BRANCH   4  19
ATOM     19  C   UNL     1       4.554   4.896  17.954  0.00  0.00    +0.000 A 
ATOM     20  C   UNL     1       4.082   4.333  16.760  0.00  0.00    +0.000 A 
ATOM     21  C   UNL     1       4.981   3.939  15.767  0.00  0.00    +0.000 A 
ATOM     22  C   UNL     1       6.353   4.101  15.957  0.00  0.00    +0.000 A 
ATOM     23  C   UNL     1       6.835   4.665  17.139  0.00  0.00    +0.000 A 
ATOM     24  C   UNL     1       5.936   5.058  18.130  0.00  0.00    +0.000 A 
BRANCH  24  25
ATOM     25  O   UNL     1       6.398   5.592  19.304  0.00  0.00    +0.000 OA
ATOM     26  H   UNL     1       5.721   6.198  19.653  0.00  0.00    +0.000 HD
ENDBRANCH  24  25
ENDBRANCH   4  19
BRANCH   7  27
ATOM     27  C   UNL     1       2.152   9.842  18.004  0.00  0.00    +0.000 C 
ATOM     28  F   UNL     1       2.183  10.887  18.872  0.00  0.00    +0.000 F 
ATOM     29  F   UNL     1       3.177  10.037  17.132  0.00  0.00    +0.000 F 
ATOM     30  F   UNL     1       1.000   9.959  17.292  0.00  0.00    +0.000 F 
ENDBRANCH   7  27
TORSDOF 4
ENDMDL
MODEL 4
REMARK VINA RESULT:      -6.9      4.390      8.546
REMARK  Name = 
REMARK  4 active torsions:
REMARK  status: ('A' for Active; 'I' for Inactive)
REMARK    1  A    between atoms: C_4  and  C_5
REMARK    2  A    between atoms: C_10  and  O_11
REMARK    3  A    between atoms: C_14  and  C_15
REMARK    4  A    between atoms: C_19  and  C_20
REMARK                            x       y       z     vdW  Elec       q    Type
REMARK                         _______ _______ _______ _____ _____    ______ ____
ROOT
ATOM      1  O   UNL     1       3.701   7.853  16.447  0.00  0.00    +0.000 OA
ATOM      2  C   UNL     1       3.085   7.692  17.481  0.00  0.00    +0.000 A 
ATOM      3  C   UNL     1       2.849   6.392  18.144  0.00  0.00    +0.000 A 
ATOM      4  C   UNL     1       2.163   6.305  19.302  0.00  0.00    +0.000 A 
ATOM      5  N   UNL     1       1.623   7.452  19.902  0.00  0.00    +0.000 N 
ATOM      6  N   UNL     1       0.923   7.575  21.047  0.00  0.00    +0.000 NA
ATOM      7  C   UNL     1       0.584   8.878  21.135  0.00  0.00    +0.000 A 
ATOM      8  C   UNL     1       1.139   9.644  20.051  0.00  0.00    +0.000 A 
ATOM      9  C   UNL     1       1.804   8.692  19.305  0.00  0.00    +0.000 A 
ATOM     10  N   UNL     1       2.544   8.840  18.141  0.00  0.00    +0.000 N 
ATOM     11  H   UNL     1       2.727   9.745  17.729  0.00  0.00    +0.000 HD
ENDROOT
BRANCH   8  12
ATOM     12  C   UNL     1       1.021  11.068  19.735  0.00  0.00    +0.000 A 
ATOM     13  C   UNL     1       1.737  12.024  20.473  0.00  0.00    +0.000 A 
ATOM     14  C   UNL     1       1.554  13.395  20.259  0.00  0.00    +0.000 A 
ATOM     15  C   UNL     1       0.690  13.832  19.263  0.00  0.00    +0.000 A 
ATOM     16 CL   UNL     1       0.455  15.514  19.006  0.00  0.00    +0.000 Cl
ATOM     17  C   UNL     1       0.007  12.905  18.483  0.00  0.00    +0.000 A 
ATOM     18  C   UNL     1       0.154  11.532  18.732  0.00  0.00    +0.000 A 
ENDBRANCH   8  12
BRANCH   4  19
ATOM     19  C   UNL     1       1.975   4.966  19.883  0.00  0.00    +0.000 A 
ATOM     20  C   UNL     1       2.363   4.719  21.207  0.00  0.00    +0.000 A 
ATOM     21  C   UNL     1       2.242   3.437  21.748  0.00  0.00    +0.000 A 
ATOM     22  C   UNL     1       1.737   2.393  20.973  0.00  0.00    +0.000 A 
ATOM     23  C   UNL     1       1.342   2.627  19.655  0.00  0.00    +0.000 A 
ATOM     24  C   UNL     1       1.463   3.908  19.117  0.00  0.00    +0.000 A 
BRANCH  24  25
ATOM     25  O   UNL     1       1.100   4.144  17.817  0.00  0.00    +0.000 OA
ATOM     26  H   UNL     1       0.148   4.349  17.797  0.00  0.00    +0.000 HD
ENDBRANCH  24  25
ENDBRANCH   4  19
BRANCH   7  27
ATOM     27  C   UNL     1      -0.300   9.372  22.261  0.00  0.00    +0.000 C 
ATOM     28  F   UNL     1      -1.052  10.450  21.920  0.00  0.00    +0.000 F 
ATOM     29  F   UNL     1      -1.169   8.413  22.675  0.00  0.00    +0.000 F 
ATOM     30  F   UNL     1       0.435   9.734  23.345  0.00  0.00    +0.000 F 
ENDBRANCH   7  27
TORSDOF 4
ENDMDL
MODEL 5
REMARK VINA RESULT:      -6.9      4.363      8.615
REMARK  Name = 
REMARK  4 active torsions:
REMARK  status: ('A' for Active; 'I' for Inactive)
REMARK    1  A    between atoms: C_4  and  C_5
REMARK    2  A    between atoms: C_10  and  O_11
REMARK    3  A    between atoms: C_14  and  C_15
REMARK    4  A    between atoms: C_19  and  C_20
REMARK                            x       y       z     vdW  Elec       q    Type
REMARK                         _______ _______ _______ _____ _____    ______ ____
ROOT
ATOM      1  O   UNL     1       3.564   7.941  16.304  0.00  0.00    +0.000 OA
ATOM      2  C   UNL     1       3.044   7.761  17.385  0.00  0.00    +0.000 A 
ATOM      3  C   UNL     1       2.991   6.471  18.107  0.00  0.00    +0.000 A 
ATOM      4  C   UNL     1       2.401   6.362  19.314  0.00  0.00    +0.000 A 
ATOM      5  N   UNL     1       1.789   7.472  19.915  0.00  0.00    +0.000 N 
ATOM      6  N   UNL     1       1.163   7.570  21.105  0.00  0.00    +0.000 NA
ATOM      7  C   UNL     1       0.698   8.835  21.175  0.00  0.00    +0.000 A 
ATOM      8  C   UNL     1       1.093   9.609  20.028  0.00  0.00    +0.000 A 
ATOM      9  C   UNL     1       1.798   8.699  19.266  0.00  0.00    +0.000 A 
ATOM     10  N   UNL     1       2.434   8.873  18.046  0.00  0.00    +0.000 N 
ATOM     11  H   UNL     1       2.493   9.775  17.592  0.00  0.00    +0.000 HD
ENDROOT
BRANCH   8  12
ATOM     12  C   UNL     1       0.806  10.999  19.675  0.00  0.00    +0.000 A 
ATOM     13  C   UNL     1       1.496  12.050  20.301  0.00  0.00    +0.000 A 
ATOM     14  C   UNL     1       1.159  13.388  20.058  0.00  0.00    +0.000 A 
ATOM     15  C   UNL     1       0.162  13.696  19.141  0.00  0.00    +0.000 A 
ATOM     16 CL   UNL     1      -0.260  15.335  18.850  0.00  0.00    +0.000 Cl
ATOM     17  C   UNL     1      -0.501  12.675  18.469  0.00  0.00    +0.000 A 
ATOM     18  C   UNL     1      -0.197  11.335  18.751  0.00  0.00    +0.000 A 
ENDBRANCH   8  12
BRANCH   4  19
ATOM     19  C   UNL     1       2.394   5.035  19.952  0.00  0.00    +0.000 A 
ATOM     20  C   UNL     1       1.206   4.529  20.497  0.00  0.00    +0.000 A 
ATOM     21  C   UNL     1       1.204   3.297  21.155  0.00  0.00    +0.000 A 
ATOM     22  C   UNL     1       2.384   2.564  21.277  0.00  0.00    +0.000 A 
ATOM     23  C   UNL     1       3.573   3.054  20.734  0.00  0.00    +0.000 A 
ATOM     24  C   UNL     1       3.573   4.285  20.077  0.00  0.00    +0.000 A 
BRANCH  24  25
ATOM     25  O   UNL     1       4.738   4.787  19.560  0.00  0.00    +0.000 OA
ATOM     26  H   UNL     1       4.528   5.591  19.054  0.00  0.00    +0.000 HD
ENDBRANCH  24  25
ENDBRANCH   4  19
BRANCH   7  27
ATOM     27  C   UNL     1      -0.150   9.282  22.347  0.00  0.00    +0.000 C 
ATOM     28  F   UNL     1      -0.826  10.435  22.111  0.00  0.00    +0.000 F 
ATOM     29  F   UNL     1      -1.083   8.350  22.677  0.00  0.00    +0.000 F 
ATOM     30  F   UNL     1       0.608   9.493  23.455  0.00  0.00    +0.000 F 
ENDBRANCH   7  27
TORSDOF 4
ENDMDL
MODEL 6
REMARK VINA RESULT:      -6.8      0.929      1.507
REMARK  Name = 
REMARK  4 active torsions:
REMARK  status: ('A' for Active; 'I' for Inactive)
REMARK    1  A    between atoms: C_4  and  C_5
REMARK    2  A    between atoms: C_10  and  O_11
REMARK    3  A    between atoms: C_14  and  C_15
REMARK    4  A    between atoms: C_19  and  C_20
REMARK                            x       y       z     vdW  Elec       q    Type
REMARK                         _______ _______ _______ _____ _____    ______ ____
ROOT
ATOM      1  O   UNL     1       3.401  14.014  21.492  0.00  0.00    +0.000 OA
ATOM      2  C   UNL     1       2.362  13.874  20.881  0.00  0.00    +0.000 A 
ATOM      3  C   UNL     1       1.356  14.932  20.648  0.00  0.00    +0.000 A 
ATOM      4  C   UNL     1       0.230  14.693  19.946  0.00  0.00    +0.000 A 
ATOM      5  N   UNL     1      -0.037  13.415  19.435  0.00  0.00    +0.000 N 
ATOM      6  N   UNL     1      -1.086  12.981  18.709  0.00  0.00    +0.000 NA
ATOM      7  C   UNL     1      -0.891  11.657  18.531  0.00  0.00    +0.000 A 
ATOM      8  C   UNL     1       0.359  11.226  19.096  0.00  0.00    +0.000 A 
ATOM      9  C   UNL     1       0.870  12.385  19.645  0.00  0.00    +0.000 A 
ATOM     10  N   UNL     1       2.065  12.593  20.318  0.00  0.00    +0.000 N 
ATOM     11  H   UNL     1       2.756  11.863  20.428  0.00  0.00    +0.000 HD
ENDROOT
BRANCH   8  12
ATOM     12  C   UNL     1       0.968   9.897  19.155  0.00  0.00    +0.000 A 
ATOM     13  C   UNL     1       0.951   9.158  20.349  0.00  0.00    +0.000 A 
ATOM     14  C   UNL     1       1.624   7.934  20.457  0.00  0.00    +0.000 A 
ATOM     15  C   UNL     1       2.278   7.403  19.352  0.00  0.00    +0.000 A 
ATOM     16 CL   UNL     1       3.113   5.908  19.485  0.00  0.00    +0.000 Cl
ATOM     17  C   UNL     1       2.267   8.091  18.143  0.00  0.00    +0.000 A 
ATOM     18  C   UNL     1       1.635   9.340  18.051  0.00  0.00    +0.000 A 
ENDBRANCH   8  12
BRANCH   4  19
ATOM     19  C   UNL     1      -0.714  15.810  19.771  0.00  0.00    +0.000 A 
ATOM     20  C   UNL     1      -1.881  15.865  20.546  0.00  0.00    +0.000 A 
ATOM     21  C   UNL     1      -2.810  16.888  20.346  0.00  0.00    +0.000 A 
ATOM     22  C   UNL     1      -2.584  17.860  19.372  0.00  0.00    +0.000 A 
ATOM     23  C   UNL     1      -1.425  17.820  18.597  0.00  0.00    +0.000 A 
ATOM     24  C   UNL     1      -0.497  16.797  18.799  0.00  0.00    +0.000 A 
BRANCH  24  25
ATOM     25  O   UNL     1       0.634  16.734  18.028  0.00  0.00    +0.000 OA
ATOM     26  H   UNL     1       1.012  15.841  18.111  0.00  0.00    +0.000 HD
ENDBRANCH  24  25
ENDBRANCH   4  19
BRANCH   7  27
ATOM     27  C   UNL     1      -1.932  10.810  17.832  0.00  0.00    +0.000 C 
ATOM     28  F   UNL     1      -2.272   9.694  18.526  0.00  0.00    +0.000 F 
ATOM     29  F   UNL     1      -3.085  11.500  17.625  0.00  0.00    +0.000 F 
ATOM     30  F   UNL     1      -1.497  10.395  16.613  0.00  0.00    +0.000 F 
ENDBRANCH   7  27
TORSDOF 4
ENDMDL
MODEL 7
REMARK VINA RESULT:      -6.8      4.336      8.611
REMARK  Name = 
REMARK  4 active torsions:
REMARK  status: ('A' for Active; 'I' for Inactive)
REMARK    1  A    between atoms: C_4  and  C_5
REMARK    2  A    between atoms: C_10  and  O_11
REMARK    3  A    between atoms: C_14  and  C_15
REMARK    4  A    between atoms: C_19  and  C_20
REMARK                            x       y       z     vdW  Elec       q    Type
REMARK                         _______ _______ _______ _____ _____    ______ ____
ROOT
ATOM      1  O   UNL     1       3.384   8.089  16.339  0.00  0.00    +0.000 OA
ATOM      2  C   UNL     1       2.896   7.886  17.432  0.00  0.00    +0.000 A 
ATOM      3  C   UNL     1       2.875   6.583  18.131  0.00  0.00    +0.000 A 
ATOM      4  C   UNL     1       2.321   6.448  19.353  0.00  0.00    +0.000 A 
ATOM      5  N   UNL     1       1.717   7.542  19.991  0.00  0.00    +0.000 N 
ATOM      6  N   UNL     1       1.125   7.613  21.199  0.00  0.00    +0.000 NA
ATOM      7  C   UNL     1       0.652   8.872  21.305  0.00  0.00    +0.000 A 
ATOM      8  C   UNL     1       1.007   9.670  20.162  0.00  0.00    +0.000 A 
ATOM      9  C   UNL     1       1.698   8.780  19.364  0.00  0.00    +0.000 A 
ATOM     10  N   UNL     1       2.297   8.981  18.130  0.00  0.00    +0.000 N 
ATOM     11  H   UNL     1       2.336   9.891  17.690  0.00  0.00    +0.000 HD
ENDROOT
BRANCH   8  12
ATOM     12  C   UNL     1       0.699  11.064  19.842  0.00  0.00    +0.000 A 
ATOM     13  C   UNL     1      -0.341  11.377  18.952  0.00  0.00    +0.000 A 
ATOM     14  C   UNL     1      -0.580  12.696  18.548  0.00  0.00    +0.000 A 
ATOM     15  C   UNL     1       0.185  13.731  19.072  0.00  0.00    +0.000 A 
ATOM     16 CL   UNL     1      -0.099  15.348  18.569  0.00  0.00    +0.000 Cl
ATOM     17  C   UNL     1       1.188  13.453  19.994  0.00  0.00    +0.000 A 
ATOM     18  C   UNL     1       1.458  12.126  20.360  0.00  0.00    +0.000 A 
ENDBRANCH   8  12
BRANCH   4  19
ATOM     19  C   UNL     1       2.343   5.110  19.967  0.00  0.00    +0.000 A 
ATOM     20  C   UNL     1       1.160   4.555  20.474  0.00  0.00    +0.000 A 
ATOM     21  C   UNL     1       1.183   3.312  21.110  0.00  0.00    +0.000 A 
ATOM     22  C   UNL     1       2.384   2.616  21.247  0.00  0.00    +0.000 A 
ATOM     23  C   UNL     1       3.568   3.154  20.742  0.00  0.00    +0.000 A 
ATOM     24  C   UNL     1       3.543   4.396  20.107  0.00  0.00    +0.000 A 
BRANCH  24  25
ATOM     25  O   UNL     1       4.703   4.945  19.628  0.00  0.00    +0.000 OA
ATOM     26  H   UNL     1       5.185   5.343  20.375  0.00  0.00    +0.000 HD
ENDBRANCH  24  25
ENDBRANCH   4  19
BRANCH   7  27
ATOM     27  C   UNL     1      -0.165   9.292  22.509  0.00  0.00    +0.000 C 
ATOM     28  F   UNL     1       0.578   9.449  23.634  0.00  0.00    +0.000 F 
ATOM     29  F   UNL     1      -0.799  10.475  22.298  0.00  0.00    +0.000 F 
ATOM     30  F   UNL     1      -1.126   8.375  22.800  0.00  0.00    +0.000 F 
ENDBRANCH   7  27
TORSDOF 4
ENDMDL
MODEL 8
REMARK VINA RESULT:      -6.8      5.198      6.543
REMARK  Name = 
REMARK  4 active torsions:
REMARK  status: ('A' for Active; 'I' for Inactive)
REMARK    1  A    between atoms: C_4  and  C_5
REMARK    2  A    between atoms: C_10  and  O_11
REMARK    3  A    between atoms: C_14  and  C_15
REMARK    4  A    between atoms: C_19  and  C_20
REMARK                            x       y       z     vdW  Elec       q    Type
REMARK                         _______ _______ _______ _____ _____    ______ ____
ROOT
ATOM      1  O   UNL     1       2.601  11.074  17.041  0.00  0.00    +0.000 OA
ATOM      2  C   UNL     1       2.306  10.223  17.855  0.00  0.00    +0.000 A 
ATOM      3  C   UNL     1       1.493  10.446  19.069  0.00  0.00    +0.000 A 
ATOM      4  C   UNL     1       1.201   9.438  19.917  0.00  0.00    +0.000 A 
ATOM      5  N   UNL     1       1.689   8.144  19.686  0.00  0.00    +0.000 N 
ATOM      6  N   UNL     1       1.504   7.015  20.399  0.00  0.00    +0.000 NA
ATOM      7  C   UNL     1       2.240   6.065  19.784  0.00  0.00    +0.000 A 
ATOM      8  C   UNL     1       2.867   6.569  18.592  0.00  0.00    +0.000 A 
ATOM      9  C   UNL     1       2.472   7.892  18.568  0.00  0.00    +0.000 A 
ATOM     10  N   UNL     1       2.758   8.883  17.641  0.00  0.00    +0.000 N 
ATOM     11  H   UNL     1       3.281   8.696  16.795  0.00  0.00    +0.000 HD
ENDROOT
BRANCH   8  12
ATOM     12  C   UNL     1       3.756   5.912  17.634  0.00  0.00    +0.000 A 
ATOM     13  C   UNL     1       4.762   6.641  16.980  0.00  0.00    +0.000 A 
ATOM     14  C   UNL     1       5.550   6.057  15.980  0.00  0.00    +0.000 A 
ATOM     15  C   UNL     1       5.380   4.717  15.657  0.00  0.00    +0.000 A 
ATOM     16 CL   UNL     1       6.337   4.002  14.423  0.00  0.00    +0.000 Cl
ATOM     17  C   UNL     1       4.425   3.959  16.327  0.00  0.00    +0.000 A 
ATOM     18  C   UNL     1       3.603   4.558  17.293  0.00  0.00    +0.000 A 
ENDBRANCH   8  12
BRANCH   4  19
ATOM     19  C   UNL     1       0.389   9.759  21.103  0.00  0.00    +0.000 A 
ATOM     20  C   UNL     1      -0.788  10.507  20.961  0.00  0.00    +0.000 A 
ATOM     21  C   UNL     1      -1.533  10.865  22.087  0.00  0.00    +0.000 A 
ATOM     22  C   UNL     1      -1.109  10.483  23.359  0.00  0.00    +0.000 A 
ATOM     23  C   UNL     1       0.058   9.734  23.514  0.00  0.00    +0.000 A 
ATOM     24  C   UNL     1       0.801   9.377  22.388  0.00  0.00    +0.000 A 
BRANCH  24  25
ATOM     25  O   UNL     1       1.961   8.662  22.530  0.00  0.00    +0.000 OA
ATOM     26  H   UNL     1       2.114   8.511  23.479  0.00  0.00    +0.000 HD
ENDBRANCH  24  25
ENDBRANCH   4  19
BRANCH   7  27
ATOM     27  C   UNL     1       2.349   4.674  20.370  0.00  0.00    +0.000 C 
ATOM     28  F   UNL     1       3.617   4.186  20.365  0.00  0.00    +0.000 F 
ATOM     29  F   UNL     1       1.930   4.639  21.663  0.00  0.00    +0.000 F 
ATOM     30  F   UNL     1       1.585   3.784  19.683  0.00  0.00    +0.000 F 
ENDBRANCH   7  27
TORSDOF 4
ENDMDL
MODEL 9
REMARK VINA RESULT:      -6.8      5.658      9.117
REMARK  Name = 
REMARK  4 active torsions:
REMARK  status: ('A' for Active; 'I' for Inactive)
REMARK    1  A    between atoms: C_4  and  C_5
REMARK    2  A    between atoms: C_10  and  O_11
REMARK    3  A    between atoms: C_14  and  C_15
REMARK    4  A    between atoms: C_19  and  C_20
REMARK                            x       y       z     vdW  Elec       q    Type
REMARK                         _______ _______ _______ _____ _____    ______ ____
ROOT
ATOM      1  O   UNL     1       2.236   3.744  22.122  0.00  0.00    +0.000 OA
ATOM      2  C   UNL     1       2.478   4.489  21.194  0.00  0.00    +0.000 A 
ATOM      3  C   UNL     1       3.396   4.192  20.074  0.00  0.00    +0.000 A 
ATOM      4  C   UNL     1       3.597   5.075  19.074  0.00  0.00    +0.000 A 
ATOM      5  N   UNL     1       2.958   6.323  19.082  0.00  0.00    +0.000 N 
ATOM      6  N   UNL     1       3.019   7.326  18.183  0.00  0.00    +0.000 NA
ATOM      7  C   UNL     1       2.271   8.326  18.694  0.00  0.00    +0.000 A 
ATOM      8  C   UNL     1       1.644   7.940  19.930  0.00  0.00    +0.000 A 
ATOM      9  C   UNL     1       2.101   6.652  20.122  0.00  0.00    +0.000 A 
ATOM     10  N   UNL     1       1.823   5.760  21.147  0.00  0.00    +0.000 N 
ATOM     11  H   UNL     1       1.159   5.970  21.880  0.00  0.00    +0.000 HD
ENDROOT
BRANCH   8  12
ATOM     12  C   UNL     1       0.772   8.696  20.830  0.00  0.00    +0.000 A 
ATOM     13  C   UNL     1      -0.298   9.448  20.321  0.00  0.00    +0.000 A 
ATOM     14  C   UNL     1      -1.074  10.265  21.152  0.00  0.00    +0.000 A 
ATOM     15  C   UNL     1      -0.826  10.297  22.519  0.00  0.00    +0.000 A 
ATOM     16 CL   UNL     1      -1.770  11.307  23.539  0.00  0.00    +0.000 Cl
ATOM     17  C   UNL     1       0.196   9.522  23.056  0.00  0.00    +0.000 A 
ATOM     18  C   UNL     1       1.004   8.743  22.215  0.00  0.00    +0.000 A 
ENDBRANCH   8  12
BRANCH   4  19
ATOM     19  C   UNL     1       4.535   4.691  18.005  0.00  0.00    +0.000 A 
ATOM     20  C   UNL     1       5.879   5.082  18.083  0.00  0.00    +0.000 A 
ATOM     21  C   UNL     1       6.761   4.773  17.046  0.00  0.00    +0.000 A 
ATOM     22  C   UNL     1       6.311   4.076  15.925  0.00  0.00    +0.000 A 
ATOM     23  C   UNL     1       4.977   3.677  15.837  0.00  0.00    +0.000 A 
ATOM     24  C   UNL     1       4.096   3.986  16.875  0.00  0.00    +0.000 A 
BRANCH  24  25
ATOM     25  O   UNL     1       2.779   3.620  16.790  0.00  0.00    +0.000 OA
ATOM     26  H   UNL     1       2.738   2.679  16.540  0.00  0.00    +0.000 HD
ENDBRANCH  24  25
ENDBRANCH   4  19
BRANCH   7  27
ATOM     27  C   UNL     1       2.187   9.664  17.991  0.00  0.00    +0.000 C 
ATOM     28  F   UNL     1       2.207  10.721  18.843  0.00  0.00    +0.000 F 
ATOM     29  F   UNL     1       3.223   9.845  17.130  0.00  0.00    +0.000 F 
ATOM     30  F   UNL     1       1.044   9.770  17.263  0.00  0.00    +0.000 F 
ENDBRANCH   7  27
TORSDOF 4
ENDMDL
