MODEL 1
REMARK VINA RESULT:      -7.4      0.000      0.000
REMARK  Name = 
REMARK  5 active torsions:
REMARK  status: ('A' for Active; 'I' for Inactive)
REMARK    1  A    between atoms: C_1  and  N_2
REMARK    2  A    between atoms: N_2  and  C_3
REMARK    3  A    between atoms: N_2  and  C_4
REMARK    4  A    between atoms: N_2  and  C_5
REMARK    5  A    between atoms: C_5  and  C_6
REMARK                            x       y       z     vdW  Elec       q    Type
REMARK                         _______ _______ _______ _____ _____    ______ ____
ROOT
ATOM      1  C   UNL     1      -2.490  12.567  19.775  0.00  0.00    +0.000 C 
ATOM      2  C   UNL     1      -0.947  12.702  19.519  0.00  0.00    +0.000 C 
ATOM      3  N   UNL     1      -0.145  11.923  20.472  0.00  0.00    +0.000 N 
ATOM      4  C   UNL     1       0.412  10.728  20.122  0.00  0.00    +0.000 A 
ATOM      5  N   UNL     1       0.755  10.421  18.886  0.00  0.00    +0.000 NA
ATOM      6  C   UNL     1       1.437   9.208  18.853  0.00  0.00    +0.000 A 
ATOM      7  C   UNL     1       2.080   8.641  17.733  0.00  0.00    +0.000 A 
ATOM      8  C   UNL     1       2.714   7.396  17.847  0.00  0.00    +0.000 A 
ATOM      9  C   UNL     1       2.696   6.709  19.059  0.00  0.00    +0.000 A 
ATOM     10 CL   UNL     1       3.462   5.174  19.179  0.00  0.00    +0.000 Cl
ATOM     11  C   UNL     1       2.070   7.248  20.183  0.00  0.00    +0.000 A 
ATOM     12  C   UNL     1       1.466   8.508  20.058  0.00  0.00    +0.000 A 
ATOM     13  S   UNL     1       0.689   9.448  21.257  0.00  0.00    +0.000 S 
ATOM     14  C   UNL     1      -0.253  12.383  21.855  0.00  0.00    +0.000 C 
ATOM     15  C   UNL     1      -1.692  12.502  22.194  0.00  0.00    +0.000 A 
ATOM     16  N   UNL     1      -2.183  12.538  23.464  0.00  0.00    +0.000 N 
ATOM     17  C   UNL     1      -3.554  12.623  23.420  0.00  0.00    +0.000 A 
ATOM     18  C   UNL     1      -4.467  12.658  24.482  0.00  0.00    +0.000 A 
ATOM     19  C   UNL     1      -5.823  12.740  24.165  0.00  0.00    +0.000 A 
ATOM     20  C   UNL     1      -6.233  12.797  22.837  0.00  0.00    +0.000 A 
ATOM     21 CL   UNL     1      -7.917  12.887  22.478  0.00  0.00    +0.000 Cl
ATOM     22  C   UNL     1      -5.314  12.776  21.783  0.00  0.00    +0.000 A 
ATOM     23  C   UNL     1      -3.939  12.675  22.073  0.00  0.00    +0.000 A 
ATOM     24  C   UNL     1      -2.742  12.591  21.292  0.00  0.00    +0.000 A 
ATOM     25  H   UNL     1      -1.637  12.494  24.317  0.00  0.00    +0.000 HD
ENDROOT
BRANCH   1  26
ATOM     26  C   UNL     1      -3.149  11.317  19.132  0.00  0.00    +0.000 C 
BRANCH  26  28
ATOM     27  C   UNL     1      -5.386  10.389  18.528  0.00  0.00    +0.000 C 
ATOM     28  N   UNL     1      -4.393  11.519  18.202  0.00  0.00    +0.000 N 
ATOM     29  C   UNL     1      -4.064  11.383  16.720  0.00  0.00    +0.000 C 
ATOM     30  C   UNL     1      -5.094  12.847  18.451  0.00  0.00    +0.000 C 
ENDBRANCH  26  28
ENDBRANCH   1  26
TORSDOF 2
ENDMDL
MODEL 2
REMARK VINA RESULT:      -7.3      0.944      1.031
REMARK  Name = 
REMARK  5 active torsions:
REMARK  status: ('A' for Active; 'I' for Inactive)
REMARK    1  A    between atoms: C_1  and  N_2
REMARK    2  A    between atoms: N_2  and  C_3
REMARK    3  A    between atoms: N_2  and  C_4
REMARK    4  A    between atoms: N_2  and  C_5
REMARK    5  A    between atoms: C_5  and  C_6
REMARK                            x       y       z     vdW  Elec       q    Type
REMARK                         _______ _______ _______ _____ _____    ______ ____
ROOT
ATOM      1  C   UNL     1      -1.859  12.120  19.288  0.00  0.00    +0.000 C 
ATOM      2  C   UNL     1      -0.302  12.116  19.083  0.00  0.00    +0.000 C 
ATOM      3  N   UNL     1       0.406  11.390  20.146  0.00  0.00    +0.000 N 
ATOM      4  C   UNL     1       0.883  10.128  19.949  0.00  0.00    +0.000 A 
ATOM      5  N   UNL     1       1.243   9.664  18.768  0.00  0.00    +0.000 NA
ATOM      6  C   UNL     1       1.833   8.409  18.892  0.00  0.00    +0.000 A 
ATOM      7  C   UNL     1       2.469   7.679  17.867  0.00  0.00    +0.000 A 
ATOM      8  C   UNL     1       3.002   6.412  18.139  0.00  0.00    +0.000 A 
ATOM      9  C   UNL     1       2.892   5.864  19.414  0.00  0.00    +0.000 A 
ATOM     10 CL   UNL     1       3.536   4.301  19.729  0.00  0.00    +0.000 Cl
ATOM     11  C   UNL     1       2.271   6.565  20.448  0.00  0.00    +0.000 A 
ATOM     12  C   UNL     1       1.768   7.845  20.165  0.00  0.00    +0.000 A 
ATOM     13  S   UNL     1       1.024   8.963  21.224  0.00  0.00    +0.000 S 
ATOM     14  C   UNL     1       0.286  12.004  21.467  0.00  0.00    +0.000 C 
ATOM     15  C   UNL     1      -1.150  12.263  21.731  0.00  0.00    +0.000 A 
ATOM     16  N   UNL     1      -1.679  12.472  22.968  0.00  0.00    +0.000 N 
ATOM     17  C   UNL     1      -3.038  12.649  22.859  0.00  0.00    +0.000 A 
ATOM     18  C   UNL     1      -3.981  12.865  23.872  0.00  0.00    +0.000 A 
ATOM     19  C   UNL     1      -5.316  13.008  23.492  0.00  0.00    +0.000 A 
ATOM     20  C   UNL     1      -5.675  12.950  22.149  0.00  0.00    +0.000 A 
ATOM     21 CL   UNL     1      -7.334  13.120  21.713  0.00  0.00    +0.000 Cl
ATOM     22  C   UNL     1      -4.725  12.748  21.142  0.00  0.00    +0.000 A 
ATOM     23  C   UNL     1      -3.372  12.582  21.498  0.00  0.00    +0.000 A 
ATOM     24  C   UNL     1      -2.159  12.328  20.781  0.00  0.00    +0.000 A 
ATOM     25  H   UNL     1      -1.168  12.482  23.843  0.00  0.00    +0.000 HD
ENDROOT
BRANCH   1  26
ATOM     26  C   UNL     1      -2.588  10.858  18.754  0.00  0.00    +0.000 C 
BRANCH  26  28
ATOM     27  C   UNL     1      -3.796   9.530  17.020  0.00  0.00    +0.000 C 
ATOM     28  N   UNL     1      -3.375  10.960  17.404  0.00  0.00    +0.000 N 
ATOM     29  C   UNL     1      -2.523  11.478  16.250  0.00  0.00    +0.000 C 
ATOM     30  C   UNL     1      -4.635  11.805  17.529  0.00  0.00    +0.000 C 
ENDBRANCH  26  28
ENDBRANCH   1  26
TORSDOF 2
ENDMDL
MODEL 3
REMARK VINA RESULT:      -7.2      1.457      2.128
REMARK  Name = 
REMARK  5 active torsions:
REMARK  status: ('A' for Active; 'I' for Inactive)
REMARK    1  A    between atoms: C_1  and  N_2
REMARK    2  A    between atoms: N_2  and  C_3
REMARK    3  A    between atoms: N_2  and  C_4
REMARK    4  A    between atoms: N_2  and  C_5
REMARK    5  A    between atoms: C_5  and  C_6
REMARK                            x       y       z     vdW  Elec       q    Type
REMARK                         _______ _______ _______ _____ _____    ______ ____
ROOT
ATOM      1  C   UNL     1      -1.097  11.492  18.887  0.00  0.00    +0.000 C 
ATOM      2  C   UNL     1       0.456  11.296  18.769  0.00  0.00    +0.000 C 
ATOM      3  N   UNL     1       1.021  10.558  19.908  0.00  0.00    +0.000 N 
ATOM      4  C   UNL     1       1.355   9.240  19.805  0.00  0.00    +0.000 A 
ATOM      5  N   UNL     1       1.715   8.668  18.673  0.00  0.00    +0.000 NA
ATOM      6  C   UNL     1       2.146   7.364  18.896  0.00  0.00    +0.000 A 
ATOM      7  C   UNL     1       2.740   6.505  17.948  0.00  0.00    +0.000 A 
ATOM      8  C   UNL     1       3.106   5.204  18.316  0.00  0.00    +0.000 A 
ATOM      9  C   UNL     1       2.870   4.750  19.612  0.00  0.00    +0.000 A 
ATOM     10 CL   UNL     1       3.309   3.144  20.045  0.00  0.00    +0.000 Cl
ATOM     11  C   UNL     1       2.286   5.578  20.570  0.00  0.00    +0.000 A 
ATOM     12  C   UNL     1       1.953   6.887  20.191  0.00  0.00    +0.000 A 
ATOM     13  S   UNL     1       1.295   8.144  21.146  0.00  0.00    +0.000 S 
ATOM     14  C   UNL     1       0.910  11.260  21.185  0.00  0.00    +0.000 C 
ATOM     15  C   UNL     1      -0.497  11.697  21.355  0.00  0.00    +0.000 A 
ATOM     16  N   UNL     1      -1.057  12.039  22.548  0.00  0.00    +0.000 N 
ATOM     17  C   UNL     1      -2.379  12.364  22.354  0.00  0.00    +0.000 A 
ATOM     18  C   UNL     1      -3.338  12.747  23.300  0.00  0.00    +0.000 A 
ATOM     19  C   UNL     1      -4.626  13.020  22.840  0.00  0.00    +0.000 A 
ATOM     20  C   UNL     1      -4.924  12.924  21.485  0.00  0.00    +0.000 A 
ATOM     21 CL   UNL     1      -6.528  13.257  20.948  0.00  0.00    +0.000 Cl
ATOM     22  C   UNL     1      -3.956  12.554  20.544  0.00  0.00    +0.000 A 
ATOM     23  C   UNL     1      -2.651  12.255  20.983  0.00  0.00    +0.000 A 
ATOM     24  C   UNL     1      -1.443  11.821  20.349  0.00  0.00    +0.000 A 
ATOM     25  H   UNL     1      -0.591  12.042  23.448  0.00  0.00    +0.000 HD
ENDROOT
BRANCH   1  26
ATOM     26  C   UNL     1      -1.944  10.292  18.383  0.00  0.00    +0.000 C 
BRANCH  26  28
ATOM     27  C   UNL     1      -2.399  11.778  16.429  0.00  0.00    +0.000 C 
ATOM     28  N   UNL     1      -2.881  10.503  17.146  0.00  0.00    +0.000 N 
ATOM     29  C   UNL     1      -4.335  10.754  17.529  0.00  0.00    +0.000 C 
ATOM     30  C   UNL     1      -2.805   9.349  16.156  0.00  0.00    +0.000 C 
ENDBRANCH  26  28
ENDBRANCH   1  26
TORSDOF 2
ENDMDL
MODEL 4
REMARK VINA RESULT:      -7.2      4.012      6.162
REMARK  Name = 
REMARK  5 active torsions:
REMARK  status: ('A' for Active; 'I' for Inactive)
REMARK    1  A    between atoms: C_1  and  N_2
REMARK    2  A    between atoms: N_2  and  C_3
REMARK    3  A    between atoms: N_2  and  C_4
REMARK    4  A    between atoms: N_2  and  C_5
REMARK    5  A    between atoms: C_5  and  C_6
REMARK                            x       y       z     vdW  Elec       q    Type
REMARK                         _______ _______ _______ _____ _____    ______ ____
ROOT
ATOM      1  C   UNL     1      -1.405  12.023  20.790  0.00  0.00    +0.000 C 
ATOM      2  C   UNL     1       0.021  11.635  21.322  0.00  0.00    +0.000 C 
ATOM      3  N   UNL     1       1.067  11.797  20.304  0.00  0.00    +0.000 N 
ATOM      4  C   UNL     1       1.908  12.870  20.313  0.00  0.00    +0.000 A 
ATOM      5  N   UNL     1       2.241  13.523  21.410  0.00  0.00    +0.000 NA
ATOM      6  C   UNL     1       3.229  14.466  21.140  0.00  0.00    +0.000 A 
ATOM      7  C   UNL     1       3.929  15.239  22.090  0.00  0.00    +0.000 A 
ATOM      8  C   UNL     1       4.887  16.168  21.664  0.00  0.00    +0.000 A 
ATOM      9  C   UNL     1       5.139  16.343  20.306  0.00  0.00    +0.000 A 
ATOM     10 CL   UNL     1       6.307  17.500  19.798  0.00  0.00    +0.000 Cl
ATOM     11  C   UNL     1       4.464  15.590  19.345  0.00  0.00    +0.000 A 
ATOM     12  C   UNL     1       3.528  14.644  19.791  0.00  0.00    +0.000 A 
ATOM     13  S   UNL     1       2.603  13.538  18.872  0.00  0.00    +0.000 S 
ATOM     14  C   UNL     1       0.927  10.898  19.159  0.00  0.00    +0.000 C 
ATOM     15  C   UNL     1      -0.464  11.002  18.654  0.00  0.00    +0.000 A 
ATOM     16  N   UNL     1      -0.861  10.616  17.410  0.00  0.00    +0.000 N 
ATOM     17  C   UNL     1      -2.202  10.877  17.259  0.00  0.00    +0.000 A 
ATOM     18  C   UNL     1      -3.018  10.667  16.139  0.00  0.00    +0.000 A 
ATOM     19  C   UNL     1      -4.361  11.028  16.242  0.00  0.00    +0.000 A 
ATOM     20  C   UNL     1      -4.857  11.562  17.427  0.00  0.00    +0.000 A 
ATOM     21 CL   UNL     1      -6.519  12.008  17.520  0.00  0.00    +0.000 Cl
ATOM     22  C   UNL     1      -4.038  11.755  18.546  0.00  0.00    +0.000 A 
ATOM     23  C   UNL     1      -2.673  11.417  18.464  0.00  0.00    +0.000 A 
ATOM     24  C   UNL     1      -1.553  11.501  19.352  0.00  0.00    +0.000 A 
ATOM     25  H   UNL     1      -0.269  10.213  16.692  0.00  0.00    +0.000 HD
ENDROOT
BRANCH   1  26
ATOM     26  C   UNL     1      -1.734  13.540  20.857  0.00  0.00    +0.000 C 
BRANCH  26  28
ATOM     27  C   UNL     1      -3.620  12.734  22.279  0.00  0.00    +0.000 C 
ATOM     28  N   UNL     1      -2.952  14.005  21.723  0.00  0.00    +0.000 N 
ATOM     29  C   UNL     1      -4.023  14.728  20.914  0.00  0.00    +0.000 C 
ATOM     30  C   UNL     1      -2.531  14.870  22.902  0.00  0.00    +0.000 C 
ENDBRANCH  26  28
ENDBRANCH   1  26
TORSDOF 2
ENDMDL
MODEL 5
REMARK VINA RESULT:      -6.4      7.249     11.462
REMARK  Name = 
REMARK  5 active torsions:
REMARK  status: ('A' for Active; 'I' for Inactive)
REMARK    1  A    between atoms: C_1  and  N_2
REMARK    2  A    between atoms: N_2  and  C_3
REMARK    3  A    between atoms: N_2  and  C_4
REMARK    4  A    between atoms: N_2  and  C_5
REMARK    5  A    between atoms: C_5  and  C_6
REMARK                            x       y       z     vdW  Elec       q    Type
REMARK                         _______ _______ _______ _____ _____    ______ ____
ROOT
ATOM      1  C   UNL     1       7.096  14.878  21.085  0.00  0.00    +0.000 C 
ATOM      2  C   UNL     1       5.878  15.849  20.885  0.00  0.00    +0.000 C 
ATOM      3  N   UNL     1       5.058  15.494  19.719  0.00  0.00    +0.000 N 
ATOM      4  C   UNL     1       3.868  14.842  19.859  0.00  0.00    +0.000 A 
ATOM      5  N   UNL     1       3.109  14.938  20.932  0.00  0.00    +0.000 NA
ATOM      6  C   UNL     1       1.891  14.294  20.732  0.00  0.00    +0.000 A 
ATOM      7  C   UNL     1       0.780  14.318  21.601  0.00  0.00    +0.000 A 
ATOM      8  C   UNL     1      -0.378  13.600  21.273  0.00  0.00    +0.000 A 
ATOM      9  C   UNL     1      -0.430  12.850  20.100  0.00  0.00    +0.000 A 
ATOM     10 CL   UNL     1      -1.852  11.961  19.720  0.00  0.00    +0.000 Cl
ATOM     11  C   UNL     1       0.653  12.811  19.222  0.00  0.00    +0.000 A 
ATOM     12  C   UNL     1       1.794  13.559  19.552  0.00  0.00    +0.000 A 
ATOM     13  S   UNL     1       3.236  13.764  18.657  0.00  0.00    +0.000 S 
ATOM     14  C   UNL     1       5.753  15.629  18.440  0.00  0.00    +0.000 C 
ATOM     15  C   UNL     1       7.049  14.915  18.538  0.00  0.00    +0.000 A 
ATOM     16  N   UNL     1       7.786  14.509  17.467  0.00  0.00    +0.000 N 
ATOM     17  C   UNL     1       8.911  13.855  17.910  0.00  0.00    +0.000 A 
ATOM     18  C   UNL     1       9.929  13.251  17.161  0.00  0.00    +0.000 A 
ATOM     19  C   UNL     1      10.970  12.640  17.860  0.00  0.00    +0.000 A 
ATOM     20  C   UNL     1      10.986  12.653  19.251  0.00  0.00    +0.000 A 
ATOM     21 CL   UNL     1      12.280  11.881  20.087  0.00  0.00    +0.000 Cl
ATOM     22  C   UNL     1       9.972  13.271  19.992  0.00  0.00    +0.000 A 
ATOM     23  C   UNL     1       8.898  13.880  19.312  0.00  0.00    +0.000 A 
ATOM     24  C   UNL     1       7.700  14.555  19.708  0.00  0.00    +0.000 A 
ATOM     25  H   UNL     1       7.548  14.645  16.491  0.00  0.00    +0.000 HD
ENDROOT
BRANCH   1  26
ATOM     26  C   UNL     1       6.767  13.572  21.857  0.00  0.00    +0.000 C 
BRANCH  26  28
ATOM     27  C   UNL     1       6.701  13.191  24.323  0.00  0.00    +0.000 C 
ATOM     28  N   UNL     1       7.639  13.197  23.102  0.00  0.00    +0.000 N 
ATOM     29  C   UNL     1       8.726  14.222  23.406  0.00  0.00    +0.000 C 
ATOM     30  C   UNL     1       8.261  11.813  22.981  0.00  0.00    +0.000 C 
ENDBRANCH  26  28
ENDBRANCH   1  26
TORSDOF 2
ENDMDL
MODEL 6
REMARK VINA RESULT:      -6.2      4.015      6.353
REMARK  Name = 
REMARK  5 active torsions:
REMARK  status: ('A' for Active; 'I' for Inactive)
REMARK    1  A    between atoms: C_1  and  N_2
REMARK    2  A    between atoms: N_2  and  C_3
REMARK    3  A    between atoms: N_2  and  C_4
REMARK    4  A    between atoms: N_2  and  C_5
REMARK    5  A    between atoms: C_5  and  C_6
REMARK                            x       y       z     vdW  Elec       q    Type
REMARK                         _______ _______ _______ _____ _____    ______ ____
ROOT
ATOM      1  C   UNL     1      -1.935  12.476  21.370  0.00  0.00    +0.000 C 
ATOM      2  C   UNL     1      -0.467  12.137  21.811  0.00  0.00    +0.000 C 
ATOM      3  N   UNL     1       0.523  12.456  20.774  0.00  0.00    +0.000 N 
ATOM      4  C   UNL     1       1.296  13.578  20.849  0.00  0.00    +0.000 A 
ATOM      5  N   UNL     1       1.634  14.151  21.987  0.00  0.00    +0.000 NA
ATOM      6  C   UNL     1       2.548  15.178  21.768  0.00  0.00    +0.000 A 
ATOM      7  C   UNL     1       3.238  15.909  22.758  0.00  0.00    +0.000 A 
ATOM      8  C   UNL     1       4.118  16.933  22.383  0.00  0.00    +0.000 A 
ATOM      9  C   UNL     1       4.301  17.243  21.037  0.00  0.00    +0.000 A 
ATOM     10 CL   UNL     1       5.371  18.514  20.594  0.00  0.00    +0.000 Cl
ATOM     11  C   UNL     1       3.633  16.535  20.038  0.00  0.00    +0.000 A 
ATOM     12  C   UNL     1       2.778  15.493  20.430  0.00  0.00    +0.000 A 
ATOM     13  S   UNL     1       1.885  14.414  19.450  0.00  0.00    +0.000 S 
ATOM     14  C   UNL     1       0.391  11.655  19.559  0.00  0.00    +0.000 C 
ATOM     15  C   UNL     1      -1.024  11.711  19.116  0.00  0.00    +0.000 A 
ATOM     16  N   UNL     1      -1.449  11.411  17.858  0.00  0.00    +0.000 N 
ATOM     17  C   UNL     1      -2.809  11.595  17.781  0.00  0.00    +0.000 A 
ATOM     18  C   UNL     1      -3.657  11.431  16.678  0.00  0.00    +0.000 A 
ATOM     19  C   UNL     1      -5.015  11.692  16.863  0.00  0.00    +0.000 A 
ATOM     20  C   UNL     1      -5.492  12.086  18.109  0.00  0.00    +0.000 A 
ATOM     21 CL   UNL     1      -7.174  12.412  18.303  0.00  0.00    +0.000 Cl
ATOM     22  C   UNL     1      -4.640  12.233  19.209  0.00  0.00    +0.000 A 
ATOM     23  C   UNL     1      -3.262  11.995  19.046  0.00  0.00    +0.000 A 
ATOM     24  C   UNL     1      -2.112  12.073  19.897  0.00  0.00    +0.000 A 
ATOM     25  H   UNL     1      -0.865  11.112  17.085  0.00  0.00    +0.000 HD
ENDROOT
BRANCH   1  26
ATOM     26  C   UNL     1      -2.355  13.955  21.586  0.00  0.00    +0.000 C 
BRANCH  26  28
ATOM     27  C   UNL     1      -2.887  14.674  23.916  0.00  0.00    +0.000 C 
ATOM     28  N   UNL     1      -3.527  14.265  22.576  0.00  0.00    +0.000 N 
ATOM     29  C   UNL     1      -4.399  13.051  22.875  0.00  0.00    +0.000 C 
ATOM     30  C   UNL     1      -4.400  15.418  22.101  0.00  0.00    +0.000 C 
ENDBRANCH  26  28
ENDBRANCH   1  26
TORSDOF 2
ENDMDL
MODEL 7
REMARK VINA RESULT:      -6.1      8.591     12.724
REMARK  Name = 
REMARK  5 active torsions:
REMARK  status: ('A' for Active; 'I' for Inactive)
REMARK    1  A    between atoms: C_1  and  N_2
REMARK    2  A    between atoms: N_2  and  C_3
REMARK    3  A    between atoms: N_2  and  C_4
REMARK    4  A    between atoms: N_2  and  C_5
REMARK    5  A    between atoms: C_5  and  C_6
REMARK                            x       y       z     vdW  Elec       q    Type
REMARK                         _______ _______ _______ _____ _____    ______ ____
ROOT
ATOM      1  C   UNL     1       8.339  15.694  20.993  0.00  0.00    +0.000 C 
ATOM      2  C   UNL     1       7.529  17.039  20.976  0.00  0.00    +0.000 C 
ATOM      3  N   UNL     1       6.756  17.218  19.740  0.00  0.00    +0.000 N 
ATOM      4  C   UNL     1       5.411  16.994  19.704  0.00  0.00    +0.000 A 
ATOM      5  N   UNL     1       4.624  17.131  20.753  0.00  0.00    +0.000 NA
ATOM      6  C   UNL     1       3.288  16.991  20.387  0.00  0.00    +0.000 A 
ATOM      7  C   UNL     1       2.166  17.221  21.211  0.00  0.00    +0.000 A 
ATOM      8  C   UNL     1       0.875  17.017  20.706  0.00  0.00    +0.000 A 
ATOM      9  C   UNL     1       0.696  16.573  19.399  0.00  0.00    +0.000 A 
ATOM     10 CL   UNL     1      -0.894  16.311  18.798  0.00  0.00    +0.000 Cl
ATOM     11  C   UNL     1       1.787  16.340  18.561  0.00  0.00    +0.000 A 
ATOM     12  C   UNL     1       3.072  16.577  19.074  0.00  0.00    +0.000 A 
ATOM     13  S   UNL     1       4.582  16.450  18.283  0.00  0.00    +0.000 S 
ATOM     14  C   UNL     1       7.578  17.355  18.539  0.00  0.00    +0.000 C 
ATOM     15  C   UNL     1       8.554  16.239  18.514  0.00  0.00    +0.000 A 
ATOM     16  N   UNL     1       9.218  15.823  17.400  0.00  0.00    +0.000 N 
ATOM     17  C   UNL     1      10.020  14.753  17.721  0.00  0.00    +0.000 A 
ATOM     18  C   UNL     1      10.853  13.997  16.886  0.00  0.00    +0.000 A 
ATOM     19  C   UNL     1      11.565  12.946  17.464  0.00  0.00    +0.000 A 
ATOM     20  C   UNL     1      11.448  12.682  18.825  0.00  0.00    +0.000 A 
ATOM     21 CL   UNL     1      12.332  11.369  19.508  0.00  0.00    +0.000 Cl
ATOM     22  C   UNL     1      10.625  13.451  19.655  0.00  0.00    +0.000 A 
ATOM     23  C   UNL     1       9.880  14.507  19.094  0.00  0.00    +0.000 A 
ATOM     24  C   UNL     1       8.935  15.459  19.596  0.00  0.00    +0.000 A 
ATOM     25  H   UNL     1       9.134  16.219  16.471  0.00  0.00    +0.000 HD
ENDROOT
BRANCH   1  26
ATOM     26  C   UNL     1       7.528  14.453  21.457  0.00  0.00    +0.000 C 
BRANCH  26  28
ATOM     27  C   UNL     1       8.529  12.452  22.562  0.00  0.00    +0.000 C 
ATOM     28  N   UNL     1       7.865  13.812  22.845  0.00  0.00    +0.000 N 
ATOM     29  C   UNL     1       6.630  13.515  23.687  0.00  0.00    +0.000 C 
ATOM     30  C   UNL     1       8.844  14.654  23.651  0.00  0.00    +0.000 C 
ENDBRANCH  26  28
ENDBRANCH   1  26
TORSDOF 2
ENDMDL
MODEL 8
REMARK VINA RESULT:      -6.0      3.638      5.676
REMARK  Name = 
REMARK  5 active torsions:
REMARK  status: ('A' for Active; 'I' for Inactive)
REMARK    1  A    between atoms: C_1  and  N_2
REMARK    2  A    between atoms: N_2  and  C_3
REMARK    3  A    between atoms: N_2  and  C_4
REMARK    4  A    between atoms: N_2  and  C_5
REMARK    5  A    between atoms: C_5  and  C_6
REMARK                            x       y       z     vdW  Elec       q    Type
REMARK                         _______ _______ _______ _____ _____    ______ ____
ROOT
ATOM      1  C   UNL     1      -2.104  12.759  22.372  0.00  0.00    +0.000 C 
ATOM      2  C   UNL     1      -0.744  12.008  22.142  0.00  0.00    +0.000 C 
ATOM      3  N   UNL     1      -0.208  12.211  20.789  0.00  0.00    +0.000 N 
ATOM      4  C   UNL     1       0.814  13.083  20.554  0.00  0.00    +0.000 A 
ATOM      5  N   UNL     1       1.728  13.391  21.453  0.00  0.00    +0.000 NA
ATOM      6  C   UNL     1       2.728  14.177  20.888  0.00  0.00    +0.000 A 
ATOM      7  C   UNL     1       3.934  14.568  21.506  0.00  0.00    +0.000 A 
ATOM      8  C   UNL     1       4.841  15.383  20.815  0.00  0.00    +0.000 A 
ATOM      9  C   UNL     1       4.548  15.821  19.526  0.00  0.00    +0.000 A 
ATOM     10 CL   UNL     1       5.663  16.835  18.697  0.00  0.00    +0.000 Cl
ATOM     11  C   UNL     1       3.365  15.447  18.889  0.00  0.00    +0.000 A 
ATOM     12  C   UNL     1       2.481  14.607  19.585  0.00  0.00    +0.000 A 
ATOM     13  S   UNL     1       1.003  13.931  19.055  0.00  0.00    +0.000 S 
ATOM     14  C   UNL     1      -1.039  11.644  19.729  0.00  0.00    +0.000 C 
ATOM     15  C   UNL     1      -2.432  12.112  19.930  0.00  0.00    +0.000 A 
ATOM     16  N   UNL     1      -3.392  12.104  18.965  0.00  0.00    +0.000 N 
ATOM     17  C   UNL     1      -4.555  12.630  19.475  0.00  0.00    +0.000 A 
ATOM     18  C   UNL     1      -5.783  12.838  18.832  0.00  0.00    +0.000 A 
ATOM     19  C   UNL     1      -6.817  13.400  19.581  0.00  0.00    +0.000 A 
ATOM     20  C   UNL     1      -6.620  13.724  20.920  0.00  0.00    +0.000 A 
ATOM     21 CL   UNL     1      -7.914  14.428  21.815  0.00  0.00    +0.000 Cl
ATOM     22  C   UNL     1      -5.395  13.500  21.558  0.00  0.00    +0.000 A 
ATOM     23  C   UNL     1      -4.328  12.951  20.821  0.00  0.00    +0.000 A 
ATOM     24  C   UNL     1      -2.963  12.622  21.105  0.00  0.00    +0.000 A 
ATOM     25  H   UNL     1      -3.279  11.780  18.011  0.00  0.00    +0.000 HD
ENDROOT
BRANCH   1  26
ATOM     26  C   UNL     1      -1.961  14.252  22.776  0.00  0.00    +0.000 C 
BRANCH  26  28
ATOM     27  C   UNL     1      -1.679  15.183  25.075  0.00  0.00    +0.000 C 
ATOM     28  N   UNL     1      -2.737  14.765  24.036  0.00  0.00    +0.000 N 
ATOM     29  C   UNL     1      -3.583  13.685  24.703  0.00  0.00    +0.000 C 
ATOM     30  C   UNL     1      -3.603  15.978  23.731  0.00  0.00    +0.000 C 
ENDBRANCH  26  28
ENDBRANCH   1  26
TORSDOF 2
ENDMDL
MODEL 9
REMARK VINA RESULT:      -5.9      6.862     11.145
REMARK  Name = 
REMARK  5 active torsions:
REMARK  status: ('A' for Active; 'I' for Inactive)
REMARK    1  A    between atoms: C_1  and  N_2
REMARK    2  A    between atoms: N_2  and  C_3
REMARK    3  A    between atoms: N_2  and  C_4
REMARK    4  A    between atoms: N_2  and  C_5
REMARK    5  A    between atoms: C_5  and  C_6
REMARK                            x       y       z     vdW  Elec       q    Type
REMARK                         _______ _______ _______ _____ _____    ______ ____
ROOT
ATOM      1  C   UNL     1       6.559  14.984  21.601  0.00  0.00    +0.000 C 
ATOM      2  C   UNL     1       5.371  16.000  21.464  0.00  0.00    +0.000 C 
ATOM      3  N   UNL     1       4.515  15.716  20.303  0.00  0.00    +0.000 N 
ATOM      4  C   UNL     1       3.308  15.098  20.445  0.00  0.00    +0.000 A 
ATOM      5  N   UNL     1       2.574  15.179  21.538  0.00  0.00    +0.000 NA
ATOM      6  C   UNL     1       1.332  14.583  21.341  0.00  0.00    +0.000 A 
ATOM      7  C   UNL     1       0.240  14.611  22.234  0.00  0.00    +0.000 A 
ATOM      8  C   UNL     1      -0.948  13.944  21.906  0.00  0.00    +0.000 A 
ATOM      9  C   UNL     1      -1.049  13.241  20.708  0.00  0.00    +0.000 A 
ATOM     10 CL   UNL     1      -2.508  12.413  20.327  0.00  0.00    +0.000 Cl
ATOM     11  C   UNL     1       0.014  13.199  19.805  0.00  0.00    +0.000 A 
ATOM     12  C   UNL     1       1.186  13.896  20.138  0.00  0.00    +0.000 A 
ATOM     13  S   UNL     1       2.615  14.088  19.220  0.00  0.00    +0.000 S 
ATOM     14  C   UNL     1       5.187  15.876  19.015  0.00  0.00    +0.000 C 
ATOM     15  C   UNL     1       6.461  15.117  19.058  0.00  0.00    +0.000 A 
ATOM     16  N   UNL     1       7.161  14.727  17.958  0.00  0.00    +0.000 N 
ATOM     17  C   UNL     1       8.273  14.021  18.352  0.00  0.00    +0.000 A 
ATOM     18  C   UNL     1       9.255  13.412  17.559  0.00  0.00    +0.000 A 
ATOM     19  C   UNL     1      10.289  12.742  18.213  0.00  0.00    +0.000 A 
ATOM     20  C   UNL     1      10.334  12.703  19.603  0.00  0.00    +0.000 A 
ATOM     21 CL   UNL     1      11.619  11.858  20.381  0.00  0.00    +0.000 Cl
ATOM     22  C   UNL     1       9.356  13.325  20.387  0.00  0.00    +0.000 A 
ATOM     23  C   UNL     1       8.290  13.993  19.754  0.00  0.00    +0.000 A 
ATOM     24  C   UNL     1       7.123  14.693  20.201  0.00  0.00    +0.000 A 
ATOM     25  H   UNL     1       6.908  14.907  16.993  0.00  0.00    +0.000 HD
ENDROOT
BRANCH   1  26
ATOM     26  C   UNL     1       6.203  13.661  22.332  0.00  0.00    +0.000 C 
BRANCH  26  28
ATOM     27  C   UNL     1       7.583  11.845  23.346  0.00  0.00    +0.000 C 
ATOM     28  N   UNL     1       7.029  13.259  23.600  0.00  0.00    +0.000 N 
ATOM     29  C   UNL     1       6.182  13.163  24.864  0.00  0.00    +0.000 C 
ATOM     30  C   UNL     1       8.208  14.189  23.844  0.00  0.00    +0.000 C 
ENDBRANCH  26  28
ENDBRANCH   1  26
TORSDOF 2
ENDMDL
