MODEL 1
REMARK VINA RESULT:      -7.5      0.000      0.000
REMARK  Name = 
REMARK  9 active torsions:
REMARK  status: ('A' for Active; 'I' for Inactive)
REMARK    1  A    between atoms: C_1  and  O_2
REMARK    2  A    between atoms: O_2  and  C_3
REMARK    3  A    between atoms: C_6  and  C_7
REMARK    4  A    between atoms: C_7  and  N_8
REMARK    5  A    between atoms: C_9  and  C_11
REMARK    6  A    between atoms: C_11  and  O_12
REMARK    7  A    between atoms: O_12  and  C_13
REMARK    8  A    between atoms: C_13  and  C_15
REMARK    9  A    between atoms: C_15  and  N_16
REMARK                            x       y       z     vdW  Elec       q    Type
REMARK                         _______ _______ _______ _____ _____    ______ ____
ROOT
ATOM      1  O   UNL     1       1.777   2.232  18.851  0.00  0.00    +0.000 OA
ENDROOT
BRANCH   1   2
ATOM      2  C   UNL     1       2.073   3.000  17.763  0.00  0.00    +0.000 C 
ATOM      3  O   UNL     1       1.264   3.690  17.156  0.00  0.00    +0.000 OA
BRANCH   2   4
ATOM      4  C   UNL     1       3.517   2.788  17.319  0.00  0.00    +0.000 C 
BRANCH   4   5
ATOM      5  N   UNL     1       4.294   3.927  17.774  0.00  0.00    +0.000 N 
ATOM      6  C   UNL     1       4.654   4.951  16.950  0.00  0.00    +0.000 C 
ATOM      7  O   UNL     1       4.505   4.978  15.740  0.00  0.00    +0.000 OA
ATOM      8  C   UNL     1       5.184   6.079  17.802  0.00  0.00    +0.000 C 
ATOM      9  C   UNL     1       6.279   6.900  17.131  0.00  0.00    +0.000 C 
ATOM     10  C   UNL     1       7.651   6.739  17.695  0.00  0.00    +0.000 C 
ATOM     11  C   UNL     1       7.923   6.090  18.830  0.00  0.00    +0.000 C 
ATOM     12  C   UNL     1       6.897   5.431  19.695  0.00  0.00    +0.000 C 
ATOM     13  C   UNL     1       5.467   5.416  19.154  0.00  0.00    +0.000 C 
ATOM     14  C   UNL     1       4.917   4.012  18.982  0.00  0.00    +0.000 C 
ATOM     15  O   UNL     1       5.034   3.109  19.795  0.00  0.00    +0.000 OA
ENDBRANCH   4   5
ENDBRANCH   2   4
ENDBRANCH   1   2
BRANCH   1  16
ATOM     16  C   UNL     1       0.890   2.828  19.807  0.00  0.00    +0.000 C 
BRANCH  16  18
ATOM     17  N   UNL     1       1.680   5.113  20.097  0.00  0.00    +0.000 N 
ATOM     18  C   UNL     1       1.623   3.856  20.662  0.00  0.00    +0.000 C 
ATOM     19  O   UNL     1       2.145   3.570  21.735  0.00  0.00    +0.000 OA
ATOM     20  H   UNL     1       1.204   5.282  19.219  0.00  0.00    +0.000 HD
BRANCH  17  21
ATOM     21  C   UNL     1       2.283   6.237  20.780  0.00  0.00    +0.000 C 
BRANCH  21  25
ATOM     22  C   UNL     1       0.533  10.116  19.965  0.00  0.00    +0.000 A 
ATOM     23  C   UNL     1       0.323   9.475  21.185  0.00  0.00    +0.000 A 
ATOM     24  C   UNL     1       0.879   8.216  21.429  0.00  0.00    +0.000 A 
ATOM     25  C   UNL     1       1.640   7.562  20.449  0.00  0.00    +0.000 A 
ATOM     26  C   UNL     1       1.852   8.218  19.229  0.00  0.00    +0.000 A 
ATOM     27  C   UNL     1       1.294   9.482  18.983  0.00  0.00    +0.000 A 
BRANCH  22  29
ATOM     28  C   UNL     1       0.040  11.967  18.571  0.00  0.00    +0.000 C 
ATOM     29  O   UNL     1      -0.073  11.337  19.842  0.00  0.00    +0.000 OA
ENDBRANCH  22  29
ENDBRANCH  21  25
ENDBRANCH  17  21
ENDBRANCH  16  18
ENDBRANCH   1  16
TORSDOF 8
ENDMDL
MODEL 2
REMARK VINA RESULT:      -7.5      4.702      7.609
REMARK  Name = 
REMARK  9 active torsions:
REMARK  status: ('A' for Active; 'I' for Inactive)
REMARK    1  A    between atoms: C_1  and  O_2
REMARK    2  A    between atoms: O_2  and  C_3
REMARK    3  A    between atoms: C_6  and  C_7
REMARK    4  A    between atoms: C_7  and  N_8
REMARK    5  A    between atoms: C_9  and  C_11
REMARK    6  A    between atoms: C_11  and  O_12
REMARK    7  A    between atoms: O_12  and  C_13
REMARK    8  A    between atoms: C_13  and  C_15
REMARK    9  A    between atoms: C_15  and  N_16
REMARK                            x       y       z     vdW  Elec       q    Type
REMARK                         _______ _______ _______ _____ _____    ______ ____
ROOT
ATOM      1  O   UNL     1       6.887   5.677  18.661  0.00  0.00    +0.000 OA
ENDROOT
BRANCH   1   2
ATOM      2  C   UNL     1       6.982   4.653  17.764  0.00  0.00    +0.000 C 
ATOM      3  O   UNL     1       8.034   4.197  17.334  0.00  0.00    +0.000 OA
BRANCH   2   4
ATOM      4  C   UNL     1       5.603   4.233  17.265  0.00  0.00    +0.000 C 
BRANCH   4   5
ATOM      5  N   UNL     1       4.680   4.318  18.383  0.00  0.00    +0.000 N 
ATOM      6  C   UNL     1       4.515   3.307  19.281  0.00  0.00    +0.000 C 
ATOM      7  O   UNL     1       4.990   2.187  19.190  0.00  0.00    +0.000 OA
ATOM      8  C   UNL     1       3.721   3.839  20.450  0.00  0.00    +0.000 C 
ATOM      9  C   UNL     1       2.817   2.803  21.108  0.00  0.00    +0.000 C 
ATOM     10  C   UNL     1       1.352   2.994  20.902  0.00  0.00    +0.000 C 
ATOM     11  C   UNL     1       0.808   4.086  20.360  0.00  0.00    +0.000 C 
ATOM     12  C   UNL     1       1.584   5.268  19.879  0.00  0.00    +0.000 C 
ATOM     13  C   UNL     1       3.107   5.137  19.916  0.00  0.00    +0.000 C 
ATOM     14  C   UNL     1       3.745   5.295  18.548  0.00  0.00    +0.000 C 
ATOM     15  O   UNL     1       3.450   6.151  17.731  0.00  0.00    +0.000 OA
ENDBRANCH   4   5
ENDBRANCH   2   4
ENDBRANCH   1   2
BRANCH   1  16
ATOM     16  C   UNL     1       8.041   6.521  18.761  0.00  0.00    +0.000 C 
BRANCH  16  18
ATOM     17  N   UNL     1       8.497   8.895  18.465  0.00  0.00    +0.000 N 
ATOM     18  C   UNL     1       7.857   7.792  17.938  0.00  0.00    +0.000 C 
ATOM     19  O   UNL     1       7.167   7.829  16.924  0.00  0.00    +0.000 OA
ATOM     20  H   UNL     1       9.070   8.785  19.292  0.00  0.00    +0.000 HD
BRANCH  17  21
ATOM     21  C   UNL     1       8.489  10.181  17.799  0.00  0.00    +0.000 C 
BRANCH  21  25
ATOM     22  C   UNL     1      11.167  13.139  19.487  0.00  0.00    +0.000 A 
ATOM     23  C   UNL     1      10.518  13.366  18.275  0.00  0.00    +0.000 A 
ATOM     24  C   UNL     1       9.670  12.396  17.732  0.00  0.00    +0.000 A 
ATOM     25  C   UNL     1       9.469  11.170  18.381  0.00  0.00    +0.000 A 
ATOM     26  C   UNL     1      10.120  10.954  19.603  0.00  0.00    +0.000 A 
ATOM     27  C   UNL     1      10.972  11.927  20.149  0.00  0.00    +0.000 A 
BRANCH  22  29
ATOM     28  C   UNL     1      11.950  15.345  19.125  0.00  0.00    +0.000 C 
ATOM     29  O   UNL     1      11.979  14.156  19.907  0.00  0.00    +0.000 OA
ENDBRANCH  22  29
ENDBRANCH  21  25
ENDBRANCH  17  21
ENDBRANCH  16  18
ENDBRANCH   1  16
TORSDOF 8
ENDMDL
MODEL 3
REMARK VINA RESULT:      -7.5      4.725      7.641
REMARK  Name = 
REMARK  9 active torsions:
REMARK  status: ('A' for Active; 'I' for Inactive)
REMARK    1  A    between atoms: C_1  and  O_2
REMARK    2  A    between atoms: O_2  and  C_3
REMARK    3  A    between atoms: C_6  and  C_7
REMARK    4  A    between atoms: C_7  and  N_8
REMARK    5  A    between atoms: C_9  and  C_11
REMARK    6  A    between atoms: C_11  and  O_12
REMARK    7  A    between atoms: O_12  and  C_13
REMARK    8  A    between atoms: C_13  and  C_15
REMARK    9  A    between atoms: C_15  and  N_16
REMARK                            x       y       z     vdW  Elec       q    Type
REMARK                         _______ _______ _______ _____ _____    ______ ____
ROOT
ATOM      1  O   UNL     1       6.710   6.327  16.752  0.00  0.00    +0.000 OA
ENDROOT
BRANCH   1   2
ATOM      2  C   UNL     1       5.387   6.018  16.625  0.00  0.00    +0.000 C 
ATOM      3  O   UNL     1       4.506   6.823  16.352  0.00  0.00    +0.000 OA
BRANCH   2   4
ATOM      4  C   UNL     1       5.127   4.561  16.995  0.00  0.00    +0.000 C 
BRANCH   4   5
ATOM      5  N   UNL     1       3.940   4.519  17.830  0.00  0.00    +0.000 N 
ATOM      6  C   UNL     1       3.927   4.971  19.115  0.00  0.00    +0.000 C 
ATOM      7  O   UNL     1       4.903   5.320  19.759  0.00  0.00    +0.000 OA
ATOM      8  C   UNL     1       2.491   5.049  19.574  0.00  0.00    +0.000 C 
ATOM      9  C   UNL     1       2.299   4.770  21.061  0.00  0.00    +0.000 C 
ATOM     10  C   UNL     1       1.623   3.484  21.400  0.00  0.00    +0.000 C 
ATOM     11  C   UNL     1       1.030   2.691  20.504  0.00  0.00    +0.000 C 
ATOM     12  C   UNL     1       0.961   2.973  19.038  0.00  0.00    +0.000 C 
ATOM     13  C   UNL     1       1.732   4.199  18.549  0.00  0.00    +0.000 C 
ATOM     14  C   UNL     1       2.791   3.857  17.519  0.00  0.00    +0.000 C 
ATOM     15  O   UNL     1       2.634   3.097  16.577  0.00  0.00    +0.000 OA
ENDBRANCH   4   5
ENDBRANCH   2   4
ENDBRANCH   1   2
BRANCH   1  16
ATOM     16  C   UNL     1       7.009   7.722  16.897  0.00  0.00    +0.000 C 
BRANCH  16  18
ATOM     17  N   UNL     1       8.396   9.258  18.179  0.00  0.00    +0.000 N 
ATOM     18  C   UNL     1       7.952   7.956  18.072  0.00  0.00    +0.000 C 
ATOM     19  O   UNL     1       8.308   7.054  18.824  0.00  0.00    +0.000 OA
ATOM     20  H   UNL     1       8.040   9.956  17.538  0.00  0.00    +0.000 HD
BRANCH  17  21
ATOM     21  C   UNL     1       9.253   9.692  19.263  0.00  0.00    +0.000 C 
BRANCH  21  25
ATOM     22  C   UNL     1      11.274  13.477  18.661  0.00  0.00    +0.000 A 
ATOM     23  C   UNL     1      10.857  13.079  19.930  0.00  0.00    +0.000 A 
ATOM     24  C   UNL     1      10.190  11.863  20.109  0.00  0.00    +0.000 A 
ATOM     25  C   UNL     1       9.909  11.030  19.017  0.00  0.00    +0.000 A 
ATOM     26  C   UNL     1      10.338  11.434  17.746  0.00  0.00    +0.000 A 
ATOM     27  C   UNL     1      11.008  12.655  17.567  0.00  0.00    +0.000 A 
BRANCH  22  29
ATOM     28  C   UNL     1      12.333  15.124  17.329  0.00  0.00    +0.000 C 
ATOM     29  O   UNL     1      11.904  14.691  18.614  0.00  0.00    +0.000 OA
ENDBRANCH  22  29
ENDBRANCH  21  25
ENDBRANCH  17  21
ENDBRANCH  16  18
ENDBRANCH   1  16
TORSDOF 8
ENDMDL
MODEL 4
REMARK VINA RESULT:      -7.4      4.119      6.885
REMARK  Name = 
REMARK  9 active torsions:
REMARK  status: ('A' for Active; 'I' for Inactive)
REMARK    1  A    between atoms: C_1  and  O_2
REMARK    2  A    between atoms: O_2  and  C_3
REMARK    3  A    between atoms: C_6  and  C_7
REMARK    4  A    between atoms: C_7  and  N_8
REMARK    5  A    between atoms: C_9  and  C_11
REMARK    6  A    between atoms: C_11  and  O_12
REMARK    7  A    between atoms: O_12  and  C_13
REMARK    8  A    between atoms: C_13  and  C_15
REMARK    9  A    between atoms: C_15  and  N_16
REMARK                            x       y       z     vdW  Elec       q    Type
REMARK                         _______ _______ _______ _____ _____    ______ ____
ROOT
ATOM      1  O   UNL     1       5.283   7.324  17.151  0.00  0.00    +0.000 OA
ENDROOT
BRANCH   1   2
ATOM      2  C   UNL     1       4.222   6.533  17.482  0.00  0.00    +0.000 C 
ATOM      3  O   UNL     1       3.347   6.838  18.282  0.00  0.00    +0.000 OA
BRANCH   2   4
ATOM      4  C   UNL     1       4.336   5.161  16.823  0.00  0.00    +0.000 C 
BRANCH   4   5
ATOM      5  N   UNL     1       3.808   4.177  17.752  0.00  0.00    +0.000 N 
ATOM      6  C   UNL     1       2.485   3.858  17.814  0.00  0.00    +0.000 C 
ATOM      7  O   UNL     1       1.583   4.433  17.228  0.00  0.00    +0.000 OA
ATOM      8  C   UNL     1       2.339   2.616  18.661  0.00  0.00    +0.000 C 
ATOM      9  C   UNL     1       1.039   2.558  19.456  0.00  0.00    +0.000 C 
ATOM     10  C   UNL     1       1.171   2.724  20.933  0.00  0.00    +0.000 C 
ATOM     11  C   UNL     1       2.337   2.725  21.585  0.00  0.00    +0.000 C 
ATOM     12  C   UNL     1       3.672   2.566  20.932  0.00  0.00    +0.000 C 
ATOM     13  C   UNL     1       3.675   2.519  19.404  0.00  0.00    +0.000 C 
ATOM     14  C   UNL     1       4.507   3.625  18.782  0.00  0.00    +0.000 C 
ATOM     15  O   UNL     1       5.616   3.967  19.162  0.00  0.00    +0.000 OA
ENDBRANCH   4   5
ENDBRANCH   2   4
ENDBRANCH   1   2
BRANCH   1  16
ATOM     16  C   UNL     1       6.526   6.640  16.950  0.00  0.00    +0.000 C 
BRANCH  16  18
ATOM     17  N   UNL     1       7.937   8.388  17.891  0.00  0.00    +0.000 N 
ATOM     18  C   UNL     1       7.556   7.066  17.992  0.00  0.00    +0.000 C 
ATOM     19  O   UNL     1       8.025   6.285  18.815  0.00  0.00    +0.000 OA
ATOM     20  H   UNL     1       7.489   8.981  17.203  0.00  0.00    +0.000 HD
BRANCH  17  21
ATOM     21  C   UNL     1       8.861   8.996  18.825  0.00  0.00    +0.000 C 
BRANCH  21  25
ATOM     22  C   UNL     1       9.538  13.208  18.065  0.00  0.00    +0.000 A 
ATOM     23  C   UNL     1       8.444  12.544  17.511  0.00  0.00    +0.000 A 
ATOM     24  C   UNL     1       8.246  11.181  17.750  0.00  0.00    +0.000 A 
ATOM     25  C   UNL     1       9.151  10.448  18.531  0.00  0.00    +0.000 A 
ATOM     26  C   UNL     1      10.244  11.125  19.090  0.00  0.00    +0.000 A 
ATOM     27  C   UNL     1      10.443  12.494  18.850  0.00  0.00    +0.000 A 
BRANCH  22  29
ATOM     28  C   UNL     1      10.887  14.976  17.249  0.00  0.00    +0.000 C 
ATOM     29  O   UNL     1       9.629  14.535  17.749  0.00  0.00    +0.000 OA
ENDBRANCH  22  29
ENDBRANCH  21  25
ENDBRANCH  17  21
ENDBRANCH  16  18
ENDBRANCH   1  16
TORSDOF 8
ENDMDL
MODEL 5
REMARK VINA RESULT:      -7.4      4.522      7.190
REMARK  Name = 
REMARK  9 active torsions:
REMARK  status: ('A' for Active; 'I' for Inactive)
REMARK    1  A    between atoms: C_1  and  O_2
REMARK    2  A    between atoms: O_2  and  C_3
REMARK    3  A    between atoms: C_6  and  C_7
REMARK    4  A    between atoms: C_7  and  N_8
REMARK    5  A    between atoms: C_9  and  C_11
REMARK    6  A    between atoms: C_11  and  O_12
REMARK    7  A    between atoms: O_12  and  C_13
REMARK    8  A    between atoms: C_13  and  C_15
REMARK    9  A    between atoms: C_15  and  N_16
REMARK                            x       y       z     vdW  Elec       q    Type
REMARK                         _______ _______ _______ _____ _____    ______ ____
ROOT
ATOM      1  O   UNL     1       7.150   5.738  16.618  0.00  0.00    +0.000 OA
ENDROOT
BRANCH   1   2
ATOM      2  C   UNL     1       6.295   4.837  17.183  0.00  0.00    +0.000 C 
ATOM      3  O   UNL     1       6.556   4.144  18.158  0.00  0.00    +0.000 OA
BRANCH   2   4
ATOM      4  C   UNL     1       5.015   4.709  16.362  0.00  0.00    +0.000 C 
BRANCH   4   5
ATOM      5  N   UNL     1       3.918   4.471  17.284  0.00  0.00    +0.000 N 
ATOM      6  C   UNL     1       3.412   5.443  18.093  0.00  0.00    +0.000 C 
ATOM      7  O   UNL     1       3.884   6.557  18.253  0.00  0.00    +0.000 OA
ATOM      8  C   UNL     1       2.119   4.937  18.687  0.00  0.00    +0.000 C 
ATOM      9  C   UNL     1       1.835   5.460  20.091  0.00  0.00    +0.000 C 
ATOM     10  C   UNL     1       1.940   4.458  21.191  0.00  0.00    +0.000 C 
ATOM     11  C   UNL     1       2.071   3.143  20.998  0.00  0.00    +0.000 C 
ATOM     12  C   UNL     1       2.138   2.488  19.656  0.00  0.00    +0.000 C 
ATOM     13  C   UNL     1       2.173   3.424  18.448  0.00  0.00    +0.000 C 
ATOM     14  C   UNL     1       3.417   3.244  17.599  0.00  0.00    +0.000 C 
ATOM     15  O   UNL     1       3.892   2.169  17.269  0.00  0.00    +0.000 OA
ENDBRANCH   4   5
ENDBRANCH   2   4
ENDBRANCH   1   2
BRANCH   1  16
ATOM     16  C   UNL     1       6.916   7.111  16.959  0.00  0.00    +0.000 C 
BRANCH  16  18
ATOM     17  N   UNL     1       8.206   8.899  17.993  0.00  0.00    +0.000 N 
ATOM     18  C   UNL     1       7.864   7.565  18.064  0.00  0.00    +0.000 C 
ATOM     19  O   UNL     1       8.307   6.796  18.912  0.00  0.00    +0.000 OA
ATOM     20  H   UNL     1       7.781   9.481  17.280  0.00  0.00    +0.000 HD
BRANCH  17  21
ATOM     21  C   UNL     1       9.048   9.533  18.985  0.00  0.00    +0.000 C 
BRANCH  21  25
ATOM     22  C   UNL     1      10.224  13.574  17.956  0.00  0.00    +0.000 A 
ATOM     23  C   UNL     1       9.012  13.044  17.514  0.00  0.00    +0.000 A 
ATOM     24  C   UNL     1       8.652  11.733  17.839  0.00  0.00    +0.000 A 
ATOM     25  C   UNL     1       9.507  10.917  18.595  0.00  0.00    +0.000 A 
ATOM     26  C   UNL     1      10.719  11.461  19.040  0.00  0.00    +0.000 A 
ATOM     27  C   UNL     1      11.081  12.778  18.715  0.00  0.00    +0.000 A 
BRANCH  22  29
ATOM     28  C   UNL     1      10.923  15.750  18.578  0.00  0.00    +0.000 C 
ATOM     29  O   UNL     1      10.468  14.862  17.563  0.00  0.00    +0.000 OA
ENDBRANCH  22  29
ENDBRANCH  21  25
ENDBRANCH  17  21
ENDBRANCH  16  18
ENDBRANCH   1  16
TORSDOF 8
ENDMDL
MODEL 6
REMARK VINA RESULT:      -7.4      4.226      7.226
REMARK  Name = 
REMARK  9 active torsions:
REMARK  status: ('A' for Active; 'I' for Inactive)
REMARK    1  A    between atoms: C_1  and  O_2
REMARK    2  A    between atoms: O_2  and  C_3
REMARK    3  A    between atoms: C_6  and  C_7
REMARK    4  A    between atoms: C_7  and  N_8
REMARK    5  A    between atoms: C_9  and  C_11
REMARK    6  A    between atoms: C_11  and  O_12
REMARK    7  A    between atoms: O_12  and  C_13
REMARK    8  A    between atoms: C_13  and  C_15
REMARK    9  A    between atoms: C_15  and  N_16
REMARK                            x       y       z     vdW  Elec       q    Type
REMARK                         _______ _______ _______ _____ _____    ______ ____
ROOT
ATOM      1  O   UNL     1       7.401   5.147  16.424  0.00  0.00    +0.000 OA
ENDROOT
BRANCH   1   2
ATOM      2  C   UNL     1       6.233   4.441  16.433  0.00  0.00    +0.000 C 
ATOM      3  O   UNL     1       5.446   4.384  15.497  0.00  0.00    +0.000 OA
BRANCH   2   4
ATOM      4  C   UNL     1       5.969   3.837  17.809  0.00  0.00    +0.000 C 
BRANCH   4   5
ATOM      5  N   UNL     1       4.547   3.952  18.079  0.00  0.00    +0.000 N 
ATOM      6  C   UNL     1       4.018   4.959  18.828  0.00  0.00    +0.000 C 
ATOM      7  O   UNL     1       4.652   5.783  19.467  0.00  0.00    +0.000 OA
ATOM      8  C   UNL     1       2.517   4.936  18.658  0.00  0.00    +0.000 C 
ATOM      9  C   UNL     1       1.747   5.387  19.894  0.00  0.00    +0.000 C 
ATOM     10  C   UNL     1       0.999   4.319  20.620  0.00  0.00    +0.000 C 
ATOM     11  C   UNL     1       0.817   3.082  20.152  0.00  0.00    +0.000 C 
ATOM     12  C   UNL     1       1.340   2.587  18.843  0.00  0.00    +0.000 C 
ATOM     13  C   UNL     1       2.237   3.551  18.066  0.00  0.00    +0.000 C 
ATOM     14  C   UNL     1       3.622   2.989  17.807  0.00  0.00    +0.000 C 
ATOM     15  O   UNL     1       3.859   1.852  17.433  0.00  0.00    +0.000 OA
ENDBRANCH   4   5
ENDBRANCH   2   4
ENDBRANCH   1   2
BRANCH   1  16
ATOM     16  C   UNL     1       7.663   5.925  17.599  0.00  0.00    +0.000 C 
BRANCH  16  18
ATOM     17  N   UNL     1       8.136   8.298  17.873  0.00  0.00    +0.000 N 
ATOM     18  C   UNL     1       7.229   7.374  17.399  0.00  0.00    +0.000 C 
ATOM     19  O   UNL     1       6.150   7.677  16.898  0.00  0.00    +0.000 OA
ATOM     20  H   UNL     1       9.019   7.976  18.252  0.00  0.00    +0.000 HD
BRANCH  17  21
ATOM     21  C   UNL     1       7.932   9.724  17.725  0.00  0.00    +0.000 C 
BRANCH  21  25
ATOM     22  C   UNL     1      10.877  12.268  19.629  0.00  0.00    +0.000 A 
ATOM     23  C   UNL     1      10.442  12.522  18.329  0.00  0.00    +0.000 A 
ATOM     24  C   UNL     1       9.504  11.683  17.720  0.00  0.00    +0.000 A 
ATOM     25  C   UNL     1       8.997  10.561  18.391  0.00  0.00    +0.000 A 
ATOM     26  C   UNL     1       9.435  10.318  19.699  0.00  0.00    +0.000 A 
ATOM     27  C   UNL     1      10.377  11.160  20.312  0.00  0.00    +0.000 A 
BRANCH  22  29
ATOM     28  C   UNL     1      11.893  14.399  19.430  0.00  0.00    +0.000 C 
ATOM     29  O   UNL     1      11.804  13.152  20.110  0.00  0.00    +0.000 OA
ENDBRANCH  22  29
ENDBRANCH  21  25
ENDBRANCH  17  21
ENDBRANCH  16  18
ENDBRANCH   1  16
TORSDOF 8
ENDMDL
MODEL 7
REMARK VINA RESULT:      -7.3      2.458      4.666
REMARK  Name = 
REMARK  9 active torsions:
REMARK  status: ('A' for Active; 'I' for Inactive)
REMARK    1  A    between atoms: C_1  and  O_2
REMARK    2  A    between atoms: O_2  and  C_3
REMARK    3  A    between atoms: C_6  and  C_7
REMARK    4  A    between atoms: C_7  and  N_8
REMARK    5  A    between atoms: C_9  and  C_11
REMARK    6  A    between atoms: C_11  and  O_12
REMARK    7  A    between atoms: O_12  and  C_13
REMARK    8  A    between atoms: C_13  and  C_15
REMARK    9  A    between atoms: C_15  and  N_16
REMARK                            x       y       z     vdW  Elec       q    Type
REMARK                         _______ _______ _______ _____ _____    ______ ____
ROOT
ATOM      1  O   UNL     1       3.496   6.266  17.810  0.00  0.00    +0.000 OA
ENDROOT
BRANCH   1   2
ATOM      2  C   UNL     1       4.620   5.888  17.135  0.00  0.00    +0.000 C 
ATOM      3  O   UNL     1       5.550   6.633  16.856  0.00  0.00    +0.000 OA
BRANCH   2   4
ATOM      4  C   UNL     1       4.511   4.443  16.656  0.00  0.00    +0.000 C 
BRANCH   4   5
ATOM      5  N   UNL     1       3.850   3.678  17.698  0.00  0.00    +0.000 N 
ATOM      6  C   UNL     1       2.518   3.397  17.674  0.00  0.00    +0.000 C 
ATOM      7  O   UNL     1       1.706   3.853  16.886  0.00  0.00    +0.000 OA
ATOM      8  C   UNL     1       2.235   2.358  18.732  0.00  0.00    +0.000 C 
ATOM      9  C   UNL     1       0.856   2.483  19.371  0.00  0.00    +0.000 C 
ATOM     10  C   UNL     1       0.836   2.945  20.789  0.00  0.00    +0.000 C 
ATOM     11  C   UNL     1       1.923   3.063  21.554  0.00  0.00    +0.000 C 
ATOM     12  C   UNL     1       3.314   2.755  21.102  0.00  0.00    +0.000 C 
ATOM     13  C   UNL     1       3.480   2.396  19.625  0.00  0.00    +0.000 C 
ATOM     14  C   UNL     1       4.414   3.339  18.891  0.00  0.00    +0.000 C 
ATOM     15  O   UNL     1       5.487   3.735  19.316  0.00  0.00    +0.000 OA
ENDBRANCH   4   5
ENDBRANCH   2   4
ENDBRANCH   1   2
BRANCH   1  16
ATOM     16  C   UNL     1       3.130   7.646  17.679  0.00  0.00    +0.000 C 
BRANCH  16  18
ATOM     17  N   UNL     1       1.562   9.273  18.587  0.00  0.00    +0.000 N 
ATOM     18  C   UNL     1       2.201   8.071  18.811  0.00  0.00    +0.000 C 
ATOM     19  O   UNL     1       2.072   7.416  19.841  0.00  0.00    +0.000 OA
ATOM     20  H   UNL     1       1.697   9.747  17.702  0.00  0.00    +0.000 HD
BRANCH  17  21
ATOM     21  C   UNL     1       0.597   9.818  19.518  0.00  0.00    +0.000 C 
BRANCH  21  25
ATOM     22  C   UNL     1      -3.021  11.260  17.619  0.00  0.00    +0.000 A 
ATOM     23  C   UNL     1      -2.234  10.280  17.016  0.00  0.00    +0.000 A 
ATOM     24  C   UNL     1      -1.060   9.836  17.630  0.00  0.00    +0.000 A 
ATOM     25  C   UNL     1      -0.637  10.378  18.853  0.00  0.00    +0.000 A 
ATOM     26  C   UNL     1      -1.438  11.356  19.456  0.00  0.00    +0.000 A 
ATOM     27  C   UNL     1      -2.618  11.803  18.839  0.00  0.00    +0.000 A 
BRANCH  22  29
ATOM     28  C   UNL     1      -5.386  11.362  17.546  0.00  0.00    +0.000 C 
ATOM     29  O   UNL     1      -4.137  11.620  16.915  0.00  0.00    +0.000 OA
ENDBRANCH  22  29
ENDBRANCH  21  25
ENDBRANCH  17  21
ENDBRANCH  16  18
ENDBRANCH   1  16
TORSDOF 8
ENDMDL
MODEL 8
REMARK VINA RESULT:      -7.2      4.870      7.748
REMARK  Name = 
REMARK  9 active torsions:
REMARK  status: ('A' for Active; 'I' for Inactive)
REMARK    1  A    between atoms: C_1  and  O_2
REMARK    2  A    between atoms: O_2  and  C_3
REMARK    3  A    between atoms: C_6  and  C_7
REMARK    4  A    between atoms: C_7  and  N_8
REMARK    5  A    between atoms: C_9  and  C_11
REMARK    6  A    between atoms: C_11  and  O_12
REMARK    7  A    between atoms: O_12  and  C_13
REMARK    8  A    between atoms: C_13  and  C_15
REMARK    9  A    between atoms: C_15  and  N_16
REMARK                            x       y       z     vdW  Elec       q    Type
REMARK                         _______ _______ _______ _____ _____    ______ ____
ROOT
ATOM      1  O   UNL     1       6.634   6.310  17.210  0.00  0.00    +0.000 OA
ENDROOT
BRANCH   1   2
ATOM      2  C   UNL     1       5.607   6.030  18.063  0.00  0.00    +0.000 C 
ATOM      3  O   UNL     1       5.733   5.482  19.150  0.00  0.00    +0.000 OA
BRANCH   2   4
ATOM      4  C   UNL     1       4.261   6.372  17.431  0.00  0.00    +0.000 C 
BRANCH   4   5
ATOM      5  N   UNL     1       3.290   5.399  17.899  0.00  0.00    +0.000 N 
ATOM      6  C   UNL     1       2.493   5.617  18.982  0.00  0.00    +0.000 C 
ATOM      7  O   UNL     1       2.583   6.553  19.759  0.00  0.00    +0.000 OA
ATOM      8  C   UNL     1       1.424   4.550  19.003  0.00  0.00    +0.000 C 
ATOM      9  C   UNL     1       0.977   4.149  20.405  0.00  0.00    +0.000 C 
ATOM     10  C   UNL     1       1.386   2.786  20.854  0.00  0.00    +0.000 C 
ATOM     11  C   UNL     1       1.933   1.867  20.054  0.00  0.00    +0.000 C 
ATOM     12  C   UNL     1       2.217   2.070  18.601  0.00  0.00    +0.000 C 
ATOM     13  C   UNL     1       1.961   3.474  18.053  0.00  0.00    +0.000 C 
ATOM     14  C   UNL     1       3.205   4.112  17.462  0.00  0.00    +0.000 C 
ATOM     15  O   UNL     1       4.001   3.549  16.729  0.00  0.00    +0.000 OA
ENDBRANCH   4   5
ENDBRANCH   2   4
ENDBRANCH   1   2
BRANCH   1  16
ATOM     16  C   UNL     1       6.958   7.699  17.065  0.00  0.00    +0.000 C 
BRANCH  16  18
ATOM     17  N   UNL     1       8.345   9.457  18.021  0.00  0.00    +0.000 N 
ATOM     18  C   UNL     1       8.022   8.117  18.073  0.00  0.00    +0.000 C 
ATOM     19  O   UNL     1       8.566   7.318  18.830  0.00  0.00    +0.000 OA
ATOM     20  H   UNL     1       7.837  10.064  17.388  0.00  0.00    +0.000 HD
BRANCH  17  21
ATOM     21  C   UNL     1       9.291  10.058  18.937  0.00  0.00    +0.000 C 
BRANCH  21  25
ATOM     22  C   UNL     1      10.870  13.889  17.670  0.00  0.00    +0.000 A 
ATOM     23  C   UNL     1       9.497  13.684  17.795  0.00  0.00    +0.000 A 
ATOM     24  C   UNL     1       8.999  12.438  18.188  0.00  0.00    +0.000 A 
ATOM     25  C   UNL     1       9.865  11.365  18.444  0.00  0.00    +0.000 A 
ATOM     26  C   UNL     1      11.244  11.582  18.322  0.00  0.00    +0.000 A 
ATOM     27  C   UNL     1      11.744  12.833  17.928  0.00  0.00    +0.000 A 
BRANCH  22  29
ATOM     28  C   UNL     1      12.333  15.730  17.952  0.00  0.00    +0.000 C 
ATOM     29  O   UNL     1      11.232  15.145  17.267  0.00  0.00    +0.000 OA
ENDBRANCH  22  29
ENDBRANCH  21  25
ENDBRANCH  17  21
ENDBRANCH  16  18
ENDBRANCH   1  16
TORSDOF 8
ENDMDL
MODEL 9
REMARK VINA RESULT:      -7.1      4.605      7.334
REMARK  Name = 
REMARK  9 active torsions:
REMARK  status: ('A' for Active; 'I' for Inactive)
REMARK    1  A    between atoms: C_1  and  O_2
REMARK    2  A    between atoms: O_2  and  C_3
REMARK    3  A    between atoms: C_6  and  C_7
REMARK    4  A    between atoms: C_7  and  N_8
REMARK    5  A    between atoms: C_9  and  C_11
REMARK    6  A    between atoms: C_11  and  O_12
REMARK    7  A    between atoms: O_12  and  C_13
REMARK    8  A    between atoms: C_13  and  C_15
REMARK    9  A    between atoms: C_15  and  N_16
REMARK                            x       y       z     vdW  Elec       q    Type
REMARK                         _______ _______ _______ _____ _____    ______ ____
ROOT
ATOM      1  O   UNL     1       6.949   5.657  18.795  0.00  0.00    +0.000 OA
ENDROOT
BRANCH   1   2
ATOM      2  C   UNL     1       7.025   4.619  17.912  0.00  0.00    +0.000 C 
ATOM      3  O   UNL     1       8.068   4.108  17.525  0.00  0.00    +0.000 OA
BRANCH   2   4
ATOM      4  C   UNL     1       5.645   4.262  17.367  0.00  0.00    +0.000 C 
BRANCH   4   5
ATOM      5  N   UNL     1       4.700   4.336  18.467  0.00  0.00    +0.000 N 
ATOM      6  C   UNL     1       4.513   3.314  19.347  0.00  0.00    +0.000 C 
ATOM      7  O   UNL     1       4.985   2.193  19.250  0.00  0.00    +0.000 OA
ATOM      8  C   UNL     1       3.697   3.833  20.507  0.00  0.00    +0.000 C 
ATOM      9  C   UNL     1       2.775   2.791  21.131  0.00  0.00    +0.000 C 
ATOM     10  C   UNL     1       1.315   2.990  20.898  0.00  0.00    +0.000 C 
ATOM     11  C   UNL     1       0.787   4.093  20.360  0.00  0.00    +0.000 C 
ATOM     12  C   UNL     1       1.577   5.278  19.911  0.00  0.00    +0.000 C 
ATOM     13  C   UNL     1       3.099   5.140  19.978  0.00  0.00    +0.000 C 
ATOM     14  C   UNL     1       3.766   5.314  18.626  0.00  0.00    +0.000 C 
ATOM     15  O   UNL     1       3.491   6.183  17.815  0.00  0.00    +0.000 OA
ENDBRANCH   4   5
ENDBRANCH   2   4
ENDBRANCH   1   2
BRANCH   1  16
ATOM     16  C   UNL     1       8.102   6.507  18.852  0.00  0.00    +0.000 C 
BRANCH  16  18
ATOM     17  N   UNL     1       8.530   8.873  18.466  0.00  0.00    +0.000 N 
ATOM     18  C   UNL     1       7.911   7.741  17.977  0.00  0.00    +0.000 C 
ATOM     19  O   UNL     1       7.232   7.727  16.955  0.00  0.00    +0.000 OA
ATOM     20  H   UNL     1       9.096   8.804  19.303  0.00  0.00    +0.000 HD
BRANCH  17  21
ATOM     21  C   UNL     1       8.513  10.130  17.749  0.00  0.00    +0.000 C 
BRANCH  21  25
ATOM     22  C   UNL     1      10.428  13.342  19.938  0.00  0.00    +0.000 A 
ATOM     23  C   UNL     1      10.484  12.027  20.396  0.00  0.00    +0.000 A 
ATOM     24  C   UNL     1       9.847  11.002  19.690  0.00  0.00    +0.000 A 
ATOM     25  C   UNL     1       9.123  11.275  18.521  0.00  0.00    +0.000 A 
ATOM     26  C   UNL     1       9.078  12.599  18.064  0.00  0.00    +0.000 A 
ATOM     27  C   UNL     1       9.718  13.628  18.772  0.00  0.00    +0.000 A 
BRANCH  22  29
ATOM     28  C   UNL     1      10.277  14.956  21.665  0.00  0.00    +0.000 C 
ATOM     29  O   UNL     1      11.079  14.256  20.721  0.00  0.00    +0.000 OA
ENDBRANCH  22  29
ENDBRANCH  21  25
ENDBRANCH  17  21
ENDBRANCH  16  18
ENDBRANCH   1  16
TORSDOF 8
ENDMDL
