MODEL 1
REMARK VINA RESULT:      -7.6      0.000      0.000
REMARK  Name = 
REMARK  7 active torsions:
REMARK  status: ('A' for Active; 'I' for Inactive)
REMARK    1  A    between atoms: C_1  and  O_2
REMARK    2  A    between atoms: O_2  and  C_3
REMARK    3  A    between atoms: C_11  and  O_12
REMARK    4  A    between atoms: C_14  and  O_15
REMARK    5  A    between atoms: O_15  and  C_16
REMARK    6  A    between atoms: C_16  and  C_17
REMARK    7  A    between atoms: C_17  and  C_18
REMARK                            x       y       z     vdW  Elec       q    Type
REMARK                         _______ _______ _______ _____ _____    ______ ____
ROOT
ATOM      1  C   UNL     1       6.083   6.061  16.465  0.00  0.00    +0.000 A 
ATOM      2  C   UNL     1       6.755   5.286  15.504  0.00  0.00    +0.000 A 
ATOM      3  C   UNL     1       6.390   3.958  15.271  0.00  0.00    +0.000 A 
ATOM      4  C   UNL     1       5.353   3.389  15.997  0.00  0.00    +0.000 A 
ATOM      5  C   UNL     1       4.682   4.158  16.951  0.00  0.00    +0.000 A 
ATOM      6  C   UNL     1       3.593   3.554  17.718  0.00  0.00    +0.000 A 
ATOM      7  O   UNL     1       3.258   2.382  17.566  0.00  0.00    +0.000 OA
ATOM      8  C   UNL     1       2.895   4.404  18.678  0.00  0.00    +0.000 A 
ATOM      9  C   UNL     1       1.825   3.913  19.429  0.00  0.00    +0.000 A 
ATOM     10  C   UNL     1       1.156   4.740  20.323  0.00  0.00    +0.000 A 
ATOM     11  C   UNL     1       1.555   6.069  20.468  0.00  0.00    +0.000 A 
ATOM     12  C   UNL     1       2.638   6.556  19.722  0.00  0.00    +0.000 A 
ATOM     13  C   UNL     1       3.314   5.723  18.822  0.00  0.00    +0.000 A 
ATOM     14  O   UNL     1       4.366   6.271  18.121  0.00  0.00    +0.000 OA
ATOM     15  C   UNL     1       5.025   5.488  17.193  0.00  0.00    +0.000 A 
ENDROOT
BRANCH   1  17
ATOM     16  C   UNL     1       7.574   7.597  17.516  0.00  0.00    +0.000 C 
ATOM     17  O   UNL     1       6.395   7.367  16.748  0.00  0.00    +0.000 OA
ENDBRANCH   1  17
BRANCH   9  18
ATOM     18  O   UNL     1       1.372   2.624  19.332  0.00  0.00    +0.000 OA
ATOM     19  H   UNL     1       0.388   2.652  19.311  0.00  0.00    +0.000 HD
ENDBRANCH   9  18
BRANCH  11  20
ATOM     20  O   UNL     1       0.957   6.979  21.301  0.00  0.00    +0.000 OA
BRANCH  20  21
ATOM     21  C   UNL     1       1.560   8.277  21.367  0.00  0.00    +0.000 C 
BRANCH  21  22
ATOM     22  C   UNL     1       0.476   9.300  21.541  0.00  0.00    +0.000 C 
ATOM     23  C   UNL     1      -0.314   9.664  20.325  0.00  0.00    +0.000 C 
ATOM     24  C   UNL     1      -0.079   9.571  22.922  0.00  0.00    +0.000 C 
ATOM     25  O   UNL     1       0.880  10.445  22.313  0.00  0.00    +0.000 OA
ENDBRANCH  21  22
ENDBRANCH  20  21
ENDBRANCH  11  20
TORSDOF 5
ENDMDL
MODEL 2
REMARK VINA RESULT:      -7.5      2.914      5.188
REMARK  Name = 
REMARK  7 active torsions:
REMARK  status: ('A' for Active; 'I' for Inactive)
REMARK    1  A    between atoms: C_1  and  O_2
REMARK    2  A    between atoms: O_2  and  C_3
REMARK    3  A    between atoms: C_11  and  O_12
REMARK    4  A    between atoms: C_14  and  O_15
REMARK    5  A    between atoms: O_15  and  C_16
REMARK    6  A    between atoms: C_16  and  C_17
REMARK    7  A    between atoms: C_17  and  C_18
REMARK                            x       y       z     vdW  Elec       q    Type
REMARK                         _______ _______ _______ _____ _____    ______ ____
ROOT
ATOM      1  C   UNL     1       6.176   3.699  12.736  0.00  0.00    +0.000 A 
ATOM      2  C   UNL     1       7.102   4.328  11.887  0.00  0.00    +0.000 A 
ATOM      3  C   UNL     1       7.976   5.302  12.375  0.00  0.00    +0.000 A 
ATOM      4  C   UNL     1       7.932   5.661  13.716  0.00  0.00    +0.000 A 
ATOM      5  C   UNL     1       7.013   5.035  14.562  0.00  0.00    +0.000 A 
ATOM      6  C   UNL     1       6.966   5.418  15.973  0.00  0.00    +0.000 A 
ATOM      7  O   UNL     1       7.696   6.289  16.438  0.00  0.00    +0.000 OA
ATOM      8  C   UNL     1       6.017   4.712  16.829  0.00  0.00    +0.000 A 
ATOM      9  C   UNL     1       5.930   4.998  18.194  0.00  0.00    +0.000 A 
ATOM     10  C   UNL     1       5.038   4.303  19.001  0.00  0.00    +0.000 A 
ATOM     11  C   UNL     1       4.226   3.314  18.444  0.00  0.00    +0.000 A 
ATOM     12  C   UNL     1       4.308   3.038  17.072  0.00  0.00    +0.000 A 
ATOM     13  C   UNL     1       5.205   3.739  16.257  0.00  0.00    +0.000 A 
ATOM     14  O   UNL     1       5.232   3.411  14.919  0.00  0.00    +0.000 OA
ATOM     15  C   UNL     1       6.138   4.054  14.097  0.00  0.00    +0.000 A 
ENDROOT
BRANCH   1  17
ATOM     16  C   UNL     1       4.292   3.146  11.382  0.00  0.00    +0.000 C 
ATOM     17  O   UNL     1       5.286   2.740  12.321  0.00  0.00    +0.000 OA
ENDBRANCH   1  17
BRANCH   9  18
ATOM     18  O   UNL     1       6.700   5.948  18.811  0.00  0.00    +0.000 OA
ATOM     19  H   UNL     1       6.393   6.831  18.501  0.00  0.00    +0.000 HD
ENDBRANCH   9  18
BRANCH  11  20
ATOM     20  O   UNL     1       3.329   2.551  19.146  0.00  0.00    +0.000 OA
BRANCH  20  21
ATOM     21  C   UNL     1       1.993   3.060  19.237  0.00  0.00    +0.000 C 
BRANCH  21  22
ATOM     22  C   UNL     1       1.791   3.631  20.611  0.00  0.00    +0.000 C 
ATOM     23  C   UNL     1       1.703   5.119  20.721  0.00  0.00    +0.000 C 
ATOM     24  C   UNL     1       1.238   2.750  21.710  0.00  0.00    +0.000 C 
ATOM     25  O   UNL     1       2.639   3.042  21.613  0.00  0.00    +0.000 OA
ENDBRANCH  21  22
ENDBRANCH  20  21
ENDBRANCH  11  20
TORSDOF 5
ENDMDL
MODEL 3
REMARK VINA RESULT:      -7.4      2.600      5.321
REMARK  Name = 
REMARK  7 active torsions:
REMARK  status: ('A' for Active; 'I' for Inactive)
REMARK    1  A    between atoms: C_1  and  O_2
REMARK    2  A    between atoms: O_2  and  C_3
REMARK    3  A    between atoms: C_11  and  O_12
REMARK    4  A    between atoms: C_14  and  O_15
REMARK    5  A    between atoms: O_15  and  C_16
REMARK    6  A    between atoms: C_16  and  C_17
REMARK    7  A    between atoms: C_17  and  C_18
REMARK                            x       y       z     vdW  Elec       q    Type
REMARK                         _______ _______ _______ _____ _____    ______ ____
ROOT
ATOM      1  C   UNL     1       2.538   5.071  20.179  0.00  0.00    +0.000 A 
ATOM      2  C   UNL     1       3.136   4.322  19.151  0.00  0.00    +0.000 A 
ATOM      3  C   UNL     1       3.381   4.891  17.899  0.00  0.00    +0.000 A 
ATOM      4  C   UNL     1       3.028   6.211  17.659  0.00  0.00    +0.000 A 
ATOM      5  C   UNL     1       2.434   6.958  18.680  0.00  0.00    +0.000 A 
ATOM      6  C   UNL     1       2.059   8.348  18.423  0.00  0.00    +0.000 A 
ATOM      7  O   UNL     1       2.229   8.879  17.329  0.00  0.00    +0.000 OA
ATOM      8  C   UNL     1       1.476   9.102  19.529  0.00  0.00    +0.000 A 
ATOM      9  C   UNL     1       1.118  10.443  19.375  0.00  0.00    +0.000 A 
ATOM     10  C   UNL     1       0.585  11.155  20.442  0.00  0.00    +0.000 A 
ATOM     11  C   UNL     1       0.410  10.526  21.675  0.00  0.00    +0.000 A 
ATOM     12  C   UNL     1       0.759   9.176  21.823  0.00  0.00    +0.000 A 
ATOM     13  C   UNL     1       1.295   8.457  20.748  0.00  0.00    +0.000 A 
ATOM     14  O   UNL     1       1.618   7.136  20.969  0.00  0.00    +0.000 OA
ATOM     15  C   UNL     1       2.190   6.412  19.940  0.00  0.00    +0.000 A 
ENDROOT
BRANCH   1  17
ATOM     16  C   UNL     1       2.183   3.154  21.552  0.00  0.00    +0.000 C 
ATOM     17  O   UNL     1       2.265   4.572  21.428  0.00  0.00    +0.000 OA
ENDBRANCH   1  17
BRANCH   9  18
ATOM     18  O   UNL     1       1.269  11.128  18.198  0.00  0.00    +0.000 OA
ATOM     19  H   UNL     1       1.012  10.525  17.464  0.00  0.00    +0.000 HD
ENDBRANCH   9  18
BRANCH  11  20
ATOM     20  O   UNL     1      -0.084  11.133  22.801  0.00  0.00    +0.000 OA
BRANCH  20  21
ATOM     21  C   UNL     1      -1.479  10.945  23.067  0.00  0.00    +0.000 C 
BRANCH  21  22
ATOM     22  C   UNL     1      -2.180  12.262  22.902  0.00  0.00    +0.000 C 
ATOM     23  C   UNL     1      -1.493  13.470  23.454  0.00  0.00    +0.000 C 
ATOM     24  C   UNL     1      -3.250  12.409  21.842  0.00  0.00    +0.000 C 
ATOM     25  O   UNL     1      -3.582  12.216  23.223  0.00  0.00    +0.000 OA
ENDBRANCH  21  22
ENDBRANCH  20  21
ENDBRANCH  11  20
TORSDOF 5
ENDMDL
MODEL 4
REMARK VINA RESULT:      -7.1      2.426      7.345
REMARK  Name = 
REMARK  7 active torsions:
REMARK  status: ('A' for Active; 'I' for Inactive)
REMARK    1  A    between atoms: C_1  and  O_2
REMARK    2  A    between atoms: O_2  and  C_3
REMARK    3  A    between atoms: C_11  and  O_12
REMARK    4  A    between atoms: C_14  and  O_15
REMARK    5  A    between atoms: O_15  and  C_16
REMARK    6  A    between atoms: C_16  and  C_17
REMARK    7  A    between atoms: C_17  and  C_18
REMARK                            x       y       z     vdW  Elec       q    Type
REMARK                         _______ _______ _______ _____ _____    ______ ____
ROOT
ATOM      1  C   UNL     1       1.763   8.973  18.837  0.00  0.00    +0.000 A 
ATOM      2  C   UNL     1       1.001   9.137  20.007  0.00  0.00    +0.000 A 
ATOM      3  C   UNL     1       0.966   8.139  20.984  0.00  0.00    +0.000 A 
ATOM      4  C   UNL     1       1.687   6.967  20.801  0.00  0.00    +0.000 A 
ATOM      5  C   UNL     1       2.446   6.803  19.640  0.00  0.00    +0.000 A 
ATOM      6  C   UNL     1       3.201   5.566  19.448  0.00  0.00    +0.000 A 
ATOM      7  O   UNL     1       3.175   4.651  20.268  0.00  0.00    +0.000 OA
ATOM      8  C   UNL     1       4.010   5.452  18.238  0.00  0.00    +0.000 A 
ATOM      9  C   UNL     1       4.783   4.315  17.994  0.00  0.00    +0.000 A 
ATOM     10  C   UNL     1       5.565   4.231  16.849  0.00  0.00    +0.000 A 
ATOM     11  C   UNL     1       5.579   5.289  15.940  0.00  0.00    +0.000 A 
ATOM     12  C   UNL     1       4.792   6.424  16.182  0.00  0.00    +0.000 A 
ATOM     13  C   UNL     1       4.002   6.510  17.334  0.00  0.00    +0.000 A 
ATOM     14  O   UNL     1       3.258   7.657  17.507  0.00  0.00    +0.000 OA
ATOM     15  C   UNL     1       2.502   7.791  18.656  0.00  0.00    +0.000 A 
ENDROOT
BRANCH   1  17
ATOM     16  C   UNL     1       2.004  11.268  18.235  0.00  0.00    +0.000 C 
ATOM     17  O   UNL     1       1.836   9.910  17.836  0.00  0.00    +0.000 OA
ENDBRANCH   1  17
BRANCH   9  18
ATOM     18  O   UNL     1       4.827   3.243  18.845  0.00  0.00    +0.000 OA
ATOM     19  H   UNL     1       5.142   2.464  18.331  0.00  0.00    +0.000 HD
ENDBRANCH   9  18
BRANCH  11  20
ATOM     20  O   UNL     1       6.328   5.325  14.792  0.00  0.00    +0.000 OA
BRANCH  20  21
ATOM     21  C   UNL     1       6.808   4.067  14.304  0.00  0.00    +0.000 C 
BRANCH  21  22
ATOM     22  C   UNL     1       6.612   4.025  12.816  0.00  0.00    +0.000 C 
ATOM     23  C   UNL     1       7.390   5.007  12.001  0.00  0.00    +0.000 C 
ATOM     24  C   UNL     1       6.049   2.776  12.173  0.00  0.00    +0.000 C 
ATOM     25  O   UNL     1       5.233   3.930  12.416  0.00  0.00    +0.000 OA
ENDBRANCH  21  22
ENDBRANCH  20  21
ENDBRANCH  11  20
TORSDOF 5
ENDMDL
MODEL 5
REMARK VINA RESULT:      -7.1      3.457      5.445
REMARK  Name = 
REMARK  7 active torsions:
REMARK  status: ('A' for Active; 'I' for Inactive)
REMARK    1  A    between atoms: C_1  and  O_2
REMARK    2  A    between atoms: O_2  and  C_3
REMARK    3  A    between atoms: C_11  and  O_12
REMARK    4  A    between atoms: C_14  and  O_15
REMARK    5  A    between atoms: O_15  and  C_16
REMARK    6  A    between atoms: C_16  and  C_17
REMARK    7  A    between atoms: C_17  and  C_18
REMARK                            x       y       z     vdW  Elec       q    Type
REMARK                         _______ _______ _______ _____ _____    ______ ____
ROOT
ATOM      1  C   UNL     1       6.213   3.685  12.781  0.00  0.00    +0.000 A 
ATOM      2  C   UNL     1       7.079   4.317  11.873  0.00  0.00    +0.000 A 
ATOM      3  C   UNL     1       7.947   5.327  12.295  0.00  0.00    +0.000 A 
ATOM      4  C   UNL     1       7.957   5.718  13.627  0.00  0.00    +0.000 A 
ATOM      5  C   UNL     1       7.098   5.089  14.532  0.00  0.00    +0.000 A 
ATOM      6  C   UNL     1       7.108   5.506  15.934  0.00  0.00    +0.000 A 
ATOM      7  O   UNL     1       7.834   6.408  16.342  0.00  0.00    +0.000 OA
ATOM      8  C   UNL     1       6.221   4.796  16.852  0.00  0.00    +0.000 A 
ATOM      9  C   UNL     1       6.191   5.114  18.211  0.00  0.00    +0.000 A 
ATOM     10  C   UNL     1       5.359   4.415  19.078  0.00  0.00    +0.000 A 
ATOM     11  C   UNL     1       4.550   3.390  18.585  0.00  0.00    +0.000 A 
ATOM     12  C   UNL     1       4.574   3.083  17.217  0.00  0.00    +0.000 A 
ATOM     13  C   UNL     1       5.411   3.787  16.343  0.00  0.00    +0.000 A 
ATOM     14  O   UNL     1       5.383   3.427  15.013  0.00  0.00    +0.000 OA
ATOM     15  C   UNL     1       6.230   4.073  14.133  0.00  0.00    +0.000 A 
ENDROOT
BRANCH   1  17
ATOM     16  C   UNL     1       4.346   3.019  11.455  0.00  0.00    +0.000 C 
ATOM     17  O   UNL     1       5.332   2.692  12.432  0.00  0.00    +0.000 OA
ENDBRANCH   1  17
BRANCH   9  18
ATOM     18  O   UNL     1       6.963   6.099  18.767  0.00  0.00    +0.000 OA
ATOM     19  H   UNL     1       7.237   5.797  19.664  0.00  0.00    +0.000 HD
ENDBRANCH   9  18
BRANCH  11  20
ATOM     20  O   UNL     1       3.709   2.622  19.347  0.00  0.00    +0.000 OA
BRANCH  20  21
ATOM     21  C   UNL     1       2.466   2.245  18.744  0.00  0.00    +0.000 C 
BRANCH  21  22
ATOM     22  C   UNL     1       1.499   3.384  18.890  0.00  0.00    +0.000 C 
ATOM     23  C   UNL     1       1.050   3.719  20.276  0.00  0.00    +0.000 C 
ATOM     24  C   UNL     1       1.377   4.406  17.780  0.00  0.00    +0.000 C 
ATOM     25  O   UNL     1       0.419   3.351  17.941  0.00  0.00    +0.000 OA
ENDBRANCH  21  22
ENDBRANCH  20  21
ENDBRANCH  11  20
TORSDOF 5
ENDMDL
MODEL 6
REMARK VINA RESULT:      -7.1      2.474      5.022
REMARK  Name = 
REMARK  7 active torsions:
REMARK  status: ('A' for Active; 'I' for Inactive)
REMARK    1  A    between atoms: C_1  and  O_2
REMARK    2  A    between atoms: O_2  and  C_3
REMARK    3  A    between atoms: C_11  and  O_12
REMARK    4  A    between atoms: C_14  and  O_15
REMARK    5  A    between atoms: O_15  and  C_16
REMARK    6  A    between atoms: C_16  and  C_17
REMARK    7  A    between atoms: C_17  and  C_18
REMARK                            x       y       z     vdW  Elec       q    Type
REMARK                         _______ _______ _______ _____ _____    ______ ____
ROOT
ATOM      1  C   UNL     1       2.737   4.636  20.177  0.00  0.00    +0.000 A 
ATOM      2  C   UNL     1       3.475   3.817  19.305  0.00  0.00    +0.000 A 
ATOM      3  C   UNL     1       3.896   4.292  18.060  0.00  0.00    +0.000 A 
ATOM      4  C   UNL     1       3.581   5.587  17.672  0.00  0.00    +0.000 A 
ATOM      5  C   UNL     1       2.849   6.403  18.538  0.00  0.00    +0.000 A 
ATOM      6  C   UNL     1       2.515   7.765  18.124  0.00  0.00    +0.000 A 
ATOM      7  O   UNL     1       2.840   8.214  17.028  0.00  0.00    +0.000 OA
ATOM      8  C   UNL     1       1.781   8.596  19.075  0.00  0.00    +0.000 A 
ATOM      9  C   UNL     1       1.449   9.917  18.768  0.00  0.00    +0.000 A 
ATOM     10  C   UNL     1       0.770  10.703  19.691  0.00  0.00    +0.000 A 
ATOM     11  C   UNL     1       0.421  10.167  20.932  0.00  0.00    +0.000 A 
ATOM     12  C   UNL     1       0.745   8.836  21.231  0.00  0.00    +0.000 A 
ATOM     13  C   UNL     1       1.428   8.043  20.301  0.00  0.00    +0.000 A 
ATOM     14  O   UNL     1       1.715   6.746  20.667  0.00  0.00    +0.000 OA
ATOM     15  C   UNL     1       2.427   5.952  19.788  0.00  0.00    +0.000 A 
ENDROOT
BRANCH   1  17
ATOM     16  C   UNL     1       1.751   2.914  21.498  0.00  0.00    +0.000 C 
ATOM     17  O   UNL     1       2.288   4.231  21.409  0.00  0.00    +0.000 OA
ENDBRANCH   1  17
BRANCH   9  18
ATOM     18  O   UNL     1       1.767  10.512  17.576  0.00  0.00    +0.000 OA
ATOM     19  H   UNL     1       2.743  10.449  17.460  0.00  0.00    +0.000 HD
ENDBRANCH   9  18
BRANCH  11  20
ATOM     20  O   UNL     1      -0.228  10.854  21.926  0.00  0.00    +0.000 OA
BRANCH  20  21
ATOM     21  C   UNL     1      -0.315  12.275  21.767  0.00  0.00    +0.000 C 
BRANCH  21  22
ATOM     22  C   UNL     1      -1.765  12.668  21.765  0.00  0.00    +0.000 C 
ATOM     23  C   UNL     1      -2.573  12.287  22.964  0.00  0.00    +0.000 C 
ATOM     24  C   UNL     1      -2.235  13.775  20.847  0.00  0.00    +0.000 C 
ATOM     25  O   UNL     1      -2.436  12.393  20.523  0.00  0.00    +0.000 OA
ENDBRANCH  21  22
ENDBRANCH  20  21
ENDBRANCH  11  20
TORSDOF 5
ENDMDL
MODEL 7
REMARK VINA RESULT:      -6.9      2.707      5.590
REMARK  Name = 
REMARK  7 active torsions:
REMARK  status: ('A' for Active; 'I' for Inactive)
REMARK    1  A    between atoms: C_1  and  O_2
REMARK    2  A    between atoms: O_2  and  C_3
REMARK    3  A    between atoms: C_11  and  O_12
REMARK    4  A    between atoms: C_14  and  O_15
REMARK    5  A    between atoms: O_15  and  C_16
REMARK    6  A    between atoms: C_16  and  C_17
REMARK    7  A    between atoms: C_17  and  C_18
REMARK                            x       y       z     vdW  Elec       q    Type
REMARK                         _______ _______ _______ _____ _____    ______ ____
ROOT
ATOM      1  C   UNL     1       2.565   5.529  20.138  0.00  0.00    +0.000 A 
ATOM      2  C   UNL     1       3.339   4.876  19.164  0.00  0.00    +0.000 A 
ATOM      3  C   UNL     1       3.649   5.504  17.956  0.00  0.00    +0.000 A 
ATOM      4  C   UNL     1       3.186   6.789  17.705  0.00  0.00    +0.000 A 
ATOM      5  C   UNL     1       2.417   7.440  18.673  0.00  0.00    +0.000 A 
ATOM      6  C   UNL     1       1.927   8.791  18.405  0.00  0.00    +0.000 A 
ATOM      7  O   UNL     1       2.151   9.370  17.345  0.00  0.00    +0.000 OA
ATOM      8  C   UNL     1       1.158   9.449  19.459  0.00  0.00    +0.000 A 
ATOM      9  C   UNL     1       0.679  10.750  19.293  0.00  0.00    +0.000 A 
ATOM     10  C   UNL     1      -0.031  11.371  20.313  0.00  0.00    +0.000 A 
ATOM     11  C   UNL     1      -0.264  10.691  21.509  0.00  0.00    +0.000 A 
ATOM     12  C   UNL     1       0.208   9.380  21.666  0.00  0.00    +0.000 A 
ATOM     13  C   UNL     1       0.922   8.752  20.639  0.00  0.00    +0.000 A 
ATOM     14  O   UNL     1       1.358   7.465  20.867  0.00  0.00    +0.000 OA
ATOM     15  C   UNL     1       2.104   6.834  19.890  0.00  0.00    +0.000 A 
ENDROOT
BRANCH   1  17
ATOM     16  C   UNL     1       2.026   3.555  21.363  0.00  0.00    +0.000 C 
ATOM     17  O   UNL     1       2.219   4.968  21.342  0.00  0.00    +0.000 OA
ENDBRANCH   1  17
BRANCH   9  18
ATOM     18  O   UNL     1       0.877  11.482  18.153  0.00  0.00    +0.000 OA
ATOM     19  H   UNL     1       1.498  12.215  18.370  0.00  0.00    +0.000 HD
ENDBRANCH   9  18
BRANCH  11  20
ATOM     20  O   UNL     1      -0.931  11.211  22.588  0.00  0.00    +0.000 OA
BRANCH  20  21
ATOM     21  C   UNL     1      -0.821  12.626  22.784  0.00  0.00    +0.000 C 
BRANCH  21  22
ATOM     22  C   UNL     1      -2.160  13.155  23.212  0.00  0.00    +0.000 C 
ATOM     23  C   UNL     1      -3.206  12.147  23.565  0.00  0.00    +0.000 C 
ATOM     24  C   UNL     1      -2.274  14.580  23.707  0.00  0.00    +0.000 C 
ATOM     25  O   UNL     1      -2.657  14.214  22.375  0.00  0.00    +0.000 OA
ENDBRANCH  21  22
ENDBRANCH  20  21
ENDBRANCH  11  20
TORSDOF 5
ENDMDL
MODEL 8
REMARK VINA RESULT:      -6.8      2.817      7.557
REMARK  Name = 
REMARK  7 active torsions:
REMARK  status: ('A' for Active; 'I' for Inactive)
REMARK    1  A    between atoms: C_1  and  O_2
REMARK    2  A    between atoms: O_2  and  C_3
REMARK    3  A    between atoms: C_11  and  O_12
REMARK    4  A    between atoms: C_14  and  O_15
REMARK    5  A    between atoms: O_15  and  C_16
REMARK    6  A    between atoms: C_16  and  C_17
REMARK    7  A    between atoms: C_17  and  C_18
REMARK                            x       y       z     vdW  Elec       q    Type
REMARK                         _______ _______ _______ _____ _____    ______ ____
ROOT
ATOM      1  C   UNL     1       3.807   2.472  20.436  0.00  0.00    +0.000 A 
ATOM      2  C   UNL     1       2.897   2.456  21.506  0.00  0.00    +0.000 A 
ATOM      3  C   UNL     1       2.041   3.535  21.735  0.00  0.00    +0.000 A 
ATOM      4  C   UNL     1       2.088   4.644  20.902  0.00  0.00    +0.000 A 
ATOM      5  C   UNL     1       2.991   4.662  19.836  0.00  0.00    +0.000 A 
ATOM      6  C   UNL     1       3.041   5.833  18.962  0.00  0.00    +0.000 A 
ATOM      7  O   UNL     1       2.327   6.816  19.144  0.00  0.00    +0.000 OA
ATOM      8  C   UNL     1       3.974   5.794  17.839  0.00  0.00    +0.000 A 
ATOM      9  C   UNL     1       4.062   6.859  16.940  0.00  0.00    +0.000 A 
ATOM     10  C   UNL     1       4.938   6.799  15.863  0.00  0.00    +0.000 A 
ATOM     11  C   UNL     1       5.731   5.666  15.679  0.00  0.00    +0.000 A 
ATOM     12  C   UNL     1       5.649   4.603  16.590  0.00  0.00    +0.000 A 
ATOM     13  C   UNL     1       4.768   4.663  17.676  0.00  0.00    +0.000 A 
ATOM     14  O   UNL     1       4.739   3.580  18.528  0.00  0.00    +0.000 OA
ATOM     15  C   UNL     1       3.848   3.591  19.584  0.00  0.00    +0.000 A 
ENDROOT
BRANCH   1  17
ATOM     16  C   UNL     1       5.464   0.959  21.243  0.00  0.00    +0.000 C 
ATOM     17  O   UNL     1       4.679   1.450  20.158  0.00  0.00    +0.000 OA
ENDBRANCH   1  17
BRANCH   9  18
ATOM     18  O   UNL     1       3.309   7.998  17.052  0.00  0.00    +0.000 OA
ATOM     19  H   UNL     1       2.607   7.829  17.721  0.00  0.00    +0.000 HD
ENDBRANCH   9  18
BRANCH  11  20
ATOM     20  O   UNL     1       6.611   5.487  14.643  0.00  0.00    +0.000 OA
BRANCH  20  21
ATOM     21  C   UNL     1       6.870   4.134  14.252  0.00  0.00    +0.000 C 
BRANCH  21  22
ATOM     22  C   UNL     1       6.386   3.941  12.844  0.00  0.00    +0.000 C 
ATOM     23  C   UNL     1       4.924   3.689  12.658  0.00  0.00    +0.000 C 
ATOM     24  C   UNL     1       7.227   4.445  11.691  0.00  0.00    +0.000 C 
ATOM     25  O   UNL     1       7.213   3.060  12.063  0.00  0.00    +0.000 OA
ENDBRANCH  21  22
ENDBRANCH  20  21
ENDBRANCH  11  20
TORSDOF 5
ENDMDL
MODEL 9
REMARK VINA RESULT:      -6.8      2.734      7.579
REMARK  Name = 
REMARK  7 active torsions:
REMARK  status: ('A' for Active; 'I' for Inactive)
REMARK    1  A    between atoms: C_1  and  O_2
REMARK    2  A    between atoms: O_2  and  C_3
REMARK    3  A    between atoms: C_11  and  O_12
REMARK    4  A    between atoms: C_14  and  O_15
REMARK    5  A    between atoms: O_15  and  C_16
REMARK    6  A    between atoms: C_16  and  C_17
REMARK    7  A    between atoms: C_17  and  C_18
REMARK                            x       y       z     vdW  Elec       q    Type
REMARK                         _______ _______ _______ _____ _____    ______ ____
ROOT
ATOM      1  C   UNL     1       3.571   2.595  20.321  0.00  0.00    +0.000 A 
ATOM      2  C   UNL     1       2.700   2.649  21.423  0.00  0.00    +0.000 A 
ATOM      3  C   UNL     1       1.958   3.801  21.693  0.00  0.00    +0.000 A 
ATOM      4  C   UNL     1       2.079   4.911  20.869  0.00  0.00    +0.000 A 
ATOM      5  C   UNL     1       2.942   4.858  19.772  0.00  0.00    +0.000 A 
ATOM      6  C   UNL     1       3.072   6.031  18.907  0.00  0.00    +0.000 A 
ATOM      7  O   UNL     1       2.460   7.073  19.124  0.00  0.00    +0.000 OA
ATOM      8  C   UNL     1       3.956   5.919  17.751  0.00  0.00    +0.000 A 
ATOM      9  C   UNL     1       4.113   6.983  16.860  0.00  0.00    +0.000 A 
ATOM     10  C   UNL     1       4.941   6.855  15.752  0.00  0.00    +0.000 A 
ATOM     11  C   UNL     1       5.617   5.655  15.528  0.00  0.00    +0.000 A 
ATOM     12  C   UNL     1       5.468   4.593  16.431  0.00  0.00    +0.000 A 
ATOM     13  C   UNL     1       4.635   4.721  17.549  0.00  0.00    +0.000 A 
ATOM     14  O   UNL     1       4.534   3.635  18.391  0.00  0.00    +0.000 OA
ATOM     15  C   UNL     1       3.686   3.715  19.479  0.00  0.00    +0.000 A 
ENDROOT
BRANCH   1  17
ATOM     16  C   UNL     1       4.010   0.818  18.792  0.00  0.00    +0.000 C 
ATOM     17  O   UNL     1       4.333   1.499  20.003  0.00  0.00    +0.000 OA
ENDBRANCH   1  17
BRANCH   9  18
ATOM     18  O   UNL     1       3.474   8.185  17.010  0.00  0.00    +0.000 OA
ATOM     19  H   UNL     1       2.523   8.001  17.185  0.00  0.00    +0.000 HD
ENDBRANCH   9  18
BRANCH  11  20
ATOM     20  O   UNL     1       6.440   5.408  14.459  0.00  0.00    +0.000 OA
BRANCH  20  21
ATOM     21  C   UNL     1       6.643   4.033  14.115  0.00  0.00    +0.000 C 
BRANCH  21  22
ATOM     22  C   UNL     1       6.500   3.886  12.628  0.00  0.00    +0.000 C 
ATOM     23  C   UNL     1       7.324   4.795  11.774  0.00  0.00    +0.000 C 
ATOM     24  C   UNL     1       5.939   2.601  12.057  0.00  0.00    +0.000 C 
ATOM     25  O   UNL     1       5.135   3.781  12.186  0.00  0.00    +0.000 OA
ENDBRANCH  21  22
ENDBRANCH  20  21
ENDBRANCH  11  20
TORSDOF 5
ENDMDL
