MODEL 1
REMARK VINA RESULT:      -8.0      0.000      0.000
REMARK  Name = 
REMARK  4 active torsions:
REMARK  status: ('A' for Active; 'I' for Inactive)
REMARK    1  A    between atoms: C_1  and  C_2
REMARK    2  A    between atoms: C_9  and  C_11
REMARK    3  A    between atoms: C_11  and  N_12
REMARK    4  A    between atoms: C_13  and  C_15
REMARK                            x       y       z     vdW  Elec       q    Type
REMARK                         _______ _______ _______ _____ _____    ______ ____
ROOT
ATOM      1  C   UNL     1      -1.309  11.454  22.707  0.00  0.00    +0.000 C 
ATOM      2  C   UNL     1      -0.423  10.473  21.991  0.00  0.00    +0.000 A 
ATOM      3  C   UNL     1       0.207   9.449  22.703  0.00  0.00    +0.000 A 
ATOM      4  C   UNL     1       1.042   8.536  22.056  0.00  0.00    +0.000 A 
ATOM      5  C   UNL     1       1.257   8.643  20.672  0.00  0.00    +0.000 A 
ATOM      6  N   UNL     1       2.086   7.828  19.925  0.00  0.00    +0.000 NA
ATOM      7  C   UNL     1       2.087   8.239  18.685  0.00  0.00    +0.000 A 
ATOM      8  N   UNL     1       2.833   7.761  17.651  0.00  0.00    +0.000 N 
ATOM      9  C   UNL     1       3.871   6.878  17.743  0.00  0.00    +0.000 C 
ATOM     10  O   UNL     1       4.344   6.452  16.685  0.00  0.00    +0.000 OA
ATOM     11  S   UNL     1       1.043   9.527  18.294  0.00  0.00    +0.000 S 
ATOM     12  C   UNL     1       0.614   9.660  19.961  0.00  0.00    +0.000 A 
ATOM     13  C   UNL     1      -0.228  10.591  20.603  0.00  0.00    +0.000 A 
ATOM     14  H   UNL     1       2.605   8.075  16.718  0.00  0.00    +0.000 HD
ENDROOT
BRANCH   9  15
ATOM     15  C   UNL     1       4.418   6.419  19.105  0.00  0.00    +0.000 C 
BRANCH  15  16
ATOM     16  N   UNL     1       3.778   5.198  19.556  0.00  0.00    +0.000 N 
ATOM     17  C   UNL     1       4.430   3.978  19.594  0.00  0.00    +0.000 C 
ATOM     18  O   UNL     1       5.631   3.849  19.404  0.00  0.00    +0.000 OA
ATOM     19  H   UNL     1       2.775   5.238  19.688  0.00  0.00    +0.000 HD
BRANCH  17  20
ATOM     20  C   UNL     1       3.493   2.807  19.906  0.00  0.00    +0.000 C 
ATOM     21  C   UNL     1       2.226   3.210  20.685  0.00  0.00    +0.000 C 
ATOM     22  C   UNL     1       0.935   3.361  19.882  0.00  0.00    +0.000 C 
ATOM     23  C   UNL     1       0.770   2.281  18.827  0.00  0.00    +0.000 C 
ATOM     24  C   UNL     1       1.971   2.283  17.897  0.00  0.00    +0.000 C 
ATOM     25  C   UNL     1       3.245   1.941  18.661  0.00  0.00    +0.000 C 
ENDBRANCH  17  20
ENDBRANCH  15  16
ENDBRANCH   9  15
TORSDOF 3
ENDMDL
MODEL 2
REMARK VINA RESULT:      -7.7      2.707      5.046
REMARK  Name = 
REMARK  4 active torsions:
REMARK  status: ('A' for Active; 'I' for Inactive)
REMARK    1  A    between atoms: C_1  and  C_2
REMARK    2  A    between atoms: C_9  and  C_11
REMARK    3  A    between atoms: C_11  and  N_12
REMARK    4  A    between atoms: C_13  and  C_15
REMARK                            x       y       z     vdW  Elec       q    Type
REMARK                         _______ _______ _______ _____ _____    ______ ____
ROOT
ATOM      1  C   UNL     1       0.561   9.870  20.449  0.00  0.00    +0.000 C 
ATOM      2  C   UNL     1       1.291   8.626  20.027  0.00  0.00    +0.000 A 
ATOM      3  C   UNL     1       2.124   8.648  18.906  0.00  0.00    +0.000 A 
ATOM      4  C   UNL     1       2.800   7.499  18.493  0.00  0.00    +0.000 A 
ATOM      5  C   UNL     1       2.645   6.301  19.207  0.00  0.00    +0.000 A 
ATOM      6  N   UNL     1       3.228   5.090  18.880  0.00  0.00    +0.000 NA
ATOM      7  C   UNL     1       2.831   4.180  19.729  0.00  0.00    +0.000 A 
ATOM      8  N   UNL     1       3.109   2.848  19.710  0.00  0.00    +0.000 N 
ATOM      9  C   UNL     1       3.705   2.160  18.689  0.00  0.00    +0.000 C 
ATOM     10  O   UNL     1       4.001   0.981  18.902  0.00  0.00    +0.000 OA
ATOM     11  S   UNL     1       1.846   4.698  21.018  0.00  0.00    +0.000 S 
ATOM     12  C   UNL     1       1.822   6.285  20.337  0.00  0.00    +0.000 A 
ATOM     13  C   UNL     1       1.130   7.438  20.762  0.00  0.00    +0.000 A 
ATOM     14  H   UNL     1       2.864   2.301  20.522  0.00  0.00    +0.000 HD
ENDROOT
BRANCH   9  15
ATOM     15  C   UNL     1       4.011   2.831  17.340  0.00  0.00    +0.000 C 
BRANCH  15  16
ATOM     16  N   UNL     1       5.255   3.575  17.381  0.00  0.00    +0.000 N 
ATOM     17  C   UNL     1       5.556   4.586  16.484  0.00  0.00    +0.000 C 
ATOM     18  O   UNL     1       4.749   5.042  15.687  0.00  0.00    +0.000 OA
ATOM     19  H   UNL     1       5.975   3.215  17.995  0.00  0.00    +0.000 HD
BRANCH  17  20
ATOM     20  C   UNL     1       7.002   5.078  16.599  0.00  0.00    +0.000 C 
ATOM     21  C   UNL     1       7.178   6.577  16.281  0.00  0.00    +0.000 C 
ATOM     22  C   UNL     1       7.301   7.529  17.469  0.00  0.00    +0.000 C 
ATOM     23  C   UNL     1       8.158   6.965  18.589  0.00  0.00    +0.000 C 
ATOM     24  C   UNL     1       7.598   5.628  19.042  0.00  0.00    +0.000 C 
ATOM     25  C   UNL     1       7.652   4.609  17.909  0.00  0.00    +0.000 C 
ENDBRANCH  17  20
ENDBRANCH  15  16
ENDBRANCH   9  15
TORSDOF 3
ENDMDL
MODEL 3
REMARK VINA RESULT:      -7.3      2.638      5.521
REMARK  Name = 
REMARK  4 active torsions:
REMARK  status: ('A' for Active; 'I' for Inactive)
REMARK    1  A    between atoms: C_1  and  C_2
REMARK    2  A    between atoms: C_9  and  C_11
REMARK    3  A    between atoms: C_11  and  N_12
REMARK    4  A    between atoms: C_13  and  C_15
REMARK                            x       y       z     vdW  Elec       q    Type
REMARK                         _______ _______ _______ _____ _____    ______ ____
ROOT
ATOM      1  C   UNL     1       6.898   4.788  14.824  0.00  0.00    +0.000 C 
ATOM      2  C   UNL     1       6.080   5.164  16.028  0.00  0.00    +0.000 A 
ATOM      3  C   UNL     1       6.192   4.427  17.209  0.00  0.00    +0.000 A 
ATOM      4  C   UNL     1       5.431   4.755  18.333  0.00  0.00    +0.000 A 
ATOM      5  C   UNL     1       4.539   5.838  18.282  0.00  0.00    +0.000 A 
ATOM      6  N   UNL     1       3.707   6.240  19.310  0.00  0.00    +0.000 NA
ATOM      7  C   UNL     1       2.980   7.247  18.905  0.00  0.00    +0.000 A 
ATOM      8  N   UNL     1       1.984   7.880  19.583  0.00  0.00    +0.000 N 
ATOM      9  C   UNL     1       1.413   7.466  20.754  0.00  0.00    +0.000 C 
ATOM     10  O   UNL     1       0.615   8.238  21.295  0.00  0.00    +0.000 OA
ATOM     11  S   UNL     1       3.297   7.853  17.345  0.00  0.00    +0.000 S 
ATOM     12  C   UNL     1       4.441   6.583  17.103  0.00  0.00    +0.000 A 
ATOM     13  C   UNL     1       5.200   6.258  15.961  0.00  0.00    +0.000 A 
ATOM     14  H   UNL     1       1.624   8.742  19.200  0.00  0.00    +0.000 HD
ENDROOT
BRANCH   9  15
ATOM     15  C   UNL     1       1.762   6.106  21.382  0.00  0.00    +0.000 C 
BRANCH  15  16
ATOM     16  N   UNL     1       1.372   5.004  20.524  0.00  0.00    +0.000 N 
ATOM     17  C   UNL     1       1.551   3.678  20.877  0.00  0.00    +0.000 C 
ATOM     18  O   UNL     1       1.904   3.318  21.991  0.00  0.00    +0.000 OA
ATOM     19  H   UNL     1       1.110   5.243  19.576  0.00  0.00    +0.000 HD
BRANCH  17  20
ATOM     20  C   UNL     1       1.254   2.707  19.730  0.00  0.00    +0.000 C 
ATOM     21  C   UNL     1       0.971   3.400  18.382  0.00  0.00    +0.000 C 
ATOM     22  C   UNL     1       2.114   3.442  17.369  0.00  0.00    +0.000 C 
ATOM     23  C   UNL     1       2.899   2.143  17.315  0.00  0.00    +0.000 C 
ATOM     24  C   UNL     1       3.433   1.807  18.697  0.00  0.00    +0.000 C 
ATOM     25  C   UNL     1       2.288   1.572  19.675  0.00  0.00    +0.000 C 
ENDBRANCH  17  20
ENDBRANCH  15  16
ENDBRANCH   9  15
TORSDOF 3
ENDMDL
MODEL 4
REMARK VINA RESULT:      -7.1      1.629      2.186
REMARK  Name = 
REMARK  4 active torsions:
REMARK  status: ('A' for Active; 'I' for Inactive)
REMARK    1  A    between atoms: C_1  and  C_2
REMARK    2  A    between atoms: C_9  and  C_11
REMARK    3  A    between atoms: C_11  and  N_12
REMARK    4  A    between atoms: C_13  and  C_15
REMARK                            x       y       z     vdW  Elec       q    Type
REMARK                         _______ _______ _______ _____ _____    ______ ____
ROOT
ATOM      1  C   UNL     1      -0.247  10.503  20.216  0.00  0.00    +0.000 C 
ATOM      2  C   UNL     1       0.682   9.357  19.928  0.00  0.00    +0.000 A 
ATOM      3  C   UNL     1       0.850   8.338  20.869  0.00  0.00    +0.000 A 
ATOM      4  C   UNL     1       1.718   7.272  20.622  0.00  0.00    +0.000 A 
ATOM      5  C   UNL     1       2.434   7.217  19.416  0.00  0.00    +0.000 A 
ATOM      6  N   UNL     1       3.347   6.238  19.070  0.00  0.00    +0.000 NA
ATOM      7  C   UNL     1       3.860   6.524  17.903  0.00  0.00    +0.000 A 
ATOM      8  N   UNL     1       4.850   5.861  17.245  0.00  0.00    +0.000 N 
ATOM      9  C   UNL     1       5.640   4.871  17.758  0.00  0.00    +0.000 C 
ATOM     10  O   UNL     1       6.396   4.290  16.973  0.00  0.00    +0.000 OA
ATOM     11  S   UNL     1       3.233   7.885  17.093  0.00  0.00    +0.000 S 
ATOM     12  C   UNL     1       2.252   8.231  18.471  0.00  0.00    +0.000 A 
ATOM     13  C   UNL     1       1.383   9.315  18.710  0.00  0.00    +0.000 A 
ATOM     14  H   UNL     1       5.026   6.108  16.282  0.00  0.00    +0.000 HD
ENDROOT
BRANCH   9  15
ATOM     15  C   UNL     1       5.579   4.484  19.245  0.00  0.00    +0.000 C 
BRANCH  15  16
ATOM     16  N   UNL     1       4.339   3.806  19.572  0.00  0.00    +0.000 N 
ATOM     17  C   UNL     1       4.290   2.482  19.971  0.00  0.00    +0.000 C 
ATOM     18  O   UNL     1       5.283   1.818  20.231  0.00  0.00    +0.000 OA
ATOM     19  H   UNL     1       3.484   4.295  19.338  0.00  0.00    +0.000 HD
BRANCH  17  20
ATOM     20  C   UNL     1       2.861   1.936  20.060  0.00  0.00    +0.000 C 
ATOM     21  C   UNL     1       2.015   2.576  21.178  0.00  0.00    +0.000 C 
ATOM     22  C   UNL     1       1.025   3.665  20.764  0.00  0.00    +0.000 C 
ATOM     23  C   UNL     1       0.306   3.342  19.467  0.00  0.00    +0.000 C 
ATOM     24  C   UNL     1       1.320   3.105  18.361  0.00  0.00    +0.000 C 
ATOM     25  C   UNL     1       2.190   1.894  18.678  0.00  0.00    +0.000 C 
ENDBRANCH  17  20
ENDBRANCH  15  16
ENDBRANCH   9  15
TORSDOF 3
ENDMDL
MODEL 5
REMARK VINA RESULT:      -7.0      2.379      4.547
REMARK  Name = 
REMARK  4 active torsions:
REMARK  status: ('A' for Active; 'I' for Inactive)
REMARK    1  A    between atoms: C_1  and  C_2
REMARK    2  A    between atoms: C_9  and  C_11
REMARK    3  A    between atoms: C_11  and  N_12
REMARK    4  A    between atoms: C_13  and  C_15
REMARK                            x       y       z     vdW  Elec       q    Type
REMARK                         _______ _______ _______ _____ _____    ______ ____
ROOT
ATOM      1  C   UNL     1       0.436  11.957  18.749  0.00  0.00    +0.000 C 
ATOM      2  C   UNL     1       1.025  10.580  18.877  0.00  0.00    +0.000 A 
ATOM      3  C   UNL     1       1.811  10.055  17.849  0.00  0.00    +0.000 A 
ATOM      4  C   UNL     1       2.356   8.774  17.947  0.00  0.00    +0.000 A 
ATOM      5  C   UNL     1       2.114   7.996  19.090  0.00  0.00    +0.000 A 
ATOM      6  N   UNL     1       2.564   6.704  19.291  0.00  0.00    +0.000 NA
ATOM      7  C   UNL     1       2.115   6.266  20.436  0.00  0.00    +0.000 A 
ATOM      8  N   UNL     1       2.262   5.021  20.967  0.00  0.00    +0.000 N 
ATOM      9  C   UNL     1       2.749   3.919  20.321  0.00  0.00    +0.000 C 
ATOM     10  O   UNL     1       2.937   2.906  21.000  0.00  0.00    +0.000 OA
ATOM     11  S   UNL     1       1.235   7.366  21.395  0.00  0.00    +0.000 S 
ATOM     12  C   UNL     1       1.338   8.529  20.123  0.00  0.00    +0.000 A 
ATOM     13  C   UNL     1       0.779   9.819  20.035  0.00  0.00    +0.000 A 
ATOM     14  H   UNL     1       1.997   4.883  21.931  0.00  0.00    +0.000 HD
ENDROOT
BRANCH   9  15
ATOM     15  C   UNL     1       3.065   3.944  18.816  0.00  0.00    +0.000 C 
BRANCH  15  16
ATOM     16  N   UNL     1       4.448   4.298  18.565  0.00  0.00    +0.000 N 
ATOM     17  C   UNL     1       4.894   4.764  17.341  0.00  0.00    +0.000 C 
ATOM     18  O   UNL     1       4.146   5.063  16.420  0.00  0.00    +0.000 OA
ATOM     19  H   UNL     1       5.117   4.035  19.278  0.00  0.00    +0.000 HD
BRANCH  17  20
ATOM     20  C   UNL     1       6.420   4.872  17.259  0.00  0.00    +0.000 C 
ATOM     21  C   UNL     1       6.919   6.164  16.582  0.00  0.00    +0.000 C 
ATOM     22  C   UNL     1       7.401   7.288  17.498  0.00  0.00    +0.000 C 
ATOM     23  C   UNL     1       8.214   6.779  18.675  0.00  0.00    +0.000 C 
ATOM     24  C   UNL     1       7.399   5.768  19.465  0.00  0.00    +0.000 C 
ATOM     25  C   UNL     1       7.078   4.548  18.609  0.00  0.00    +0.000 C 
ENDBRANCH  17  20
ENDBRANCH  15  16
ENDBRANCH   9  15
TORSDOF 3
ENDMDL
MODEL 6
REMARK VINA RESULT:      -7.0      1.695      2.352
REMARK  Name = 
REMARK  4 active torsions:
REMARK  status: ('A' for Active; 'I' for Inactive)
REMARK    1  A    between atoms: C_1  and  C_2
REMARK    2  A    between atoms: C_9  and  C_11
REMARK    3  A    between atoms: C_11  and  N_12
REMARK    4  A    between atoms: C_13  and  C_15
REMARK                            x       y       z     vdW  Elec       q    Type
REMARK                         _______ _______ _______ _____ _____    ______ ____
ROOT
ATOM      1  C   UNL     1      -0.080   8.823  21.741  0.00  0.00    +0.000 C 
ATOM      2  C   UNL     1       0.888   8.080  20.862  0.00  0.00    +0.000 A 
ATOM      3  C   UNL     1       1.277   6.780  21.191  0.00  0.00    +0.000 A 
ATOM      4  C   UNL     1       2.184   6.080  20.392  0.00  0.00    +0.000 A 
ATOM      5  C   UNL     1       2.715   6.685  19.243  0.00  0.00    +0.000 A 
ATOM      6  N   UNL     1       3.645   6.114  18.393  0.00  0.00    +0.000 NA
ATOM      7  C   UNL     1       3.953   6.971  17.457  0.00  0.00    +0.000 A 
ATOM      8  N   UNL     1       4.886   6.831  16.475  0.00  0.00    +0.000 N 
ATOM      9  C   UNL     1       5.823   5.839  16.385  0.00  0.00    +0.000 C 
ATOM     10  O   UNL     1       6.499   5.796  15.353  0.00  0.00    +0.000 OA
ATOM     11  S   UNL     1       3.103   8.447  17.446  0.00  0.00    +0.000 S 
ATOM     12  C   UNL     1       2.312   7.981  18.908  0.00  0.00    +0.000 A 
ATOM     13  C   UNL     1       1.401   8.700  19.709  0.00  0.00    +0.000 A 
ATOM     14  H   UNL     1       4.896   7.513  15.731  0.00  0.00    +0.000 HD
ENDROOT
BRANCH   9  15
ATOM     15  C   UNL     1       6.016   4.811  17.512  0.00  0.00    +0.000 C 
BRANCH  15  16
ATOM     16  N   UNL     1       4.861   3.944  17.650  0.00  0.00    +0.000 N 
ATOM     17  C   UNL     1       4.614   3.198  18.789  0.00  0.00    +0.000 C 
ATOM     18  O   UNL     1       5.251   3.319  19.826  0.00  0.00    +0.000 OA
ATOM     19  H   UNL     1       4.322   3.776  16.810  0.00  0.00    +0.000 HD
BRANCH  17  20
ATOM     20  C   UNL     1       3.456   2.210  18.619  0.00  0.00    +0.000 C 
ATOM     21  C   UNL     1       2.752   1.838  19.939  0.00  0.00    +0.000 C 
ATOM     22  C   UNL     1       1.431   2.542  20.244  0.00  0.00    +0.000 C 
ATOM     23  C   UNL     1       0.546   2.687  19.018  0.00  0.00    +0.000 C 
ATOM     24  C   UNL     1       1.298   3.429  17.926  0.00  0.00    +0.000 C 
ATOM     25  C   UNL     1       2.519   2.635  17.478  0.00  0.00    +0.000 C 
ENDBRANCH  17  20
ENDBRANCH  15  16
ENDBRANCH   9  15
TORSDOF 3
ENDMDL
MODEL 7
REMARK VINA RESULT:      -7.0      2.374      4.100
REMARK  Name = 
REMARK  4 active torsions:
REMARK  status: ('A' for Active; 'I' for Inactive)
REMARK    1  A    between atoms: C_1  and  C_2
REMARK    2  A    between atoms: C_9  and  C_11
REMARK    3  A    between atoms: C_11  and  N_12
REMARK    4  A    between atoms: C_13  and  C_15
REMARK                            x       y       z     vdW  Elec       q    Type
REMARK                         _______ _______ _______ _____ _____    ______ ____
ROOT
ATOM      1  C   UNL     1      -1.614  12.892  19.972  0.00  0.00    +0.000 C 
ATOM      2  C   UNL     1      -0.782  11.658  19.759  0.00  0.00    +0.000 A 
ATOM      3  C   UNL     1      -0.401  11.284  18.468  0.00  0.00    +0.000 A 
ATOM      4  C   UNL     1       0.361  10.135  18.251  0.00  0.00    +0.000 A 
ATOM      5  C   UNL     1       0.753   9.339  19.340  0.00  0.00    +0.000 A 
ATOM      6  N   UNL     1       1.475   8.163  19.254  0.00  0.00    +0.000 NA
ATOM      7  C   UNL     1       1.620   7.661  20.451  0.00  0.00    +0.000 A 
ATOM      8  N   UNL     1       2.196   6.476  20.792  0.00  0.00    +0.000 N 
ATOM      9  C   UNL     1       2.570   5.482  19.932  0.00  0.00    +0.000 C 
ATOM     10  O   UNL     1       3.202   4.533  20.408  0.00  0.00    +0.000 OA
ATOM     11  S   UNL     1       1.022   8.580  21.755  0.00  0.00    +0.000 S 
ATOM     12  C   UNL     1       0.382   9.724  20.631  0.00  0.00    +0.000 A 
ATOM     13  C   UNL     1      -0.391  10.880  20.863  0.00  0.00    +0.000 A 
ATOM     14  H   UNL     1       2.377   6.301  21.770  0.00  0.00    +0.000 HD
ENDROOT
BRANCH   9  15
ATOM     15  C   UNL     1       2.235   5.548  18.432  0.00  0.00    +0.000 C 
BRANCH  15  16
ATOM     16  N   UNL     1       3.418   5.788  17.629  0.00  0.00    +0.000 N 
ATOM     17  C   UNL     1       4.148   4.770  17.042  0.00  0.00    +0.000 C 
ATOM     18  O   UNL     1       3.779   3.604  17.017  0.00  0.00    +0.000 OA
ATOM     19  H   UNL     1       3.791   6.730  17.648  0.00  0.00    +0.000 HD
BRANCH  17  20
ATOM     20  C   UNL     1       5.462   5.253  16.421  0.00  0.00    +0.000 C 
ATOM     21  C   UNL     1       5.616   6.787  16.400  0.00  0.00    +0.000 C 
ATOM     22  C   UNL     1       6.493   7.413  17.484  0.00  0.00    +0.000 C 
ATOM     23  C   UNL     1       7.749   6.607  17.761  0.00  0.00    +0.000 C 
ATOM     24  C   UNL     1       7.375   5.185  18.143  0.00  0.00    +0.000 C 
ATOM     25  C   UNL     1       6.666   4.486  16.989  0.00  0.00    +0.000 C 
ENDBRANCH  17  20
ENDBRANCH  15  16
ENDBRANCH   9  15
TORSDOF 3
ENDMDL
MODEL 8
REMARK VINA RESULT:      -6.9      3.297      4.331
REMARK  Name = 
REMARK  4 active torsions:
REMARK  status: ('A' for Active; 'I' for Inactive)
REMARK    1  A    between atoms: C_1  and  C_2
REMARK    2  A    between atoms: C_9  and  C_11
REMARK    3  A    between atoms: C_11  and  N_12
REMARK    4  A    between atoms: C_13  and  C_15
REMARK                            x       y       z     vdW  Elec       q    Type
REMARK                         _______ _______ _______ _____ _____    ______ ____
ROOT
ATOM      1  C   UNL     1      -5.262  12.138  16.764  0.00  0.00    +0.000 C 
ATOM      2  C   UNL     1      -3.993  11.630  17.389  0.00  0.00    +0.000 A 
ATOM      3  C   UNL     1      -3.099  10.863  16.637  0.00  0.00    +0.000 A 
ATOM      4  C   UNL     1      -1.922  10.373  17.205  0.00  0.00    +0.000 A 
ATOM      5  C   UNL     1      -1.625  10.651  18.549  0.00  0.00    +0.000 A 
ATOM      6  N   UNL     1      -0.515  10.196  19.236  0.00  0.00    +0.000 NA
ATOM      7  C   UNL     1      -0.581  10.602  20.475  0.00  0.00    +0.000 A 
ATOM      8  N   UNL     1       0.270  10.303  21.495  0.00  0.00    +0.000 N 
ATOM      9  C   UNL     1       1.261   9.361  21.472  0.00  0.00    +0.000 C 
ATOM     10  O   UNL     1       2.022   9.321  22.443  0.00  0.00    +0.000 OA
ATOM     11  S   UNL     1      -1.879  11.625  20.888  0.00  0.00    +0.000 S 
ATOM     12  C   UNL     1      -2.514  11.431  19.294  0.00  0.00    +0.000 A 
ATOM     13  C   UNL     1      -3.708  11.927  18.734  0.00  0.00    +0.000 A 
ATOM     14  H   UNL     1       0.177  10.821  22.356  0.00  0.00    +0.000 HD
ENDROOT
BRANCH   9  15
ATOM     15  C   UNL     1       1.433   8.404  20.280  0.00  0.00    +0.000 C 
BRANCH  15  16
ATOM     16  N   UNL     1       1.794   7.068  20.714  0.00  0.00    +0.000 N 
ATOM     17  C   UNL     1       2.502   6.186  19.918  0.00  0.00    +0.000 C 
ATOM     18  O   UNL     1       3.017   6.501  18.854  0.00  0.00    +0.000 OA
ATOM     19  H   UNL     1       1.362   6.741  21.569  0.00  0.00    +0.000 HD
BRANCH  17  20
ATOM     20  C   UNL     1       2.582   4.775  20.510  0.00  0.00    +0.000 C 
ATOM     21  C   UNL     1       1.209   4.108  20.721  0.00  0.00    +0.000 C 
ATOM     22  C   UNL     1       0.763   3.088  19.674  0.00  0.00    +0.000 C 
ATOM     23  C   UNL     1       1.895   2.186  19.213  0.00  0.00    +0.000 C 
ATOM     24  C   UNL     1       3.038   3.029  18.674  0.00  0.00    +0.000 C 
ATOM     25  C   UNL     1       3.618   3.915  19.771  0.00  0.00    +0.000 C 
ENDBRANCH  17  20
ENDBRANCH  15  16
ENDBRANCH   9  15
TORSDOF 3
ENDMDL
MODEL 9
REMARK VINA RESULT:      -6.9      2.426      4.607
REMARK  Name = 
REMARK  4 active torsions:
REMARK  status: ('A' for Active; 'I' for Inactive)
REMARK    1  A    between atoms: C_1  and  C_2
REMARK    2  A    between atoms: C_9  and  C_11
REMARK    3  A    between atoms: C_11  and  N_12
REMARK    4  A    between atoms: C_13  and  C_15
REMARK                            x       y       z     vdW  Elec       q    Type
REMARK                         _______ _______ _______ _____ _____    ______ ____
ROOT
ATOM      1  C   UNL     1       0.665  11.126  19.660  0.00  0.00    +0.000 C 
ATOM      2  C   UNL     1       1.226   9.774  19.318  0.00  0.00    +0.000 A 
ATOM      3  C   UNL     1       1.808   9.553  18.067  0.00  0.00    +0.000 A 
ATOM      4  C   UNL     1       2.323   8.300  17.729  0.00  0.00    +0.000 A 
ATOM      5  C   UNL     1       2.258   7.244  18.652  0.00  0.00    +0.000 A 
ATOM      6  N   UNL     1       2.697   5.953  18.425  0.00  0.00    +0.000 NA
ATOM      7  C   UNL     1       2.439   5.222  19.476  0.00  0.00    +0.000 A 
ATOM      8  N   UNL     1       2.639   3.884  19.627  0.00  0.00    +0.000 N 
ATOM      9  C   UNL     1       2.973   2.999  18.640  0.00  0.00    +0.000 C 
ATOM     10  O   UNL     1       3.246   1.846  18.986  0.00  0.00    +0.000 OA
ATOM     11  S   UNL     1       1.771   6.014  20.827  0.00  0.00    +0.000 S 
ATOM     12  C   UNL     1       1.688   7.473  19.908  0.00  0.00    +0.000 A 
ATOM     13  C   UNL     1       1.160   8.732  20.259  0.00  0.00    +0.000 A 
ATOM     14  H   UNL     1       2.539   3.492  20.552  0.00  0.00    +0.000 HD
ENDROOT
BRANCH   9  15
ATOM     15  C   UNL     1       3.026   3.425  17.163  0.00  0.00    +0.000 C 
BRANCH  15  16
ATOM     16  N   UNL     1       4.343   3.905  16.791  0.00  0.00    +0.000 N 
ATOM     17  C   UNL     1       5.377   4.043  17.700  0.00  0.00    +0.000 C 
ATOM     18  O   UNL     1       5.324   3.631  18.850  0.00  0.00    +0.000 OA
ATOM     19  H   UNL     1       4.434   4.296  15.861  0.00  0.00    +0.000 HD
BRANCH  17  20
ATOM     20  C   UNL     1       6.599   4.758  17.115  0.00  0.00    +0.000 C 
ATOM     21  C   UNL     1       6.268   6.098  16.427  0.00  0.00    +0.000 C 
ATOM     22  C   UNL     1       6.543   7.374  17.222  0.00  0.00    +0.000 C 
ATOM     23  C   UNL     1       7.845   7.311  18.002  0.00  0.00    +0.000 C 
ATOM     24  C   UNL     1       7.833   6.106  18.927  0.00  0.00    +0.000 C 
ATOM     25  C   UNL     1       7.755   4.812  18.126  0.00  0.00    +0.000 C 
ENDBRANCH  17  20
ENDBRANCH  15  16
ENDBRANCH   9  15
TORSDOF 3
ENDMDL
