MODEL 1
REMARK VINA RESULT:      -8.9      0.000      0.000
REMARK  Name = 
REMARK  3 active torsions:
REMARK  status: ('A' for Active; 'I' for Inactive)
REMARK    1  A    between atoms: C_1  and  C_2
REMARK    2  A    between atoms: C_7  and  C_8
REMARK    3  A    between atoms: N_10  and  C_11
REMARK                            x       y       z     vdW  Elec       q    Type
REMARK                         _______ _______ _______ _____ _____    ______ ____
ROOT
ATOM      1  C   UNL     1       4.739   3.892  16.867  0.00  0.00    +0.000 C 
ATOM      2  O   UNL     1       4.475   2.695  16.790  0.00  0.00    +0.000 OA
ATOM      3  N   UNL     1       4.186   4.723  17.823  0.00  0.00    +0.000 N 
ATOM      4  H   UNL     1       4.617   5.630  17.940  0.00  0.00    +0.000 HD
ENDROOT
BRANCH   1  11
ATOM      5  C   UNL     1       8.930   5.968  12.671  0.00  0.00    +0.000 C 
ATOM      6  C   UNL     1       7.724   5.128  12.977  0.00  0.00    +0.000 A 
ATOM      7  C   UNL     1       7.153   4.309  11.990  0.00  0.00    +0.000 A 
ATOM      8  C   UNL     1       6.054   3.501  12.265  0.00  0.00    +0.000 A 
ATOM      9  C   UNL     1       5.481   3.474  13.544  0.00  0.00    +0.000 A 
ATOM     10  C   UNL     1       6.009   4.293  14.567  0.00  0.00    +0.000 A 
ATOM     11  C   UNL     1       5.719   4.495  15.962  0.00  0.00    +0.000 A 
ATOM     12  C   UNL     1       6.655   5.409  16.422  0.00  0.00    +0.000 A 
ATOM     13  N   UNL     1       7.473   5.764  15.394  0.00  0.00    +0.000 N 
ATOM     14  C   UNL     1       7.118   5.091  14.248  0.00  0.00    +0.000 A 
ATOM     15  H   UNL     1       8.251   6.404  15.464  0.00  0.00    +0.000 HD
ENDBRANCH   1  11
BRANCH   3  16
ATOM     16  C   UNL     1       3.245   4.253  18.854  0.00  0.00    +0.000 C 
ATOM     17  C   UNL     1       3.844   3.103  19.707  0.00  0.00    +0.000 C 
ATOM     18  C   UNL     1       2.851   2.650  20.793  0.00  0.00    +0.000 C 
ATOM     19  C   UNL     1       2.543   3.835  21.722  0.00  0.00    +0.000 C 
ATOM     20  C   UNL     1       1.924   4.986  20.912  0.00  0.00    +0.000 C 
ATOM     21  C   UNL     1       0.624   4.502  20.251  0.00  0.00    +0.000 C 
ATOM     22  C   UNL     1       0.921   3.320  19.317  0.00  0.00    +0.000 C 
ATOM     23  C   UNL     1       1.546   2.176  20.132  0.00  0.00    +0.000 C 
ATOM     24  C   UNL     1       1.911   3.769  18.228  0.00  0.00    +0.000 C 
ATOM     25  C   UNL     1       2.912   5.428  19.817  0.00  0.00    +0.000 C 
ENDBRANCH   3  16
TORSDOF 2
ENDMDL
MODEL 2
REMARK VINA RESULT:      -8.9      0.048      1.568
REMARK  Name = 
REMARK  3 active torsions:
REMARK  status: ('A' for Active; 'I' for Inactive)
REMARK    1  A    between atoms: C_1  and  C_2
REMARK    2  A    between atoms: C_7  and  C_8
REMARK    3  A    between atoms: N_10  and  C_11
REMARK                            x       y       z     vdW  Elec       q    Type
REMARK                         _______ _______ _______ _____ _____    ______ ____
ROOT
ATOM      1  C   UNL     1       4.725   3.930  16.869  0.00  0.00    +0.000 C 
ATOM      2  O   UNL     1       4.476   2.729  16.820  0.00  0.00    +0.000 OA
ATOM      3  N   UNL     1       4.148   4.780  17.796  0.00  0.00    +0.000 N 
ATOM      4  H   UNL     1       4.568   5.694  17.894  0.00  0.00    +0.000 HD
ENDROOT
BRANCH   1  11
ATOM      5  C   UNL     1       8.941   5.953  12.672  0.00  0.00    +0.000 C 
ATOM      6  C   UNL     1       7.727   5.123  12.979  0.00  0.00    +0.000 A 
ATOM      7  C   UNL     1       7.152   4.304  11.995  0.00  0.00    +0.000 A 
ATOM      8  C   UNL     1       6.046   3.505  12.272  0.00  0.00    +0.000 A 
ATOM      9  C   UNL     1       5.471   3.490  13.551  0.00  0.00    +0.000 A 
ATOM     10  C   UNL     1       6.003   4.309  14.570  0.00  0.00    +0.000 A 
ATOM     11  C   UNL     1       5.711   4.521  15.964  0.00  0.00    +0.000 A 
ATOM     12  C   UNL     1       6.653   5.430  16.420  0.00  0.00    +0.000 A 
ATOM     13  N   UNL     1       7.476   5.773  15.392  0.00  0.00    +0.000 N 
ATOM     14  C   UNL     1       7.118   5.097  14.249  0.00  0.00    +0.000 A 
ATOM     15  H   UNL     1       8.260   6.408  15.461  0.00  0.00    +0.000 HD
ENDBRANCH   1  11
BRANCH   3  16
ATOM     16  C   UNL     1       3.197   4.326  18.825  0.00  0.00    +0.000 C 
ATOM     17  C   UNL     1       1.883   3.783  18.202  0.00  0.00    +0.000 C 
ATOM     18  C   UNL     1       0.920   3.290  19.297  0.00  0.00    +0.000 C 
ATOM     19  C   UNL     1       1.590   2.155  20.087  0.00  0.00    +0.000 C 
ATOM     20  C   UNL     1       2.885   2.666  20.739  0.00  0.00    +0.000 C 
ATOM     21  C   UNL     1       2.554   3.825  21.691  0.00  0.00    +0.000 C 
ATOM     22  C   UNL     1       1.887   4.968  20.911  0.00  0.00    +0.000 C 
ATOM     23  C   UNL     1       0.596   4.448  20.257  0.00  0.00    +0.000 C 
ATOM     24  C   UNL     1       2.847   5.466  19.817  0.00  0.00    +0.000 C 
ATOM     25  C   UNL     1       3.842   3.171  19.643  0.00  0.00    +0.000 C 
ENDBRANCH   3  16
TORSDOF 2
ENDMDL
MODEL 3
REMARK VINA RESULT:      -8.9      0.051      1.563
REMARK  Name = 
REMARK  3 active torsions:
REMARK  status: ('A' for Active; 'I' for Inactive)
REMARK    1  A    between atoms: C_1  and  C_2
REMARK    2  A    between atoms: C_7  and  C_8
REMARK    3  A    between atoms: N_10  and  C_11
REMARK                            x       y       z     vdW  Elec       q    Type
REMARK                         _______ _______ _______ _____ _____    ______ ____
ROOT
ATOM      1  C   UNL     1       4.759   3.922  16.889  0.00  0.00    +0.000 C 
ATOM      2  O   UNL     1       4.502   2.723  16.835  0.00  0.00    +0.000 OA
ATOM      3  N   UNL     1       4.203   4.768  17.831  0.00  0.00    +0.000 N 
ATOM      4  H   UNL     1       4.629   5.678  17.930  0.00  0.00    +0.000 HD
ENDROOT
BRANCH   1  11
ATOM      5  C   UNL     1       8.925   5.948  12.644  0.00  0.00    +0.000 C 
ATOM      6  C   UNL     1       7.719   5.113  12.966  0.00  0.00    +0.000 A 
ATOM      7  C   UNL     1       7.139   4.287  11.992  0.00  0.00    +0.000 A 
ATOM      8  C   UNL     1       6.040   3.484  12.282  0.00  0.00    +0.000 A 
ATOM      9  C   UNL     1       5.477   3.471  13.566  0.00  0.00    +0.000 A 
ATOM     10  C   UNL     1       6.014   4.298  14.576  0.00  0.00    +0.000 A 
ATOM     11  C   UNL     1       5.734   4.514  15.972  0.00  0.00    +0.000 A 
ATOM     12  C   UNL     1       6.675   5.430  16.416  0.00  0.00    +0.000 A 
ATOM     13  N   UNL     1       7.487   5.773  15.379  0.00  0.00    +0.000 N 
ATOM     14  C   UNL     1       7.122   5.090  14.242  0.00  0.00    +0.000 A 
ATOM     15  H   UNL     1       8.267   6.412  15.438  0.00  0.00    +0.000 HD
ENDBRANCH   1  11
BRANCH   3  16
ATOM     16  C   UNL     1       3.266   4.311  18.872  0.00  0.00    +0.000 C 
ATOM     17  C   UNL     1       2.906   5.447  19.868  0.00  0.00    +0.000 C 
ATOM     18  C   UNL     1       1.905   4.950  20.928  0.00  0.00    +0.000 C 
ATOM     19  C   UNL     1       0.617   4.487  20.229  0.00  0.00    +0.000 C 
ATOM     20  C   UNL     1       0.934   3.344  19.252  0.00  0.00    +0.000 C 
ATOM     21  C   UNL     1       1.548   2.167  20.026  0.00  0.00    +0.000 C 
ATOM     22  C   UNL     1       2.839   2.618  20.725  0.00  0.00    +0.000 C 
ATOM     23  C   UNL     1       2.516   3.765  21.696  0.00  0.00    +0.000 C 
ATOM     24  C   UNL     1       3.843   3.112  19.669  0.00  0.00    +0.000 C 
ATOM     25  C   UNL     1       1.946   3.838  18.201  0.00  0.00    +0.000 C 
ENDBRANCH   3  16
TORSDOF 2
ENDMDL
MODEL 4
REMARK VINA RESULT:      -8.3      4.107      7.726
REMARK  Name = 
REMARK  3 active torsions:
REMARK  status: ('A' for Active; 'I' for Inactive)
REMARK    1  A    between atoms: C_1  and  C_2
REMARK    2  A    between atoms: C_7  and  C_8
REMARK    3  A    between atoms: N_10  and  C_11
REMARK                            x       y       z     vdW  Elec       q    Type
REMARK                         _______ _______ _______ _____ _____    ______ ____
ROOT
ATOM      1  C   UNL     1       2.199   7.593  18.780  0.00  0.00    +0.000 C 
ATOM      2  O   UNL     1       2.978   7.567  17.831  0.00  0.00    +0.000 OA
ATOM      3  N   UNL     1       1.853   6.465  19.500  0.00  0.00    +0.000 N 
ATOM      4  H   UNL     1       1.381   6.617  20.380  0.00  0.00    +0.000 HD
ENDROOT
BRANCH   1  11
ATOM      5  C   UNL     1      -0.600  12.721  21.094  0.00  0.00    +0.000 C 
ATOM      6  C   UNL     1      -0.136  11.306  21.296  0.00  0.00    +0.000 A 
ATOM      7  C   UNL     1      -0.416  10.624  22.489  0.00  0.00    +0.000 A 
ATOM      8  C   UNL     1      -0.020   9.303  22.680  0.00  0.00    +0.000 A 
ATOM      9  C   UNL     1       0.671   8.607  21.678  0.00  0.00    +0.000 A 
ATOM     10  C   UNL     1       0.991   9.256  20.465  0.00  0.00    +0.000 A 
ATOM     11  C   UNL     1       1.633   8.863  19.238  0.00  0.00    +0.000 A 
ATOM     12  C   UNL     1       1.582   9.970  18.406  0.00  0.00    +0.000 A 
ATOM     13  N   UNL     1       0.961  10.990  19.058  0.00  0.00    +0.000 N 
ATOM     14  C   UNL     1       0.572  10.586  20.314  0.00  0.00    +0.000 A 
ATOM     15  H   UNL     1       0.778  11.904  18.669  0.00  0.00    +0.000 HD
ENDBRANCH   1  11
BRANCH   3  16
ATOM     16  C   UNL     1       2.398   5.127  19.214  0.00  0.00    +0.000 C 
ATOM     17  C   UNL     1       3.947   5.096  19.318  0.00  0.00    +0.000 C 
ATOM     18  C   UNL     1       4.488   3.681  19.043  0.00  0.00    +0.000 C 
ATOM     19  C   UNL     1       3.910   2.708  20.082  0.00  0.00    +0.000 C 
ATOM     20  C   UNL     1       2.376   2.695  19.989  0.00  0.00    +0.000 C 
ATOM     21  C   UNL     1       1.954   2.249  18.581  0.00  0.00    +0.000 C 
ATOM     22  C   UNL     1       2.522   3.218  17.534  0.00  0.00    +0.000 C 
ATOM     23  C   UNL     1       4.057   3.231  17.636  0.00  0.00    +0.000 C 
ATOM     24  C   UNL     1       1.982   4.633  17.804  0.00  0.00    +0.000 C 
ATOM     25  C   UNL     1       1.837   4.113  20.252  0.00  0.00    +0.000 C 
ENDBRANCH   3  16
TORSDOF 2
ENDMDL
MODEL 5
REMARK VINA RESULT:      -8.3      4.052      7.745
REMARK  Name = 
REMARK  3 active torsions:
REMARK  status: ('A' for Active; 'I' for Inactive)
REMARK    1  A    between atoms: C_1  and  C_2
REMARK    2  A    between atoms: C_7  and  C_8
REMARK    3  A    between atoms: N_10  and  C_11
REMARK                            x       y       z     vdW  Elec       q    Type
REMARK                         _______ _______ _______ _____ _____    ______ ____
ROOT
ATOM      1  C   UNL     1       2.279   7.515  18.737  0.00  0.00    +0.000 C 
ATOM      2  O   UNL     1       3.102   7.492  17.826  0.00  0.00    +0.000 OA
ATOM      3  N   UNL     1       1.909   6.386  19.444  0.00  0.00    +0.000 N 
ATOM      4  H   UNL     1       1.393   6.537  20.300  0.00  0.00    +0.000 HD
ENDROOT
BRANCH   1  11
ATOM      5  C   UNL     1      -0.637  12.629  20.934  0.00  0.00    +0.000 C 
ATOM      6  C   UNL     1      -0.120  11.239  21.175  0.00  0.00    +0.000 A 
ATOM      7  C   UNL     1      -0.348  10.592  22.399  0.00  0.00    +0.000 A 
ATOM      8  C   UNL     1       0.096   9.294  22.627  0.00  0.00    +0.000 A 
ATOM      9  C   UNL     1       0.786   8.584  21.634  0.00  0.00    +0.000 A 
ATOM     10  C   UNL     1       1.055   9.198  20.391  0.00  0.00    +0.000 A 
ATOM     11  C   UNL     1       1.681   8.781  19.163  0.00  0.00    +0.000 A 
ATOM     12  C   UNL     1       1.573   9.855  18.293  0.00  0.00    +0.000 A 
ATOM     13  N   UNL     1       0.933  10.877  18.923  0.00  0.00    +0.000 N 
ATOM     14  C   UNL     1       0.588  10.507  20.202  0.00  0.00    +0.000 A 
ATOM     15  H   UNL     1       0.710  11.770  18.505  0.00  0.00    +0.000 HD
ENDBRANCH   1  11
BRANCH   3  16
ATOM     16  C   UNL     1       2.478   5.051  19.189  0.00  0.00    +0.000 C 
ATOM     17  C   UNL     1       1.975   4.000  20.215  0.00  0.00    +0.000 C 
ATOM     18  C   UNL     1       2.562   2.610  19.909  0.00  0.00    +0.000 C 
ATOM     19  C   UNL     1       2.121   2.172  18.504  0.00  0.00    +0.000 C 
ATOM     20  C   UNL     1       2.625   3.181  17.459  0.00  0.00    +0.000 C 
ATOM     21  C   UNL     1       4.159   3.248  17.515  0.00  0.00    +0.000 C 
ATOM     22  C   UNL     1       4.612   3.690  18.914  0.00  0.00    +0.000 C 
ATOM     23  C   UNL     1       4.098   2.681  19.955  0.00  0.00    +0.000 C 
ATOM     24  C   UNL     1       4.029   5.080  19.223  0.00  0.00    +0.000 C 
ATOM     25  C   UNL     1       2.047   4.573  17.774  0.00  0.00    +0.000 C 
ENDBRANCH   3  16
TORSDOF 2
ENDMDL
MODEL 6
REMARK VINA RESULT:      -8.3      4.477      8.023
REMARK  Name = 
REMARK  3 active torsions:
REMARK  status: ('A' for Active; 'I' for Inactive)
REMARK    1  A    between atoms: C_1  and  C_2
REMARK    2  A    between atoms: C_7  and  C_8
REMARK    3  A    between atoms: N_10  and  C_11
REMARK                            x       y       z     vdW  Elec       q    Type
REMARK                         _______ _______ _______ _____ _____    ______ ____
ROOT
ATOM      1  C   UNL     1       1.900   7.495  19.742  0.00  0.00    +0.000 C 
ATOM      2  O   UNL     1       2.556   7.812  18.753  0.00  0.00    +0.000 OA
ATOM      3  N   UNL     1       1.806   6.192  20.195  0.00  0.00    +0.000 N 
ATOM      4  H   UNL     1       1.425   6.062  21.122  0.00  0.00    +0.000 HD
ENDROOT
BRANCH   1  11
ATOM      5  C   UNL     1      -0.983  12.241  22.682  0.00  0.00    +0.000 C 
ATOM      6  C   UNL     1      -0.705  11.496  21.408  0.00  0.00    +0.000 A 
ATOM      7  C   UNL     1      -1.201  11.964  20.182  0.00  0.00    +0.000 A 
ATOM      8  C   UNL     1      -0.927  11.303  18.988  0.00  0.00    +0.000 A 
ATOM      9  C   UNL     1      -0.138  10.145  18.972  0.00  0.00    +0.000 A 
ATOM     10  C   UNL     1       0.371   9.624  20.182  0.00  0.00    +0.000 A 
ATOM     11  C   UNL     1       1.220   8.517  20.538  0.00  0.00    +0.000 A 
ATOM     12  C   UNL     1       1.389   8.589  21.912  0.00  0.00    +0.000 A 
ATOM     13  N   UNL     1       0.695   9.656  22.392  0.00  0.00    +0.000 N 
ATOM     14  C   UNL     1       0.072  10.322  21.362  0.00  0.00    +0.000 A 
ATOM     15  H   UNL     1       0.664   9.944  23.360  0.00  0.00    +0.000 HD
ENDBRANCH   1  11
BRANCH   3  16
ATOM     16  C   UNL     1       2.496   5.062  19.551  0.00  0.00    +0.000 C 
ATOM     17  C   UNL     1       4.037   5.246  19.552  0.00  0.00    +0.000 C 
ATOM     18  C   UNL     1       4.734   4.038  18.899  0.00  0.00    +0.000 C 
ATOM     19  C   UNL     1       4.394   2.767  19.693  0.00  0.00    +0.000 C 
ATOM     20  C   UNL     1       2.874   2.541  19.691  0.00  0.00    +0.000 C 
ATOM     21  C   UNL     1       2.383   2.386  18.243  0.00  0.00    +0.000 C 
ATOM     22  C   UNL     1       2.714   3.653  17.441  0.00  0.00    +0.000 C 
ATOM     23  C   UNL     1       4.236   3.877  17.452  0.00  0.00    +0.000 C 
ATOM     24  C   UNL     1       2.017   4.862  18.089  0.00  0.00    +0.000 C 
ATOM     25  C   UNL     1       2.177   3.756  20.332  0.00  0.00    +0.000 C 
ENDBRANCH   3  16
TORSDOF 2
ENDMDL
MODEL 7
REMARK VINA RESULT:      -8.2      4.325      8.347
REMARK  Name = 
REMARK  3 active torsions:
REMARK  status: ('A' for Active; 'I' for Inactive)
REMARK    1  A    between atoms: C_1  and  C_2
REMARK    2  A    between atoms: C_7  and  C_8
REMARK    3  A    between atoms: N_10  and  C_11
REMARK                            x       y       z     vdW  Elec       q    Type
REMARK                         _______ _______ _______ _____ _____    ______ ____
ROOT
ATOM      1  C   UNL     1       2.052   7.442  19.677  0.00  0.00    +0.000 C 
ATOM      2  O   UNL     1       1.843   6.512  20.451  0.00  0.00    +0.000 OA
ATOM      3  N   UNL     1       2.910   7.342  18.597  0.00  0.00    +0.000 N 
ATOM      4  H   UNL     1       2.855   8.078  17.907  0.00  0.00    +0.000 HD
ENDROOT
BRANCH   1  11
ATOM      5  C   UNL     1      -1.324  12.626  20.781  0.00  0.00    +0.000 C 
ATOM      6  C   UNL     1      -0.690  11.368  21.302  0.00  0.00    +0.000 A 
ATOM      7  C   UNL     1      -0.874  10.973  22.637  0.00  0.00    +0.000 A 
ATOM      8  C   UNL     1      -0.319   9.795  23.127  0.00  0.00    +0.000 A 
ATOM      9  C   UNL     1       0.441   8.957  22.299  0.00  0.00    +0.000 A 
ATOM     10  C   UNL     1       0.668   9.319  20.953  0.00  0.00    +0.000 A 
ATOM     11  C   UNL     1       1.341   8.711  19.835  0.00  0.00    +0.000 A 
ATOM     12  C   UNL     1       1.149   9.566  18.760  0.00  0.00    +0.000 A 
ATOM     13  N   UNL     1       0.415  10.637  19.168  0.00  0.00    +0.000 N 
ATOM     14  C   UNL     1       0.090  10.513  20.499  0.00  0.00    +0.000 A 
ATOM     15  H   UNL     1       0.119  11.400  18.575  0.00  0.00    +0.000 HD
ENDBRANCH   1  11
BRANCH   3  16
ATOM     16  C   UNL     1       3.639   6.109  18.257  0.00  0.00    +0.000 C 
ATOM     17  C   UNL     1       2.688   4.995  17.743  0.00  0.00    +0.000 C 
ATOM     18  C   UNL     1       3.478   3.728  17.368  0.00  0.00    +0.000 C 
ATOM     19  C   UNL     1       4.480   4.068  16.253  0.00  0.00    +0.000 C 
ATOM     20  C   UNL     1       5.454   5.152  16.739  0.00  0.00    +0.000 C 
ATOM     21  C   UNL     1       6.216   4.639  17.971  0.00  0.00    +0.000 C 
ATOM     22  C   UNL     1       5.224   4.301  19.094  0.00  0.00    +0.000 C 
ATOM     23  C   UNL     1       4.248   3.220  18.599  0.00  0.00    +0.000 C 
ATOM     24  C   UNL     1       4.434   5.565  19.473  0.00  0.00    +0.000 C 
ATOM     25  C   UNL     1       4.661   6.414  17.126  0.00  0.00    +0.000 C 
ENDBRANCH   3  16
TORSDOF 2
ENDMDL
MODEL 8
REMARK VINA RESULT:      -8.2      4.076      7.737
REMARK  Name = 
REMARK  3 active torsions:
REMARK  status: ('A' for Active; 'I' for Inactive)
REMARK    1  A    between atoms: C_1  and  C_2
REMARK    2  A    between atoms: C_7  and  C_8
REMARK    3  A    between atoms: N_10  and  C_11
REMARK                            x       y       z     vdW  Elec       q    Type
REMARK                         _______ _______ _______ _____ _____    ______ ____
ROOT
ATOM      1  C   UNL     1       2.217   7.534  18.746  0.00  0.00    +0.000 C 
ATOM      2  O   UNL     1       3.000   7.491  17.802  0.00  0.00    +0.000 OA
ATOM      3  N   UNL     1       1.853   6.414  19.472  0.00  0.00    +0.000 N 
ATOM      4  H   UNL     1       1.378   6.578  20.348  0.00  0.00    +0.000 HD
ENDROOT
BRANCH   1  11
ATOM      5  C   UNL     1      -0.533  12.710  21.010  0.00  0.00    +0.000 C 
ATOM      6  C   UNL     1      -0.088  11.291  21.223  0.00  0.00    +0.000 A 
ATOM      7  C   UNL     1      -0.383  10.620  22.420  0.00  0.00    +0.000 A 
ATOM      8  C   UNL     1      -0.004   9.296  22.621  0.00  0.00    +0.000 A 
ATOM      9  C   UNL     1       0.684   8.585  21.628  0.00  0.00    +0.000 A 
ATOM     10  C   UNL     1       1.019   9.222  20.413  0.00  0.00    +0.000 A 
ATOM     11  C   UNL     1       1.663   8.813  19.193  0.00  0.00    +0.000 A 
ATOM     12  C   UNL     1       1.631   9.915  18.353  0.00  0.00    +0.000 A 
ATOM     13  N   UNL     1       1.018  10.947  18.994  0.00  0.00    +0.000 N 
ATOM     14  C   UNL     1       0.617  10.556  20.250  0.00  0.00    +0.000 A 
ATOM     15  H   UNL     1       0.848  11.861  18.598  0.00  0.00    +0.000 HD
ENDBRANCH   1  11
BRANCH   3  16
ATOM     16  C   UNL     1       2.384   5.068  19.198  0.00  0.00    +0.000 C 
ATOM     17  C   UNL     1       2.023   4.580  17.769  0.00  0.00    +0.000 C 
ATOM     18  C   UNL     1       2.613   3.184  17.501  0.00  0.00    +0.000 C 
ATOM     19  C   UNL     1       4.143   3.250  17.621  0.00  0.00    +0.000 C 
ATOM     20  C   UNL     1       4.538   3.707  19.035  0.00  0.00    +0.000 C 
ATOM     21  C   UNL     1       3.986   2.709  20.065  0.00  0.00    +0.000 C 
ATOM     22  C   UNL     1       2.456   2.638  19.957  0.00  0.00    +0.000 C 
ATOM     23  C   UNL     1       2.069   2.187  18.538  0.00  0.00    +0.000 C 
ATOM     24  C   UNL     1       1.862   4.031  20.228  0.00  0.00    +0.000 C 
ATOM     25  C   UNL     1       3.935   5.098  19.307  0.00  0.00    +0.000 C 
ENDBRANCH   3  16
TORSDOF 2
ENDMDL
MODEL 9
REMARK VINA RESULT:      -8.1      4.323      8.321
REMARK  Name = 
REMARK  3 active torsions:
REMARK  status: ('A' for Active; 'I' for Inactive)
REMARK    1  A    between atoms: C_1  and  C_2
REMARK    2  A    between atoms: C_7  and  C_8
REMARK    3  A    between atoms: N_10  and  C_11
REMARK                            x       y       z     vdW  Elec       q    Type
REMARK                         _______ _______ _______ _____ _____    ______ ____
ROOT
ATOM      1  C   UNL     1       2.075   7.462  19.678  0.00  0.00    +0.000 C 
ATOM      2  O   UNL     1       1.897   6.531  20.459  0.00  0.00    +0.000 OA
ATOM      3  N   UNL     1       2.924   7.378  18.590  0.00  0.00    +0.000 N 
ATOM      4  H   UNL     1       2.844   8.109  17.896  0.00  0.00    +0.000 HD
ENDROOT
BRANCH   1  11
ATOM      5  C   UNL     1      -1.420  12.564  20.791  0.00  0.00    +0.000 C 
ATOM      6  C   UNL     1      -0.744  11.328  21.313  0.00  0.00    +0.000 A 
ATOM      7  C   UNL     1      -0.895  10.942  22.654  0.00  0.00    +0.000 A 
ATOM      8  C   UNL     1      -0.300   9.784  23.146  0.00  0.00    +0.000 A 
ATOM      9  C   UNL     1       0.468   8.959  22.313  0.00  0.00    +0.000 A 
ATOM     10  C   UNL     1       0.663   9.313  20.960  0.00  0.00    +0.000 A 
ATOM     11  C   UNL     1       1.333   8.713  19.836  0.00  0.00    +0.000 A 
ATOM     12  C   UNL     1       1.099   9.552  18.757  0.00  0.00    +0.000 A 
ATOM     13  N   UNL     1       0.344  10.607  19.167  0.00  0.00    +0.000 N 
ATOM     14  C   UNL     1       0.045  10.487  20.504  0.00  0.00    +0.000 A 
ATOM     15  H   UNL     1       0.017  11.356  18.572  0.00  0.00    +0.000 HD
ENDBRANCH   1  11
BRANCH   3  16
ATOM     16  C   UNL     1       3.682   6.162  18.249  0.00  0.00    +0.000 C 
ATOM     17  C   UNL     1       4.456   5.598  19.470  0.00  0.00    +0.000 C 
ATOM     18  C   UNL     1       5.215   4.313  19.093  0.00  0.00    +0.000 C 
ATOM     19  C   UNL     1       4.210   3.252  18.621  0.00  0.00    +0.000 C 
ATOM     20  C   UNL     1       3.441   3.769  17.394  0.00  0.00    +0.000 C 
ATOM     21  C   UNL     1       4.434   4.073  16.261  0.00  0.00    +0.000 C 
ATOM     22  C   UNL     1       5.442   5.137  16.722  0.00  0.00    +0.000 C 
ATOM     23  C   UNL     1       6.202   4.615  17.953  0.00  0.00    +0.000 C 
ATOM     24  C   UNL     1       4.687   6.424  17.097  0.00  0.00    +0.000 C 
ATOM     25  C   UNL     1       2.693   5.062  17.769  0.00  0.00    +0.000 C 
ENDBRANCH   3  16
TORSDOF 2
ENDMDL
