MODEL 1
REMARK VINA RESULT:      -8.6      0.000      0.000
REMARK  Name = 
REMARK  7 active torsions:
REMARK  status: ('A' for Active; 'I' for Inactive)
REMARK    1  A    between atoms: C_1  and  C_2
REMARK    2  A    between atoms: C_3  and  C_4
REMARK    3  A    between atoms: C_4  and  N_5
REMARK    4  A    between atoms: C_6  and  C_8
REMARK    5  A    between atoms: C_15  and  C_16
REMARK    6  A    between atoms: C_23  and  C_24
REMARK    7  A    between atoms: N_30  and  C_31
REMARK                            x       y       z     vdW  Elec       q    Type
REMARK                         _______ _______ _______ _____ _____    ______ ____
ROOT
ATOM      1  C   UNL     1      -1.295  11.085  19.546  0.00  0.00    +0.000 A 
ATOM      2  N   UNL     1      -1.818  10.478  18.454  0.00  0.00    +0.000 NA
ATOM      3  N   UNL     1      -2.967  11.147  18.229  0.00  0.00    +0.000 N 
ATOM      4  C   UNL     1      -3.232  12.114  19.165  0.00  0.00    +0.000 A 
ATOM      5  C   UNL     1      -2.152  12.118  20.016  0.00  0.00    +0.000 A 
ATOM      6 CL   UNL     1      -1.921  13.131  21.358  0.00  0.00    +0.000 Cl
ATOM      7  N   UNL     1      -4.398  12.816  19.143  0.00  0.00    +0.000 N 
ATOM      8  C   UNL     1      -5.557  12.292  18.416  0.00  0.00    +0.000 C 
ATOM      9  C   UNL     1      -5.062  11.749  17.065  0.00  0.00    +0.000 C 
ATOM     10  C   UNL     1      -3.932  10.710  17.235  0.00  0.00    +0.000 C 
ATOM     11  H   UNL     1      -4.635  13.403  19.943  0.00  0.00    +0.000 HD
ENDROOT
BRANCH   8  12
ATOM     12  C   UNL     1      -6.386  11.302  19.228  0.00  0.00    +0.000 A 
ATOM     13  C   UNL     1      -6.489   9.940  18.896  0.00  0.00    +0.000 A 
ATOM     14  C   UNL     1      -7.227   9.054  19.686  0.00  0.00    +0.000 A 
ATOM     15  C   UNL     1      -7.872   9.511  20.830  0.00  0.00    +0.000 A 
ATOM     16  C   UNL     1      -7.781  10.853  21.185  0.00  0.00    +0.000 A 
ATOM     17  C   UNL     1      -7.042  11.740  20.394  0.00  0.00    +0.000 A 
ENDBRANCH   8  12
BRANCH   1  19
ATOM     18  N   UNL     1       0.008   9.324  20.506  0.00  0.00    +0.000 N 
ATOM     19  C   UNL     1      -0.016  10.649  20.126  0.00  0.00    +0.000 C 
ATOM     20  O   UNL     1       0.945  11.403  20.256  0.00  0.00    +0.000 OA
ATOM     21  H   UNL     1      -0.848   8.794  20.386  0.00  0.00    +0.000 HD
BRANCH  18  22
ATOM     22  C   UNL     1       1.149   8.725  21.150  0.00  0.00    +0.000 C 
BRANCH  22  25
ATOM     23  C   UNL     1       2.493   8.593  18.102  0.00  0.00    +0.000 C 
ATOM     24  C   UNL     1       2.223   7.526  19.097  0.00  0.00    +0.000 A 
ATOM     25  C   UNL     1       1.654   7.564  20.363  0.00  0.00    +0.000 A 
ATOM     26  C   UNL     1       1.734   6.224  20.811  0.00  0.00    +0.000 A 
ATOM     27  N   UNL     1       2.281   5.406  19.912  0.00  0.00    +0.000 NA
ATOM     28  N   UNL     1       2.566   6.214  18.877  0.00  0.00    +0.000 N 
ATOM     29  C   UNL     1       3.191   5.660  17.697  0.00  0.00    +0.000 C 
ENDBRANCH  22  25
ENDBRANCH  18  22
ENDBRANCH   1  19
BRANCH  10  30
ATOM     30  C   UNL     1      -3.310  10.371  15.887  0.00  0.00    +0.000 C 
ATOM     31  F   UNL     1      -2.402  11.257  15.429  0.00  0.00    +0.000 F 
ATOM     32  F   UNL     1      -2.691   9.163  15.951  0.00  0.00    +0.000 F 
ATOM     33  F   UNL     1      -4.250  10.257  14.913  0.00  0.00    +0.000 F 
ENDBRANCH  10  30
TORSDOF 5
ENDMDL
MODEL 2
REMARK VINA RESULT:      -8.6      0.082      1.100
REMARK  Name = 
REMARK  7 active torsions:
REMARK  status: ('A' for Active; 'I' for Inactive)
REMARK    1  A    between atoms: C_1  and  C_2
REMARK    2  A    between atoms: C_3  and  C_4
REMARK    3  A    between atoms: C_4  and  N_5
REMARK    4  A    between atoms: C_6  and  C_8
REMARK    5  A    between atoms: C_15  and  C_16
REMARK    6  A    between atoms: C_23  and  C_24
REMARK    7  A    between atoms: N_30  and  C_31
REMARK                            x       y       z     vdW  Elec       q    Type
REMARK                         _______ _______ _______ _____ _____    ______ ____
ROOT
ATOM      1  C   UNL     1      -1.223  11.066  19.513  0.00  0.00    +0.000 A 
ATOM      2  N   UNL     1      -1.777  10.459  18.436  0.00  0.00    +0.000 NA
ATOM      3  N   UNL     1      -2.927  11.135  18.238  0.00  0.00    +0.000 N 
ATOM      4  C   UNL     1      -3.163  12.106  19.177  0.00  0.00    +0.000 A 
ATOM      5  C   UNL     1      -2.062  12.105  20.001  0.00  0.00    +0.000 A 
ATOM      6 CL   UNL     1      -1.792  13.121  21.334  0.00  0.00    +0.000 Cl
ATOM      7  N   UNL     1      -4.323  12.816  19.181  0.00  0.00    +0.000 N 
ATOM      8  C   UNL     1      -5.503  12.298  18.484  0.00  0.00    +0.000 C 
ATOM      9  C   UNL     1      -5.046  11.748  17.124  0.00  0.00    +0.000 C 
ATOM     10  C   UNL     1      -3.919  10.702  17.268  0.00  0.00    +0.000 C 
ATOM     11  H   UNL     1      -4.537  13.407  19.985  0.00  0.00    +0.000 HD
ENDROOT
BRANCH   8  12
ATOM     12  C   UNL     1      -6.319  11.316  19.319  0.00  0.00    +0.000 A 
ATOM     13  C   UNL     1      -7.010  11.694  20.484  0.00  0.00    +0.000 A 
ATOM     14  C   UNL     1      -7.779  10.776  21.202  0.00  0.00    +0.000 A 
ATOM     15  C   UNL     1      -7.880   9.459  20.768  0.00  0.00    +0.000 A 
ATOM     16  C   UNL     1      -7.212   9.060  19.614  0.00  0.00    +0.000 A 
ATOM     17  C   UNL     1      -6.441   9.979  18.895  0.00  0.00    +0.000 A 
ENDBRANCH   8  12
BRANCH   1  19
ATOM     18  N   UNL     1       0.073   9.316  20.501  0.00  0.00    +0.000 N 
ATOM     19  C   UNL     1       0.066  10.623  20.064  0.00  0.00    +0.000 C 
ATOM     20  O   UNL     1       1.050  11.356  20.122  0.00  0.00    +0.000 OA
ATOM     21  H   UNL     1      -0.799   8.803  20.439  0.00  0.00    +0.000 HD
BRANCH  18  22
ATOM     22  C   UNL     1       1.224   8.716  21.128  0.00  0.00    +0.000 C 
BRANCH  22  25
ATOM     23  C   UNL     1       2.535   8.526  18.069  0.00  0.00    +0.000 C 
ATOM     24  C   UNL     1       2.255   7.474  19.079  0.00  0.00    +0.000 A 
ATOM     25  C   UNL     1       1.698   7.537  20.349  0.00  0.00    +0.000 A 
ATOM     26  C   UNL     1       1.757   6.200  20.811  0.00  0.00    +0.000 A 
ATOM     27  N   UNL     1       2.279   5.362  19.916  0.00  0.00    +0.000 NA
ATOM     28  N   UNL     1       2.570   6.153  18.869  0.00  0.00    +0.000 N 
ATOM     29  C   UNL     1       3.172   5.575  17.690  0.00  0.00    +0.000 C 
ENDBRANCH  22  25
ENDBRANCH  18  22
ENDBRANCH   1  19
BRANCH  10  30
ATOM     30  C   UNL     1      -3.332  10.355  15.907  0.00  0.00    +0.000 C 
ATOM     31  F   UNL     1      -4.224  10.250  14.901  0.00  0.00    +0.000 F 
ATOM     32  F   UNL     1      -2.424  11.297  15.538  0.00  0.00    +0.000 F 
ATOM     33  F   UNL     1      -2.656   9.177  15.936  0.00  0.00    +0.000 F 
ENDBRANCH  10  30
TORSDOF 5
ENDMDL
MODEL 3
REMARK VINA RESULT:      -8.6      0.479      1.320
REMARK  Name = 
REMARK  7 active torsions:
REMARK  status: ('A' for Active; 'I' for Inactive)
REMARK    1  A    between atoms: C_1  and  C_2
REMARK    2  A    between atoms: C_3  and  C_4
REMARK    3  A    between atoms: C_4  and  N_5
REMARK    4  A    between atoms: C_6  and  C_8
REMARK    5  A    between atoms: C_15  and  C_16
REMARK    6  A    between atoms: C_23  and  C_24
REMARK    7  A    between atoms: N_30  and  C_31
REMARK                            x       y       z     vdW  Elec       q    Type
REMARK                         _______ _______ _______ _____ _____    ______ ____
ROOT
ATOM      1  C   UNL     1      -1.264  11.003  19.402  0.00  0.00    +0.000 A 
ATOM      2  N   UNL     1      -1.826  10.429  18.312  0.00  0.00    +0.000 NA
ATOM      3  N   UNL     1      -2.966  11.124  18.129  0.00  0.00    +0.000 N 
ATOM      4  C   UNL     1      -3.189  12.077  19.091  0.00  0.00    +0.000 A 
ATOM      5  C   UNL     1      -2.088  12.042  19.914  0.00  0.00    +0.000 A 
ATOM      6 CL   UNL     1      -1.804  13.024  21.270  0.00  0.00    +0.000 Cl
ATOM      7  N   UNL     1      -4.340  12.802  19.111  0.00  0.00    +0.000 N 
ATOM      8  C   UNL     1      -5.527  12.316  18.403  0.00  0.00    +0.000 C 
ATOM      9  C   UNL     1      -5.077  11.791  17.030  0.00  0.00    +0.000 C 
ATOM     10  C   UNL     1      -3.964  10.727  17.150  0.00  0.00    +0.000 C 
ATOM     11  H   UNL     1      -4.545  13.378  19.928  0.00  0.00    +0.000 HD
ENDROOT
BRANCH   8  12
ATOM     12  C   UNL     1      -6.355  11.327  19.215  0.00  0.00    +0.000 A 
ATOM     13  C   UNL     1      -6.475   9.968  18.873  0.00  0.00    +0.000 A 
ATOM     14  C   UNL     1      -7.211   9.082  19.663  0.00  0.00    +0.000 A 
ATOM     15  C   UNL     1      -7.840   9.534  20.818  0.00  0.00    +0.000 A 
ATOM     16  C   UNL     1      -7.732  10.873  21.184  0.00  0.00    +0.000 A 
ATOM     17  C   UNL     1      -6.995  11.760  20.392  0.00  0.00    +0.000 A 
ENDBRANCH   8  12
BRANCH   1  19
ATOM     18  N   UNL     1       0.055   9.178  20.208  0.00  0.00    +0.000 N 
ATOM     19  C   UNL     1       0.020  10.530  19.942  0.00  0.00    +0.000 C 
ATOM     20  O   UNL     1       0.975  11.279  20.133  0.00  0.00    +0.000 OA
ATOM     21  H   UNL     1      -0.796   8.653  20.046  0.00  0.00    +0.000 HD
BRANCH  18  22
ATOM     22  C   UNL     1       1.203   8.536  20.799  0.00  0.00    +0.000 C 
BRANCH  22  25
ATOM     23  C   UNL     1       1.996   5.299  20.747  0.00  0.00    +0.000 C 
ATOM     24  C   UNL     1       2.257   6.384  19.769  0.00  0.00    +0.000 A 
ATOM     25  C   UNL     1       1.944   7.736  19.783  0.00  0.00    +0.000 A 
ATOM     26  C   UNL     1       2.419   8.206  18.535  0.00  0.00    +0.000 A 
ATOM     27  N   UNL     1       2.997   7.253  17.805  0.00  0.00    +0.000 NA
ATOM     28  N   UNL     1       2.894   6.155  18.573  0.00  0.00    +0.000 N 
ATOM     29  C   UNL     1       3.418   4.899  18.088  0.00  0.00    +0.000 C 
ENDBRANCH  22  25
ENDBRANCH  18  22
ENDBRANCH   1  19
BRANCH  10  30
ATOM     30  C   UNL     1      -3.382  10.403  15.781  0.00  0.00    +0.000 C 
ATOM     31  F   UNL     1      -4.278  10.308  14.779  0.00  0.00    +0.000 F 
ATOM     32  F   UNL     1      -2.481  11.356  15.422  0.00  0.00    +0.000 F 
ATOM     33  F   UNL     1      -2.698   9.229  15.790  0.00  0.00    +0.000 F 
ENDBRANCH  10  30
TORSDOF 5
ENDMDL
MODEL 4
REMARK VINA RESULT:      -8.6      0.507      1.587
REMARK  Name = 
REMARK  7 active torsions:
REMARK  status: ('A' for Active; 'I' for Inactive)
REMARK    1  A    between atoms: C_1  and  C_2
REMARK    2  A    between atoms: C_3  and  C_4
REMARK    3  A    between atoms: C_4  and  N_5
REMARK    4  A    between atoms: C_6  and  C_8
REMARK    5  A    between atoms: C_15  and  C_16
REMARK    6  A    between atoms: C_23  and  C_24
REMARK    7  A    between atoms: N_30  and  C_31
REMARK                            x       y       z     vdW  Elec       q    Type
REMARK                         _______ _______ _______ _____ _____    ______ ____
ROOT
ATOM      1  C   UNL     1      -1.161  10.944  19.417  0.00  0.00    +0.000 A 
ATOM      2  N   UNL     1      -1.745  10.374  18.337  0.00  0.00    +0.000 NA
ATOM      3  N   UNL     1      -2.878  11.085  18.167  0.00  0.00    +0.000 N 
ATOM      4  C   UNL     1      -3.074  12.044  19.128  0.00  0.00    +0.000 A 
ATOM      5  C   UNL     1      -1.963  11.997  19.936  0.00  0.00    +0.000 A 
ATOM      6 CL   UNL     1      -1.647  12.980  21.284  0.00  0.00    +0.000 Cl
ATOM      7  N   UNL     1      -4.215  12.786  19.161  0.00  0.00    +0.000 N 
ATOM      8  C   UNL     1      -5.418  12.313  18.471  0.00  0.00    +0.000 C 
ATOM      9  C   UNL     1      -4.994  11.777  17.094  0.00  0.00    +0.000 C 
ATOM     10  C   UNL     1      -3.895  10.697  17.203  0.00  0.00    +0.000 C 
ATOM     11  H   UNL     1      -4.401  13.367  19.978  0.00  0.00    +0.000 HD
ENDROOT
BRANCH   8  12
ATOM     12  C   UNL     1      -6.249  11.339  19.298  0.00  0.00    +0.000 A 
ATOM     13  C   UNL     1      -6.927  11.718  20.471  0.00  0.00    +0.000 A 
ATOM     14  C   UNL     1      -7.711  10.807  21.182  0.00  0.00    +0.000 A 
ATOM     15  C   UNL     1      -7.842   9.498  20.733  0.00  0.00    +0.000 A 
ATOM     16  C   UNL     1      -7.187   9.098  19.571  0.00  0.00    +0.000 A 
ATOM     17  C   UNL     1      -6.401  10.010  18.859  0.00  0.00    +0.000 A 
ENDBRANCH   8  12
BRANCH   1  19
ATOM     18  N   UNL     1       0.140   9.106  20.223  0.00  0.00    +0.000 N 
ATOM     19  C   UNL     1       0.123  10.455  19.942  0.00  0.00    +0.000 C 
ATOM     20  O   UNL     1       1.095  11.189  20.109  0.00  0.00    +0.000 OA
ATOM     21  H   UNL     1      -0.723   8.594  20.081  0.00  0.00    +0.000 HD
BRANCH  18  22
ATOM     22  C   UNL     1       1.286   8.450  20.802  0.00  0.00    +0.000 C 
BRANCH  22  25
ATOM     23  C   UNL     1       2.027   5.201  20.757  0.00  0.00    +0.000 C 
ATOM     24  C   UNL     1       2.293   6.277  19.770  0.00  0.00    +0.000 A 
ATOM     25  C   UNL     1       2.002   7.635  19.781  0.00  0.00    +0.000 A 
ATOM     26  C   UNL     1       2.470   8.091  18.526  0.00  0.00    +0.000 A 
ATOM     27  N   UNL     1       3.024   7.126  17.793  0.00  0.00    +0.000 NA
ATOM     28  N   UNL     1       2.913   6.033  18.568  0.00  0.00    +0.000 N 
ATOM     29  C   UNL     1       3.411   4.767  18.082  0.00  0.00    +0.000 C 
ENDBRANCH  22  25
ENDBRANCH  18  22
ENDBRANCH   1  19
BRANCH  10  30
ATOM     30  C   UNL     1      -3.336  10.360  15.828  0.00  0.00    +0.000 C 
ATOM     31  F   UNL     1      -2.694   9.179  15.737  0.00  0.00    +0.000 F 
ATOM     32  F   UNL     1      -4.338  10.341  14.910  0.00  0.00    +0.000 F 
ATOM     33  F   UNL     1      -2.456  11.302  15.398  0.00  0.00    +0.000 F 
ENDBRANCH  10  30
TORSDOF 5
ENDMDL
MODEL 5
REMARK VINA RESULT:      -7.9      4.925      7.092
REMARK  Name = 
REMARK  7 active torsions:
REMARK  status: ('A' for Active; 'I' for Inactive)
REMARK    1  A    between atoms: C_1  and  C_2
REMARK    2  A    between atoms: C_3  and  C_4
REMARK    3  A    between atoms: C_4  and  N_5
REMARK    4  A    between atoms: C_6  and  C_8
REMARK    5  A    between atoms: C_15  and  C_16
REMARK    6  A    between atoms: C_23  and  C_24
REMARK    7  A    between atoms: N_30  and  C_31
REMARK                            x       y       z     vdW  Elec       q    Type
REMARK                         _______ _______ _______ _____ _____    ______ ____
ROOT
ATOM      1  C   UNL     1       2.030   7.588  19.937  0.00  0.00    +0.000 A 
ATOM      2  N   UNL     1       1.557   8.167  21.067  0.00  0.00    +0.000 NA
ATOM      3  N   UNL     1       0.886   9.248  20.622  0.00  0.00    +0.000 N 
ATOM      4  C   UNL     1       0.960   9.421  19.264  0.00  0.00    +0.000 A 
ATOM      5  C   UNL     1       1.671   8.345  18.787  0.00  0.00    +0.000 A 
ATOM      6 CL   UNL     1       2.054   8.019  17.166  0.00  0.00    +0.000 Cl
ATOM      7  N   UNL     1       0.420  10.515  18.661  0.00  0.00    +0.000 N 
ATOM      8  C   UNL     1       0.134  11.719  19.447  0.00  0.00    +0.000 C 
ATOM      9  C   UNL     1      -0.516  11.278  20.768  0.00  0.00    +0.000 C 
ATOM     10  C   UNL     1       0.352  10.251  21.529  0.00  0.00    +0.000 C 
ATOM     11  H   UNL     1       0.637  10.696  17.681  0.00  0.00    +0.000 HD
ENDROOT
BRANCH   8  12
ATOM     12  C   UNL     1       1.341  12.637  19.612  0.00  0.00    +0.000 A 
ATOM     13  C   UNL     1       1.740  13.156  20.856  0.00  0.00    +0.000 A 
ATOM     14  C   UNL     1       2.875  13.963  20.975  0.00  0.00    +0.000 A 
ATOM     15  C   UNL     1       3.639  14.263  19.853  0.00  0.00    +0.000 A 
ATOM     16  C   UNL     1       3.270  13.756  18.611  0.00  0.00    +0.000 A 
ATOM     17  C   UNL     1       2.134  12.948  18.491  0.00  0.00    +0.000 A 
ENDBRANCH   8  12
BRANCH   1  19
ATOM     18  N   UNL     1       4.085   6.478  19.426  0.00  0.00    +0.000 N 
ATOM     19  C   UNL     1       2.830   6.356  19.984  0.00  0.00    +0.000 C 
ATOM     20  O   UNL     1       2.414   5.313  20.481  0.00  0.00    +0.000 OA
ATOM     21  H   UNL     1       4.322   7.373  19.013  0.00  0.00    +0.000 HD
BRANCH  18  22
ATOM     22  C   UNL     1       4.996   5.366  19.321  0.00  0.00    +0.000 C 
BRANCH  22  25
ATOM     23  C   UNL     1       4.579   3.830  16.392  0.00  0.00    +0.000 C 
ATOM     24  C   UNL     1       5.597   4.810  16.844  0.00  0.00    +0.000 A 
ATOM     25  C   UNL     1       5.790   5.447  18.063  0.00  0.00    +0.000 A 
ATOM     26  C   UNL     1       6.897   6.297  17.828  0.00  0.00    +0.000 A 
ATOM     27  N   UNL     1       7.378   6.198  16.589  0.00  0.00    +0.000 NA
ATOM     28  N   UNL     1       6.579   5.286  16.009  0.00  0.00    +0.000 N 
ATOM     29  C   UNL     1       6.803   4.924  14.628  0.00  0.00    +0.000 C 
ENDBRANCH  22  25
ENDBRANCH  18  22
ENDBRANCH   1  19
BRANCH  10  30
ATOM     30  C   UNL     1      -0.420   9.664  22.703  0.00  0.00    +0.000 C 
ATOM     31  F   UNL     1      -1.442  10.415  23.158  0.00  0.00    +0.000 F 
ATOM     32  F   UNL     1      -0.935   8.453  22.362  0.00  0.00    +0.000 F 
ATOM     33  F   UNL     1       0.388   9.437  23.772  0.00  0.00    +0.000 F 
ENDBRANCH  10  30
TORSDOF 5
ENDMDL
MODEL 6
REMARK VINA RESULT:      -7.9      4.983      7.132
REMARK  Name = 
REMARK  7 active torsions:
REMARK  status: ('A' for Active; 'I' for Inactive)
REMARK    1  A    between atoms: C_1  and  C_2
REMARK    2  A    between atoms: C_3  and  C_4
REMARK    3  A    between atoms: C_4  and  N_5
REMARK    4  A    between atoms: C_6  and  C_8
REMARK    5  A    between atoms: C_15  and  C_16
REMARK    6  A    between atoms: C_23  and  C_24
REMARK    7  A    between atoms: N_30  and  C_31
REMARK                            x       y       z     vdW  Elec       q    Type
REMARK                         _______ _______ _______ _____ _____    ______ ____
ROOT
ATOM      1  C   UNL     1       2.246   7.379  19.837  0.00  0.00    +0.000 A 
ATOM      2  N   UNL     1       1.703   7.995  20.914  0.00  0.00    +0.000 NA
ATOM      3  N   UNL     1       1.060   9.059  20.391  0.00  0.00    +0.000 N 
ATOM      4  C   UNL     1       1.219   9.184  19.034  0.00  0.00    +0.000 A 
ATOM      5  C   UNL     1       1.959   8.094  18.641  0.00  0.00    +0.000 A 
ATOM      6 CL   UNL     1       2.443   7.714  17.059  0.00  0.00    +0.000 Cl
ATOM      7  N   UNL     1       0.716  10.255  18.362  0.00  0.00    +0.000 N 
ATOM      8  C   UNL     1       0.381  11.484  19.085  0.00  0.00    +0.000 C 
ATOM      9  C   UNL     1      -0.350  11.088  20.378  0.00  0.00    +0.000 C 
ATOM     10  C   UNL     1       0.468  10.090  21.226  0.00  0.00    +0.000 C 
ATOM     11  H   UNL     1       0.994  10.402  17.391  0.00  0.00    +0.000 HD
ENDROOT
BRANCH   8  12
ATOM     12  C   UNL     1       1.574  12.411  19.294  0.00  0.00    +0.000 A 
ATOM     13  C   UNL     1       2.425  12.808  18.247  0.00  0.00    +0.000 A 
ATOM     14  C   UNL     1       3.486  13.690  18.468  0.00  0.00    +0.000 A 
ATOM     15  C   UNL     1       3.715  14.200  19.741  0.00  0.00    +0.000 A 
ATOM     16  C   UNL     1       2.884  13.829  20.794  0.00  0.00    +0.000 A 
ATOM     17  C   UNL     1       1.822  12.946  20.572  0.00  0.00    +0.000 A 
ENDBRANCH   8  12
BRANCH   1  19
ATOM     18  N   UNL     1       4.319   6.248  19.465  0.00  0.00    +0.000 N 
ATOM     19  C   UNL     1       3.043   6.152  19.976  0.00  0.00    +0.000 C 
ATOM     20  O   UNL     1       2.606   5.133  20.507  0.00  0.00    +0.000 OA
ATOM     21  H   UNL     1       4.574   7.122  19.019  0.00  0.00    +0.000 HD
BRANCH  18  22
ATOM     22  C   UNL     1       5.233   5.133  19.452  0.00  0.00    +0.000 C 
BRANCH  22  25
ATOM     23  C   UNL     1       4.040   3.763  16.657  0.00  0.00    +0.000 C 
ATOM     24  C   UNL     1       5.343   4.412  16.948  0.00  0.00    +0.000 A 
ATOM     25  C   UNL     1       5.858   4.974  18.108  0.00  0.00    +0.000 A 
ATOM     26  C   UNL     1       7.123   5.468  17.712  0.00  0.00    +0.000 A 
ATOM     27  N   UNL     1       7.400   5.227  16.431  0.00  0.00    +0.000 NA
ATOM     28  N   UNL     1       6.310   4.580  15.986  0.00  0.00    +0.000 N 
ATOM     29  C   UNL     1       6.251   4.159  14.604  0.00  0.00    +0.000 C 
ENDBRANCH  22  25
ENDBRANCH  18  22
ENDBRANCH   1  19
BRANCH  10  30
ATOM     30  C   UNL     1      -0.374   9.542  22.370  0.00  0.00    +0.000 C 
ATOM     31  F   UNL     1      -0.978   8.361  22.129  0.00  0.00    +0.000 F 
ATOM     32  F   UNL     1       0.395   9.378  23.478  0.00  0.00    +0.000 F 
ATOM     33  F   UNL     1      -1.361  10.405  22.726  0.00  0.00    +0.000 F 
ENDBRANCH  10  30
TORSDOF 5
ENDMDL
MODEL 7
REMARK VINA RESULT:      -7.9      4.933      6.983
REMARK  Name = 
REMARK  7 active torsions:
REMARK  status: ('A' for Active; 'I' for Inactive)
REMARK    1  A    between atoms: C_1  and  C_2
REMARK    2  A    between atoms: C_3  and  C_4
REMARK    3  A    between atoms: C_4  and  N_5
REMARK    4  A    between atoms: C_6  and  C_8
REMARK    5  A    between atoms: C_15  and  C_16
REMARK    6  A    between atoms: C_23  and  C_24
REMARK    7  A    between atoms: N_30  and  C_31
REMARK                            x       y       z     vdW  Elec       q    Type
REMARK                         _______ _______ _______ _____ _____    ______ ____
ROOT
ATOM      1  C   UNL     1       1.889   7.623  20.115  0.00  0.00    +0.000 A 
ATOM      2  N   UNL     1       1.440   8.220  21.244  0.00  0.00    +0.000 NA
ATOM      3  N   UNL     1       0.803   9.322  20.798  0.00  0.00    +0.000 N 
ATOM      4  C   UNL     1       0.879   9.488  19.438  0.00  0.00    +0.000 A 
ATOM      5  C   UNL     1       1.553   8.387  18.964  0.00  0.00    +0.000 A 
ATOM      6 CL   UNL     1       1.920   8.043  17.342  0.00  0.00    +0.000 Cl
ATOM      7  N   UNL     1       0.374  10.597  18.834  0.00  0.00    +0.000 N 
ATOM      8  C   UNL     1       0.131  11.812  19.616  0.00  0.00    +0.000 C 
ATOM      9  C   UNL     1      -0.530  11.398  20.941  0.00  0.00    +0.000 C 
ATOM     10  C   UNL     1       0.305  10.345  21.702  0.00  0.00    +0.000 C 
ATOM     11  H   UNL     1       0.594  10.767  17.852  0.00  0.00    +0.000 HD
ENDROOT
BRANCH   8  12
ATOM     12  C   UNL     1       1.368  12.690  19.775  0.00  0.00    +0.000 A 
ATOM     13  C   UNL     1       2.290  12.906  18.735  0.00  0.00    +0.000 A 
ATOM     14  C   UNL     1       3.392  13.748  18.905  0.00  0.00    +0.000 A 
ATOM     15  C   UNL     1       3.592  14.399  20.117  0.00  0.00    +0.000 A 
ATOM     16  C   UNL     1       2.691  14.208  21.161  0.00  0.00    +0.000 A 
ATOM     17  C   UNL     1       1.588  13.365  20.991  0.00  0.00    +0.000 A 
ENDBRANCH   8  12
BRANCH   1  19
ATOM     18  N   UNL     1       3.861   6.412  19.508  0.00  0.00    +0.000 N 
ATOM     19  C   UNL     1       2.649   6.365  20.163  0.00  0.00    +0.000 C 
ATOM     20  O   UNL     1       2.237   5.363  20.743  0.00  0.00    +0.000 OA
ATOM     21  H   UNL     1       4.096   7.277  19.034  0.00  0.00    +0.000 HD
BRANCH  18  22
ATOM     22  C   UNL     1       4.722   5.263  19.391  0.00  0.00    +0.000 C 
BRANCH  22  25
ATOM     23  C   UNL     1       7.366   6.237  17.609  0.00  0.00    +0.000 C 
ATOM     24  C   UNL     1       6.190   5.411  17.240  0.00  0.00    +0.000 A 
ATOM     25  C   UNL     1       5.077   5.008  17.966  0.00  0.00    +0.000 A 
ATOM     26  C   UNL     1       4.357   4.194  17.060  0.00  0.00    +0.000 A 
ATOM     27  N   UNL     1       4.940   4.103  15.865  0.00  0.00    +0.000 NA
ATOM     28  N   UNL     1       6.048   4.852  15.992  0.00  0.00    +0.000 N 
ATOM     29  C   UNL     1       6.950   4.980  14.870  0.00  0.00    +0.000 C 
ENDBRANCH  22  25
ENDBRANCH  18  22
ENDBRANCH   1  19
BRANCH  10  30
ATOM     30  C   UNL     1      -0.482   9.788  22.880  0.00  0.00    +0.000 C 
ATOM     31  F   UNL     1      -1.464  10.583  23.349  0.00  0.00    +0.000 F 
ATOM     32  F   UNL     1      -1.056   8.604  22.538  0.00  0.00    +0.000 F 
ATOM     33  F   UNL     1       0.324   9.518  23.940  0.00  0.00    +0.000 F 
ENDBRANCH  10  30
TORSDOF 5
ENDMDL
MODEL 8
REMARK VINA RESULT:      -7.8      4.927      7.020
REMARK  Name = 
REMARK  7 active torsions:
REMARK  status: ('A' for Active; 'I' for Inactive)
REMARK    1  A    between atoms: C_1  and  C_2
REMARK    2  A    between atoms: C_3  and  C_4
REMARK    3  A    between atoms: C_4  and  N_5
REMARK    4  A    between atoms: C_6  and  C_8
REMARK    5  A    between atoms: C_15  and  C_16
REMARK    6  A    between atoms: C_23  and  C_24
REMARK    7  A    between atoms: N_30  and  C_31
REMARK                            x       y       z     vdW  Elec       q    Type
REMARK                         _______ _______ _______ _____ _____    ______ ____
ROOT
ATOM      1  C   UNL     1       1.911   7.620  20.080  0.00  0.00    +0.000 A 
ATOM      2  N   UNL     1       1.458   8.219  21.207  0.00  0.00    +0.000 NA
ATOM      3  N   UNL     1       0.808   9.311  20.755  0.00  0.00    +0.000 N 
ATOM      4  C   UNL     1       0.877   9.469  19.395  0.00  0.00    +0.000 A 
ATOM      5  C   UNL     1       1.562   8.373  18.925  0.00  0.00    +0.000 A 
ATOM      6 CL   UNL     1       1.928   8.023  17.305  0.00  0.00    +0.000 Cl
ATOM      7  N   UNL     1       0.357  10.568  18.785  0.00  0.00    +0.000 N 
ATOM      8  C   UNL     1       0.102  11.785  19.560  0.00  0.00    +0.000 C 
ATOM      9  C   UNL     1      -0.549  11.372  20.889  0.00  0.00    +0.000 C 
ATOM     10  C   UNL     1       0.300  10.333  21.655  0.00  0.00    +0.000 C 
ATOM     11  H   UNL     1       0.572  10.734  17.802  0.00  0.00    +0.000 HD
ENDROOT
BRANCH   8  12
ATOM     12  C   UNL     1       1.329  12.678  19.709  0.00  0.00    +0.000 A 
ATOM     13  C   UNL     1       1.718  13.244  20.936  0.00  0.00    +0.000 A 
ATOM     14  C   UNL     1       2.871  14.026  21.043  0.00  0.00    +0.000 A 
ATOM     15  C   UNL     1       3.665  14.254  19.925  0.00  0.00    +0.000 A 
ATOM     16  C   UNL     1       3.307  13.701  18.700  0.00  0.00    +0.000 A 
ATOM     17  C   UNL     1       2.153  12.918  18.592  0.00  0.00    +0.000 A 
ENDBRANCH   8  12
BRANCH   1  19
ATOM     18  N   UNL     1       3.896   6.430  19.478  0.00  0.00    +0.000 N 
ATOM     19  C   UNL     1       2.685   6.371  20.134  0.00  0.00    +0.000 C 
ATOM     20  O   UNL     1       2.286   5.367  20.719  0.00  0.00    +0.000 OA
ATOM     21  H   UNL     1       4.121   7.294  18.999  0.00  0.00    +0.000 HD
BRANCH  18  22
ATOM     22  C   UNL     1       4.772   5.290  19.366  0.00  0.00    +0.000 C 
BRANCH  22  25
ATOM     23  C   UNL     1       7.356   6.302  17.520  0.00  0.00    +0.000 C 
ATOM     24  C   UNL     1       6.197   5.436  17.187  0.00  0.00    +0.000 A 
ATOM     25  C   UNL     1       5.109   5.017  17.941  0.00  0.00    +0.000 A 
ATOM     26  C   UNL     1       4.396   4.167  17.062  0.00  0.00    +0.000 A 
ATOM     27  N   UNL     1       4.961   4.069  15.859  0.00  0.00    +0.000 NA
ATOM     28  N   UNL     1       6.050   4.851  15.953  0.00  0.00    +0.000 N 
ATOM     29  C   UNL     1       6.929   4.982  14.813  0.00  0.00    +0.000 C 
ENDBRANCH  22  25
ENDBRANCH  18  22
ENDBRANCH   1  19
BRANCH  10  30
ATOM     30  C   UNL     1      -0.476   9.775  22.839  0.00  0.00    +0.000 C 
ATOM     31  F   UNL     1      -1.117   8.610  22.614  0.00  0.00    +0.000 F 
ATOM     32  F   UNL     1       0.361   9.573  23.891  0.00  0.00    +0.000 F 
ATOM     33  F   UNL     1      -1.421  10.647  23.278  0.00  0.00    +0.000 F 
ENDBRANCH  10  30
TORSDOF 5
ENDMDL
MODEL 9
REMARK VINA RESULT:      -7.6      3.107      4.407
REMARK  Name = 
REMARK  7 active torsions:
REMARK  status: ('A' for Active; 'I' for Inactive)
REMARK    1  A    between atoms: C_1  and  C_2
REMARK    2  A    between atoms: C_3  and  C_4
REMARK    3  A    between atoms: C_4  and  N_5
REMARK    4  A    between atoms: C_6  and  C_8
REMARK    5  A    between atoms: C_15  and  C_16
REMARK    6  A    between atoms: C_23  and  C_24
REMARK    7  A    between atoms: N_30  and  C_31
REMARK                            x       y       z     vdW  Elec       q    Type
REMARK                         _______ _______ _______ _____ _____    ______ ____
ROOT
ATOM      1  C   UNL     1       1.151   9.387  19.506  0.00  0.00    +0.000 A 
ATOM      2  N   UNL     1       1.285  10.583  18.884  0.00  0.00    +0.000 NA
ATOM      3  N   UNL     1       0.449  11.397  19.559  0.00  0.00    +0.000 N 
ATOM      4  C   UNL     1      -0.259  10.761  20.546  0.00  0.00    +0.000 A 
ATOM      5  C   UNL     1       0.194   9.463  20.556  0.00  0.00    +0.000 A 
ATOM      6 CL   UNL     1      -0.314   8.218  21.593  0.00  0.00    +0.000 Cl
ATOM      7  N   UNL     1      -1.217  11.414  21.259  0.00  0.00    +0.000 N 
ATOM      8  C   UNL     1      -1.813  12.644  20.733  0.00  0.00    +0.000 C 
ATOM      9  C   UNL     1      -0.680  13.511  20.160  0.00  0.00    +0.000 C 
ATOM     10  C   UNL     1       0.162  12.750  19.113  0.00  0.00    +0.000 C 
ATOM     11  H   UNL     1      -1.836  10.873  21.864  0.00  0.00    +0.000 HD
ENDROOT
BRANCH   8  12
ATOM     12  C   UNL     1      -2.966  12.395  19.767  0.00  0.00    +0.000 A 
ATOM     13  C   UNL     1      -2.804  11.729  18.539  0.00  0.00    +0.000 A 
ATOM     14  C   UNL     1      -3.892  11.484  17.697  0.00  0.00    +0.000 A 
ATOM     15  C   UNL     1      -5.168  11.893  18.067  0.00  0.00    +0.000 A 
ATOM     16  C   UNL     1      -5.357  12.549  19.280  0.00  0.00    +0.000 A 
ATOM     17  C   UNL     1      -4.269  12.794  20.123  0.00  0.00    +0.000 A 
ENDBRANCH   8  12
BRANCH   1  19
ATOM     18  N   UNL     1       2.352   7.407  20.102  0.00  0.00    +0.000 N 
ATOM     19  C   UNL     1       1.909   8.205  19.069  0.00  0.00    +0.000 C 
ATOM     20  O   UNL     1       2.122   7.954  17.886  0.00  0.00    +0.000 OA
ATOM     21  H   UNL     1       2.151   7.718  21.045  0.00  0.00    +0.000 HD
BRANCH  18  22
ATOM     22  C   UNL     1       3.163   6.236  19.880  0.00  0.00    +0.000 C 
BRANCH  22  25
ATOM     23  C   UNL     1       1.852   4.319  17.490  0.00  0.00    +0.000 C 
ATOM     24  C   UNL     1       1.813   4.199  18.968  0.00  0.00    +0.000 A 
ATOM     25  C   UNL     1       2.343   4.996  19.975  0.00  0.00    +0.000 A 
ATOM     26  C   UNL     1       2.003   4.309  21.164  0.00  0.00    +0.000 A 
ATOM     27  N   UNL     1       1.305   3.195  20.942  0.00  0.00    +0.000 NA
ATOM     28  N   UNL     1       1.196   3.149  19.604  0.00  0.00    +0.000 N 
ATOM     29  C   UNL     1       0.492   2.046  18.988  0.00  0.00    +0.000 C 
ENDBRANCH  22  25
ENDBRANCH  18  22
ENDBRANCH   1  19
BRANCH  10  30
ATOM     30  C   UNL     1       1.405  13.548  18.743  0.00  0.00    +0.000 C 
ATOM     31  F   UNL     1       1.984  13.209  17.573  0.00  0.00    +0.000 F 
ATOM     32  F   UNL     1       1.104  14.871  18.669  0.00  0.00    +0.000 F 
ATOM     33  F   UNL     1       2.374  13.438  19.689  0.00  0.00    +0.000 F 
ENDBRANCH  10  30
TORSDOF 5
ENDMDL
