MODEL 1
REMARK VINA RESULT:      -8.6      0.000      0.000
REMARK  Name = 
REMARK  6 active torsions:
REMARK  status: ('A' for Active; 'I' for Inactive)
REMARK    1  A    between atoms: C_2  and  O_3
REMARK    2  A    between atoms: C_2  and  C_4
REMARK    3  A    between atoms: N_6  and  C_7
REMARK    4  A    between atoms: C_12  and  C_13
REMARK    5  A    between atoms: C_16  and  C_17
REMARK    6  A    between atoms: C_23  and  C_24
REMARK                            x       y       z     vdW  Elec       q    Type
REMARK                         _______ _______ _______ _____ _____    ______ ____
ROOT
ATOM      1  C   UNL     1       3.515   5.960  18.080  0.00  0.00    +0.000 A 
ATOM      2  C   UNL     1       3.176   5.198  19.215  0.00  0.00    +0.000 A 
ATOM      3  C   UNL     1       2.391   5.707  20.262  0.00  0.00    +0.000 A 
ATOM      4  C   UNL     1       1.941   7.011  20.087  0.00  0.00    +0.000 A 
ATOM      5  O   UNL     1       1.188   7.754  20.953  0.00  0.00    +0.000 OA
ATOM      6  C   UNL     1       1.039   8.951  20.303  0.00  0.00    +0.000 A 
ATOM      7  N   UNL     1       1.611   9.005  19.109  0.00  0.00    +0.000 NA
ATOM      8  C   UNL     1       2.209   7.784  18.980  0.00  0.00    +0.000 A 
ATOM      9  C   UNL     1       3.010   7.264  17.951  0.00  0.00    +0.000 A 
ENDROOT
BRANCH   6  10
ATOM     10  C   UNL     1       0.364  10.031  21.015  0.00  0.00    +0.000 A 
ATOM     11  C   UNL     1       0.071   9.854  22.363  0.00  0.00    +0.000 A 
ATOM     12  C   UNL     1      -0.714  10.781  23.047  0.00  0.00    +0.000 A 
ATOM     13  C   UNL     1      -1.238  11.948  22.437  0.00  0.00    +0.000 A 
ATOM     14  C   UNL     1      -0.873  12.182  21.085  0.00  0.00    +0.000 A 
ATOM     15  C   UNL     1      -0.077  11.211  20.401  0.00  0.00    +0.000 A 
BRANCH  13  16
ATOM     16  C   UNL     1      -2.144  12.796  23.260  0.00  0.00    +0.000 A 
ATOM     17  C   UNL     1      -3.493  12.439  23.452  0.00  0.00    +0.000 A 
ATOM     18  C   UNL     1      -4.374  13.242  24.185  0.00  0.00    +0.000 A 
ATOM     19  C   UNL     1      -3.909  14.396  24.802  0.00  0.00    +0.000 A 
ATOM     20  C   UNL     1      -2.585  14.772  24.641  0.00  0.00    +0.000 A 
ATOM     21  C   UNL     1      -1.737  14.015  23.827  0.00  0.00    +0.000 A 
ENDBRANCH  13  16
BRANCH  14  22
ATOM     22  C   UNL     1      -1.282  13.376  20.238  0.00  0.00    +0.000 C 
ATOM     23  F   UNL     1      -0.906  14.613  20.659  0.00  0.00    +0.000 F 
ATOM     24  F   UNL     1      -0.799  13.299  18.967  0.00  0.00    +0.000 F 
ATOM     25  F   UNL     1      -2.642  13.440  20.106  0.00  0.00    +0.000 F 
ENDBRANCH  14  22
ENDBRANCH   6  10
BRANCH   1  28
ATOM     26  C   UNL     1       5.357   4.575  15.551  0.00  0.00    +0.000 C 
ATOM     27  C   UNL     1       5.089   4.208  17.023  0.00  0.00    +0.000 C 
ATOM     28  N   UNL     1       4.316   5.409  17.072  0.00  0.00    +0.000 N 
ATOM     29  C   UNL     1       5.031   6.012  15.994  0.00  0.00    +0.000 C 
BRANCH  26  31
ATOM     30  O   UNL     1       7.816   4.621  15.442  0.00  0.00    +0.000 OA
ATOM     31  C   UNL     1       6.738   4.285  14.959  0.00  0.00    +0.000 C 
BRANCH  31  32
ATOM     32  O   UNL     1       6.699   3.568  13.796  0.00  0.00    +0.000 OA
ATOM     33  H   UNL     1       6.450   4.088  13.017  0.00  0.00    +0.000 HD
ENDBRANCH  31  32
ENDBRANCH  26  31
ENDBRANCH   1  28
TORSDOF 6
ENDMDL
MODEL 2
REMARK VINA RESULT:      -8.6      0.697      1.143
REMARK  Name = 
REMARK  6 active torsions:
REMARK  status: ('A' for Active; 'I' for Inactive)
REMARK    1  A    between atoms: C_2  and  O_3
REMARK    2  A    between atoms: C_2  and  C_4
REMARK    3  A    between atoms: N_6  and  C_7
REMARK    4  A    between atoms: C_12  and  C_13
REMARK    5  A    between atoms: C_16  and  C_17
REMARK    6  A    between atoms: C_23  and  C_24
REMARK                            x       y       z     vdW  Elec       q    Type
REMARK                         _______ _______ _______ _____ _____    ______ ____
ROOT
ATOM      1  C   UNL     1       3.908   5.758  18.017  0.00  0.00    +0.000 A 
ATOM      2  C   UNL     1       3.530   4.987  19.134  0.00  0.00    +0.000 A 
ATOM      3  C   UNL     1       2.682   5.478  20.140  0.00  0.00    +0.000 A 
ATOM      4  C   UNL     1       2.212   6.772  19.942  0.00  0.00    +0.000 A 
ATOM      5  O   UNL     1       1.400   7.497  20.769  0.00  0.00    +0.000 OA
ATOM      6  C   UNL     1       1.258   8.691  20.112  0.00  0.00    +0.000 A 
ATOM      7  N   UNL     1       1.888   8.759  18.948  0.00  0.00    +0.000 NA
ATOM      8  C   UNL     1       2.519   7.552  18.850  0.00  0.00    +0.000 A 
ATOM      9  C   UNL     1       3.382   7.051  17.863  0.00  0.00    +0.000 A 
ENDROOT
BRANCH   6  10
ATOM     10  C   UNL     1       0.524   9.755  20.789  0.00  0.00    +0.000 A 
ATOM     11  C   UNL     1       0.450   9.729  22.177  0.00  0.00    +0.000 A 
ATOM     12  C   UNL     1      -0.371  10.624  22.862  0.00  0.00    +0.000 A 
ATOM     13  C   UNL     1      -1.152  11.609  22.209  0.00  0.00    +0.000 A 
ATOM     14  C   UNL     1      -1.018  11.700  20.799  0.00  0.00    +0.000 A 
ATOM     15  C   UNL     1      -0.180  10.765  20.118  0.00  0.00    +0.000 A 
BRANCH  13  16
ATOM     16  C   UNL     1      -2.060  12.429  23.058  0.00  0.00    +0.000 A 
ATOM     17  C   UNL     1      -1.673  13.709  23.504  0.00  0.00    +0.000 A 
ATOM     18  C   UNL     1      -2.491  14.480  24.337  0.00  0.00    +0.000 A 
ATOM     19  C   UNL     1      -3.750  14.015  24.696  0.00  0.00    +0.000 A 
ATOM     20  C   UNL     1      -4.164  12.764  24.269  0.00  0.00    +0.000 A 
ATOM     21  C   UNL     1      -3.302  11.961  23.517  0.00  0.00    +0.000 A 
ENDBRANCH  13  16
BRANCH  14  22
ATOM     22  C   UNL     1      -1.724  12.695  19.892  0.00  0.00    +0.000 C 
ATOM     23  F   UNL     1      -1.740  14.001  20.271  0.00  0.00    +0.000 F 
ATOM     24  F   UNL     1      -1.190  12.722  18.639  0.00  0.00    +0.000 F 
ATOM     25  F   UNL     1      -3.038  12.355  19.720  0.00  0.00    +0.000 F 
ENDBRANCH  14  22
ENDBRANCH   6  10
BRANCH   1  28
ATOM     26  C   UNL     1       6.061   4.365  15.752  0.00  0.00    +0.000 C 
ATOM     27  C   UNL     1       6.016   5.694  16.529  0.00  0.00    +0.000 C 
ATOM     28  N   UNL     1       4.772   5.226  17.051  0.00  0.00    +0.000 N 
ATOM     29  C   UNL     1       4.534   4.364  15.938  0.00  0.00    +0.000 C 
BRANCH  26  31
ATOM     30  O   UNL     1       7.311   5.246  13.822  0.00  0.00    +0.000 OA
ATOM     31  C   UNL     1       6.626   4.362  14.329  0.00  0.00    +0.000 C 
BRANCH  31  32
ATOM     32  O   UNL     1       6.320   3.236  13.618  0.00  0.00    +0.000 OA
ATOM     33  H   UNL     1       5.505   3.305  13.097  0.00  0.00    +0.000 HD
ENDBRANCH  31  32
ENDBRANCH  26  31
ENDBRANCH   1  28
TORSDOF 6
ENDMDL
MODEL 3
REMARK VINA RESULT:      -8.6      0.743      1.051
REMARK  Name = 
REMARK  6 active torsions:
REMARK  status: ('A' for Active; 'I' for Inactive)
REMARK    1  A    between atoms: C_2  and  O_3
REMARK    2  A    between atoms: C_2  and  C_4
REMARK    3  A    between atoms: N_6  and  C_7
REMARK    4  A    between atoms: C_12  and  C_13
REMARK    5  A    between atoms: C_16  and  C_17
REMARK    6  A    between atoms: C_23  and  C_24
REMARK                            x       y       z     vdW  Elec       q    Type
REMARK                         _______ _______ _______ _____ _____    ______ ____
ROOT
ATOM      1  C   UNL     1       3.964   5.811  17.940  0.00  0.00    +0.000 A 
ATOM      2  C   UNL     1       3.546   5.015  19.023  0.00  0.00    +0.000 A 
ATOM      3  C   UNL     1       2.677   5.488  20.019  0.00  0.00    +0.000 A 
ATOM      4  C   UNL     1       2.229   6.793  19.845  0.00  0.00    +0.000 A 
ATOM      5  O   UNL     1       1.403   7.505  20.670  0.00  0.00    +0.000 OA
ATOM      6  C   UNL     1       1.293   8.718  20.044  0.00  0.00    +0.000 A 
ATOM      7  N   UNL     1       1.956   8.811  18.900  0.00  0.00    +0.000 NA
ATOM      8  C   UNL     1       2.575   7.599  18.785  0.00  0.00    +0.000 A 
ATOM      9  C   UNL     1       3.458   7.115  17.808  0.00  0.00    +0.000 A 
ENDROOT
BRANCH   6  10
ATOM     10  C   UNL     1       0.554   9.773  20.730  0.00  0.00    +0.000 A 
ATOM     11  C   UNL     1       0.536   9.772  22.121  0.00  0.00    +0.000 A 
ATOM     12  C   UNL     1      -0.284  10.655  22.822  0.00  0.00    +0.000 A 
ATOM     13  C   UNL     1      -1.121  11.602  22.182  0.00  0.00    +0.000 A 
ATOM     14  C   UNL     1      -1.047  11.670  20.767  0.00  0.00    +0.000 A 
ATOM     15  C   UNL     1      -0.207  10.747  20.069  0.00  0.00    +0.000 A 
BRANCH  13  16
ATOM     16  C   UNL     1      -2.019  12.411  23.052  0.00  0.00    +0.000 A 
ATOM     17  C   UNL     1      -3.252  11.894  23.499  0.00  0.00    +0.000 A 
ATOM     18  C   UNL     1      -4.131  12.650  24.282  0.00  0.00    +0.000 A 
ATOM     19  C   UNL     1      -3.770  13.927  24.693  0.00  0.00    +0.000 A 
ATOM     20  C   UNL     1      -2.561  14.462  24.279  0.00  0.00    +0.000 A 
ATOM     21  C   UNL     1      -1.733  13.737  23.418  0.00  0.00    +0.000 A 
ENDBRANCH  13  16
BRANCH  14  22
ATOM     22  C   UNL     1      -1.818  12.625  19.871  0.00  0.00    +0.000 C 
ATOM     23  F   UNL     1      -3.176  12.622  19.958  0.00  0.00    +0.000 F 
ATOM     24  F   UNL     1      -1.477  13.926  20.086  0.00  0.00    +0.000 F 
ATOM     25  F   UNL     1      -1.543  12.390  18.552  0.00  0.00    +0.000 F 
ENDBRANCH  14  22
ENDBRANCH   6  10
BRANCH   1  28
ATOM     26  C   UNL     1       6.184   4.476  15.704  0.00  0.00    +0.000 C 
ATOM     27  C   UNL     1       5.979   5.869  16.327  0.00  0.00    +0.000 C 
ATOM     28  N   UNL     1       4.848   5.295  16.983  0.00  0.00    +0.000 N 
ATOM     29  C   UNL     1       4.686   4.279  15.993  0.00  0.00    +0.000 C 
BRANCH  26  31
ATOM     30  O   UNL     1       7.360   5.210  13.669  0.00  0.00    +0.000 OA
ATOM     31  C   UNL     1       6.670   4.381  14.255  0.00  0.00    +0.000 C 
BRANCH  31  32
ATOM     32  O   UNL     1       6.281   3.236  13.619  0.00  0.00    +0.000 OA
ATOM     33  H   UNL     1       5.653   2.695  14.122  0.00  0.00    +0.000 HD
ENDBRANCH  31  32
ENDBRANCH  26  31
ENDBRANCH   1  28
TORSDOF 6
ENDMDL
MODEL 4
REMARK VINA RESULT:      -8.1      0.616      1.373
REMARK  Name = 
REMARK  6 active torsions:
REMARK  status: ('A' for Active; 'I' for Inactive)
REMARK    1  A    between atoms: C_2  and  O_3
REMARK    2  A    between atoms: C_2  and  C_4
REMARK    3  A    between atoms: N_6  and  C_7
REMARK    4  A    between atoms: C_12  and  C_13
REMARK    5  A    between atoms: C_16  and  C_17
REMARK    6  A    between atoms: C_23  and  C_24
REMARK                            x       y       z     vdW  Elec       q    Type
REMARK                         _______ _______ _______ _____ _____    ______ ____
ROOT
ATOM      1  C   UNL     1       3.497   5.651  18.707  0.00  0.00    +0.000 A 
ATOM      2  C   UNL     1       2.990   4.941  19.813  0.00  0.00    +0.000 A 
ATOM      3  C   UNL     1       2.104   5.515  20.739  0.00  0.00    +0.000 A 
ATOM      4  C   UNL     1       1.731   6.827  20.470  0.00  0.00    +0.000 A 
ATOM      5  O   UNL     1       0.907   7.626  21.213  0.00  0.00    +0.000 OA
ATOM      6  C   UNL     1       0.888   8.804  20.514  0.00  0.00    +0.000 A 
ATOM      7  N   UNL     1       1.604   8.796  19.399  0.00  0.00    +0.000 NA
ATOM      8  C   UNL     1       2.165   7.551  19.382  0.00  0.00    +0.000 A 
ATOM      9  C   UNL     1       3.064   6.968  18.478  0.00  0.00    +0.000 A 
ENDROOT
BRANCH   6  10
ATOM     10  C   UNL     1       0.173   9.932  21.104  0.00  0.00    +0.000 A 
ATOM     11  C   UNL     1      -0.032   9.939  22.479  0.00  0.00    +0.000 A 
ATOM     12  C   UNL     1      -0.845  10.905  23.071  0.00  0.00    +0.000 A 
ATOM     13  C   UNL     1      -1.487  11.930  22.332  0.00  0.00    +0.000 A 
ATOM     14  C   UNL     1      -1.216  11.982  20.941  0.00  0.00    +0.000 A 
ATOM     15  C   UNL     1      -0.388  10.975  20.355  0.00  0.00    +0.000 A 
BRANCH  13  16
ATOM     16  C   UNL     1      -2.408  12.830  23.081  0.00  0.00    +0.000 A 
ATOM     17  C   UNL     1      -1.928  13.999  23.705  0.00  0.00    +0.000 A 
ATOM     18  C   UNL     1      -2.766  14.837  24.449  0.00  0.00    +0.000 A 
ATOM     19  C   UNL     1      -4.124  14.561  24.535  0.00  0.00    +0.000 A 
ATOM     20  C   UNL     1      -4.630  13.424  23.926  0.00  0.00    +0.000 A 
ATOM     21  C   UNL     1      -3.770  12.542  23.267  0.00  0.00    +0.000 A 
ENDBRANCH  13  16
BRANCH  14  22
ATOM     22  C   UNL     1      -1.759  13.006  19.957  0.00  0.00    +0.000 C 
ATOM     23  F   UNL     1      -1.372  12.907  18.657  0.00  0.00    +0.000 F 
ATOM     24  F   UNL     1      -3.120  12.996  19.898  0.00  0.00    +0.000 F 
ATOM     25  F   UNL     1      -1.422  14.276  20.337  0.00  0.00    +0.000 F 
ENDBRANCH  14  22
ENDBRANCH   6  10
BRANCH   1  28
ATOM     26  C   UNL     1       5.673   4.032  16.621  0.00  0.00    +0.000 C 
ATOM     27  C   UNL     1       5.817   5.109  17.713  0.00  0.00    +0.000 C 
ATOM     28  N   UNL     1       4.394   5.037  17.824  0.00  0.00    +0.000 N 
ATOM     29  C   UNL     1       4.231   4.553  16.491  0.00  0.00    +0.000 C 
BRANCH  26  31
ATOM     30  O   UNL     1       6.307   3.720  14.263  0.00  0.00    +0.000 OA
ATOM     31  C   UNL     1       6.589   4.097  15.397  0.00  0.00    +0.000 C 
BRANCH  31  32
ATOM     32  O   UNL     1       7.812   4.651  15.653  0.00  0.00    +0.000 OA
ATOM     33  H   UNL     1       8.105   5.291  14.985  0.00  0.00    +0.000 HD
ENDBRANCH  31  32
ENDBRANCH  26  31
ENDBRANCH   1  28
TORSDOF 6
ENDMDL
MODEL 5
REMARK VINA RESULT:      -8.1      4.311     11.306
REMARK  Name = 
REMARK  6 active torsions:
REMARK  status: ('A' for Active; 'I' for Inactive)
REMARK    1  A    between atoms: C_2  and  O_3
REMARK    2  A    between atoms: C_2  and  C_4
REMARK    3  A    between atoms: N_6  and  C_7
REMARK    4  A    between atoms: C_12  and  C_13
REMARK    5  A    between atoms: C_16  and  C_17
REMARK    6  A    between atoms: C_23  and  C_24
REMARK                            x       y       z     vdW  Elec       q    Type
REMARK                         _______ _______ _______ _____ _____    ______ ____
ROOT
ATOM      1  C   UNL     1      -2.009  12.377  21.270  0.00  0.00    +0.000 A 
ATOM      2  C   UNL     1      -2.374  12.436  19.911  0.00  0.00    +0.000 A 
ATOM      3  C   UNL     1      -1.752  11.653  18.926  0.00  0.00    +0.000 A 
ATOM      4  C   UNL     1      -0.768  10.786  19.389  0.00  0.00    +0.000 A 
ATOM      5  O   UNL     1       0.006   9.937  18.649  0.00  0.00    +0.000 OA
ATOM      6  C   UNL     1       0.804   9.333  19.585  0.00  0.00    +0.000 A 
ATOM      7  N   UNL     1       0.576   9.717  20.833  0.00  0.00    +0.000 NA
ATOM      8  C   UNL     1      -0.402  10.661  20.710  0.00  0.00    +0.000 A 
ATOM      9  C   UNL     1      -1.022  11.464  21.679  0.00  0.00    +0.000 A 
ENDROOT
BRANCH   6  10
ATOM     10  C   UNL     1       1.846   8.429  19.109  0.00  0.00    +0.000 A 
ATOM     11  C   UNL     1       2.567   8.788  17.976  0.00  0.00    +0.000 A 
ATOM     12  C   UNL     1       3.456   7.892  17.386  0.00  0.00    +0.000 A 
ATOM     13  C   UNL     1       3.694   6.592  17.897  0.00  0.00    +0.000 A 
ATOM     14  C   UNL     1       3.027   6.246  19.101  0.00  0.00    +0.000 A 
ATOM     15  C   UNL     1       2.112   7.177  19.682  0.00  0.00    +0.000 A 
BRANCH  13  16
ATOM     16  C   UNL     1       4.592   5.705  17.107  0.00  0.00    +0.000 A 
ATOM     17  C   UNL     1       5.878   6.135  16.722  0.00  0.00    +0.000 A 
ATOM     18  C   UNL     1       6.723   5.337  15.944  0.00  0.00    +0.000 A 
ATOM     19  C   UNL     1       6.326   4.056  15.581  0.00  0.00    +0.000 A 
ATOM     20  C   UNL     1       5.072   3.599  15.950  0.00  0.00    +0.000 A 
ATOM     21  C   UNL     1       4.197   4.439  16.645  0.00  0.00    +0.000 A 
ENDBRANCH  13  16
BRANCH  14  22
ATOM     22  C   UNL     1       3.153   4.930  19.851  0.00  0.00    +0.000 C 
ATOM     23  F   UNL     1       4.393   4.386  19.980  0.00  0.00    +0.000 F 
ATOM     24  F   UNL     1       2.698   5.019  21.132  0.00  0.00    +0.000 F 
ATOM     25  F   UNL     1       2.393   3.957  19.263  0.00  0.00    +0.000 F 
ENDBRANCH  14  22
ENDBRANCH   6  10
BRANCH   1  28
ATOM     26  C   UNL     1      -3.691  14.362  23.493  0.00  0.00    +0.000 C 
ATOM     27  C   UNL     1      -2.598  14.604  22.436  0.00  0.00    +0.000 C 
ATOM     28  N   UNL     1      -2.649  13.194  22.211  0.00  0.00    +0.000 N 
ATOM     29  C   UNL     1      -3.153  12.920  23.518  0.00  0.00    +0.000 C 
BRANCH  26  31
ATOM     30  O   UNL     1      -2.764  15.165  25.628  0.00  0.00    +0.000 OA
ATOM     31  C   UNL     1      -3.659  15.179  24.787  0.00  0.00    +0.000 C 
BRANCH  31  32
ATOM     32  O   UNL     1      -4.744  15.991  24.952  0.00  0.00    +0.000 OA
ATOM     33  H   UNL     1      -5.535  15.536  25.283  0.00  0.00    +0.000 HD
ENDBRANCH  31  32
ENDBRANCH  26  31
ENDBRANCH   1  28
TORSDOF 6
ENDMDL
MODEL 6
REMARK VINA RESULT:      -8.0      2.316      2.835
REMARK  Name = 
REMARK  6 active torsions:
REMARK  status: ('A' for Active; 'I' for Inactive)
REMARK    1  A    between atoms: C_2  and  O_3
REMARK    2  A    between atoms: C_2  and  C_4
REMARK    3  A    between atoms: N_6  and  C_7
REMARK    4  A    between atoms: C_12  and  C_13
REMARK    5  A    between atoms: C_16  and  C_17
REMARK    6  A    between atoms: C_23  and  C_24
REMARK                            x       y       z     vdW  Elec       q    Type
REMARK                         _______ _______ _______ _____ _____    ______ ____
ROOT
ATOM      1  C   UNL     1       2.492   6.144  19.251  0.00  0.00    +0.000 A 
ATOM      2  C   UNL     1       2.627   7.015  18.153  0.00  0.00    +0.000 A 
ATOM      3  C   UNL     1       2.178   8.345  18.182  0.00  0.00    +0.000 A 
ATOM      4  C   UNL     1       1.619   8.757  19.386  0.00  0.00    +0.000 A 
ATOM      5  O   UNL     1       1.084   9.981  19.679  0.00  0.00    +0.000 OA
ATOM      6  C   UNL     1       0.673   9.849  20.979  0.00  0.00    +0.000 A 
ATOM      7  N   UNL     1       0.925   8.665  21.519  0.00  0.00    +0.000 NA
ATOM      8  C   UNL     1       1.500   7.960  20.502  0.00  0.00    +0.000 A 
ATOM      9  C   UNL     1       1.939   6.628  20.449  0.00  0.00    +0.000 A 
ENDROOT
BRANCH   6  10
ATOM     10  C   UNL     1      -0.056  10.963  21.578  0.00  0.00    +0.000 A 
ATOM     11  C   UNL     1      -0.861  10.708  22.682  0.00  0.00    +0.000 A 
ATOM     12  C   UNL     1      -1.702  11.697  23.191  0.00  0.00    +0.000 A 
ATOM     13  C   UNL     1      -1.779  13.001  22.642  0.00  0.00    +0.000 A 
ATOM     14  C   UNL     1      -0.900  13.297  21.569  0.00  0.00    +0.000 A 
ATOM     15  C   UNL     1      -0.055  12.264  21.057  0.00  0.00    +0.000 A 
BRANCH  13  16
ATOM     16  C   UNL     1      -2.795  13.922  23.222  0.00  0.00    +0.000 A 
ATOM     17  C   UNL     1      -4.081  14.031  22.655  0.00  0.00    +0.000 A 
ATOM     18  C   UNL     1      -5.038  14.920  23.157  0.00  0.00    +0.000 A 
ATOM     19  C   UNL     1      -4.753  15.682  24.283  0.00  0.00    +0.000 A 
ATOM     20  C   UNL     1      -3.502  15.594  24.869  0.00  0.00    +0.000 A 
ATOM     21  C   UNL     1      -2.520  14.775  24.304  0.00  0.00    +0.000 A 
ENDBRANCH  13  16
BRANCH  14  22
ATOM     22  C   UNL     1      -0.778  14.629  20.847  0.00  0.00    +0.000 C 
ATOM     23  F   UNL     1      -1.892  15.135  20.253  0.00  0.00    +0.000 F 
ATOM     24  F   UNL     1      -0.363  15.629  21.674  0.00  0.00    +0.000 F 
ATOM     25  F   UNL     1       0.161  14.565  19.855  0.00  0.00    +0.000 F 
ENDBRANCH  14  22
ENDBRANCH   6  10
BRANCH   1  28
ATOM     26  C   UNL     1       3.502   2.891  18.926  0.00  0.00    +0.000 C 
ATOM     27  C   UNL     1       2.647   3.664  19.948  0.00  0.00    +0.000 C 
ATOM     28  N   UNL     1       2.940   4.820  19.163  0.00  0.00    +0.000 N 
ATOM     29  C   UNL     1       4.143   4.259  18.636  0.00  0.00    +0.000 C 
BRANCH  26  31
ATOM     30  O   UNL     1       5.070   1.760  20.451  0.00  0.00    +0.000 OA
ATOM     31  C   UNL     1       4.396   1.753  19.424  0.00  0.00    +0.000 C 
BRANCH  31  32
ATOM     32  O   UNL     1       4.384   0.651  18.617  0.00  0.00    +0.000 OA
ATOM     33  H   UNL     1       5.219   0.492  18.149  0.00  0.00    +0.000 HD
ENDBRANCH  31  32
ENDBRANCH  26  31
ENDBRANCH   1  28
TORSDOF 6
ENDMDL
MODEL 7
REMARK VINA RESULT:      -7.9      2.352      2.935
REMARK  Name = 
REMARK  6 active torsions:
REMARK  status: ('A' for Active; 'I' for Inactive)
REMARK    1  A    between atoms: C_2  and  O_3
REMARK    2  A    between atoms: C_2  and  C_4
REMARK    3  A    between atoms: N_6  and  C_7
REMARK    4  A    between atoms: C_12  and  C_13
REMARK    5  A    between atoms: C_16  and  C_17
REMARK    6  A    between atoms: C_23  and  C_24
REMARK                            x       y       z     vdW  Elec       q    Type
REMARK                         _______ _______ _______ _____ _____    ______ ____
ROOT
ATOM      1  C   UNL     1       2.426   6.163  19.345  0.00  0.00    +0.000 A 
ATOM      2  C   UNL     1       2.537   7.016  18.230  0.00  0.00    +0.000 A 
ATOM      3  C   UNL     1       2.106   8.352  18.253  0.00  0.00    +0.000 A 
ATOM      4  C   UNL     1       1.590   8.789  19.468  0.00  0.00    +0.000 A 
ATOM      5  O   UNL     1       1.080  10.024  19.759  0.00  0.00    +0.000 OA
ATOM      6  C   UNL     1       0.708   9.916  21.073  0.00  0.00    +0.000 A 
ATOM      7  N   UNL     1       0.962   8.737  21.623  0.00  0.00    +0.000 NA
ATOM      8  C   UNL     1       1.496   8.009  20.599  0.00  0.00    +0.000 A 
ATOM      9  C   UNL     1       1.916   6.671  20.552  0.00  0.00    +0.000 A 
ENDROOT
BRANCH   6  10
ATOM     10  C   UNL     1       0.012  11.047  21.677  0.00  0.00    +0.000 A 
ATOM     11  C   UNL     1      -0.873  10.799  22.721  0.00  0.00    +0.000 A 
ATOM     12  C   UNL     1      -1.682  11.817  23.223  0.00  0.00    +0.000 A 
ATOM     13  C   UNL     1      -1.647  13.145  22.730  0.00  0.00    +0.000 A 
ATOM     14  C   UNL     1      -0.687  13.428  21.724  0.00  0.00    +0.000 A 
ATOM     15  C   UNL     1       0.124  12.366  21.216  0.00  0.00    +0.000 A 
BRANCH  13  16
ATOM     16  C   UNL     1      -2.639  14.104  23.290  0.00  0.00    +0.000 A 
ATOM     17  C   UNL     1      -2.406  14.750  24.520  0.00  0.00    +0.000 A 
ATOM     18  C   UNL     1      -3.342  15.622  25.086  0.00  0.00    +0.000 A 
ATOM     19  C   UNL     1      -4.514  15.920  24.403  0.00  0.00    +0.000 A 
ATOM     20  C   UNL     1      -4.771  15.308  23.187  0.00  0.00    +0.000 A 
ATOM     21  C   UNL     1      -3.875  14.366  22.675  0.00  0.00    +0.000 A 
ENDBRANCH  13  16
BRANCH  14  22
ATOM     22  C   UNL     1      -0.442  14.779  21.071  0.00  0.00    +0.000 C 
ATOM     23  F   UNL     1      -0.590  15.892  21.839  0.00  0.00    +0.000 F 
ATOM     24  F   UNL     1       0.820  14.890  20.570  0.00  0.00    +0.000 F 
ATOM     25  F   UNL     1      -1.275  14.966  20.003  0.00  0.00    +0.000 F 
ENDBRANCH  14  22
ENDBRANCH   6  10
BRANCH   1  28
ATOM     26  C   UNL     1       3.371   2.888  19.050  0.00  0.00    +0.000 C 
ATOM     27  C   UNL     1       2.678   3.721  20.144  0.00  0.00    +0.000 C 
ATOM     28  N   UNL     1       2.854   4.832  19.263  0.00  0.00    +0.000 N 
ATOM     29  C   UNL     1       3.964   4.233  18.595  0.00  0.00    +0.000 C 
BRANCH  26  31
ATOM     30  O   UNL     1       5.013   1.750  20.489  0.00  0.00    +0.000 OA
ATOM     31  C   UNL     1       4.328   1.770  19.470  0.00  0.00    +0.000 C 
BRANCH  31  32
ATOM     32  O   UNL     1       4.363   0.718  18.598  0.00  0.00    +0.000 OA
ATOM     33  H   UNL     1       4.087  -0.128  18.985  0.00  0.00    +0.000 HD
ENDBRANCH  31  32
ENDBRANCH  26  31
ENDBRANCH   1  28
TORSDOF 6
ENDMDL
MODEL 8
REMARK VINA RESULT:      -7.9      2.402      2.877
REMARK  Name = 
REMARK  6 active torsions:
REMARK  status: ('A' for Active; 'I' for Inactive)
REMARK    1  A    between atoms: C_2  and  O_3
REMARK    2  A    between atoms: C_2  and  C_4
REMARK    3  A    between atoms: N_6  and  C_7
REMARK    4  A    between atoms: C_12  and  C_13
REMARK    5  A    between atoms: C_16  and  C_17
REMARK    6  A    between atoms: C_23  and  C_24
REMARK                            x       y       z     vdW  Elec       q    Type
REMARK                         _______ _______ _______ _____ _____    ______ ____
ROOT
ATOM      1  C   UNL     1       2.923   5.372  19.621  0.00  0.00    +0.000 A 
ATOM      2  C   UNL     1       3.101   6.161  18.467  0.00  0.00    +0.000 A 
ATOM      3  C   UNL     1       2.580   7.459  18.351  0.00  0.00    +0.000 A 
ATOM      4  C   UNL     1       1.901   7.930  19.469  0.00  0.00    +0.000 A 
ATOM      5  O   UNL     1       1.279   9.138  19.617  0.00  0.00    +0.000 OA
ATOM      6  C   UNL     1       0.769   9.083  20.887  0.00  0.00    +0.000 A 
ATOM      7  N   UNL     1       1.039   7.963  21.542  0.00  0.00    +0.000 NA
ATOM      8  C   UNL     1       1.734   7.216  20.635  0.00  0.00    +0.000 A 
ATOM      9  C   UNL     1       2.247   5.913  20.727  0.00  0.00    +0.000 A 
ENDROOT
BRANCH   6  10
ATOM     10  C   UNL     1      -0.067  10.194  21.333  0.00  0.00    +0.000 A 
ATOM     11  C   UNL     1      -0.444  10.243  22.670  0.00  0.00    +0.000 A 
ATOM     12  C   UNL     1      -1.370  11.187  23.113  0.00  0.00    +0.000 A 
ATOM     13  C   UNL     1      -1.962  12.147  22.255  0.00  0.00    +0.000 A 
ATOM     14  C   UNL     1      -1.521  12.159  20.907  0.00  0.00    +0.000 A 
ATOM     15  C   UNL     1      -0.579  11.176  20.474  0.00  0.00    +0.000 A 
BRANCH  13  16
ATOM     16  C   UNL     1      -3.012  13.025  22.843  0.00  0.00    +0.000 A 
ATOM     17  C   UNL     1      -4.370  12.852  22.510  0.00  0.00    +0.000 A 
ATOM     18  C   UNL     1      -5.368  13.691  23.017  0.00  0.00    +0.000 A 
ATOM     19  C   UNL     1      -5.039  14.692  23.923  0.00  0.00    +0.000 A 
ATOM     20  C   UNL     1      -3.714  14.884  24.277  0.00  0.00    +0.000 A 
ATOM     21  C   UNL     1      -2.713  14.103  23.692  0.00  0.00    +0.000 A 
ENDBRANCH  13  16
BRANCH  14  22
ATOM     22  C   UNL     1      -1.985  13.114  19.819  0.00  0.00    +0.000 C 
ATOM     23  F   UNL     1      -2.077  14.435  20.129  0.00  0.00    +0.000 F 
ATOM     24  F   UNL     1      -1.171  13.089  18.727  0.00  0.00    +0.000 F 
ATOM     25  F   UNL     1      -3.224  12.766  19.357  0.00  0.00    +0.000 F 
ENDBRANCH  14  22
ENDBRANCH   6  10
BRANCH   1  28
ATOM     26  C   UNL     1       4.135   2.172  19.644  0.00  0.00    +0.000 C 
ATOM     27  C   UNL     1       3.124   2.954  20.502  0.00  0.00    +0.000 C 
ATOM     28  N   UNL     1       3.448   4.075  19.678  0.00  0.00    +0.000 N 
ATOM     29  C   UNL     1       4.733   3.556  19.335  0.00  0.00    +0.000 C 
BRANCH  26  31
ATOM     30  O   UNL     1       5.504   1.205  21.447  0.00  0.00    +0.000 OA
ATOM     31  C   UNL     1       5.022   1.124  20.320  0.00  0.00    +0.000 C 
BRANCH  31  32
ATOM     32  O   UNL     1       5.244   0.014  19.556  0.00  0.00    +0.000 OA
ATOM     33  H   UNL     1       5.989   0.098  18.940  0.00  0.00    +0.000 HD
ENDBRANCH  31  32
ENDBRANCH  26  31
ENDBRANCH   1  28
TORSDOF 6
ENDMDL
MODEL 9
REMARK VINA RESULT:      -7.8      4.411     11.321
REMARK  Name = 
REMARK  6 active torsions:
REMARK  status: ('A' for Active; 'I' for Inactive)
REMARK    1  A    between atoms: C_2  and  O_3
REMARK    2  A    between atoms: C_2  and  C_4
REMARK    3  A    between atoms: N_6  and  C_7
REMARK    4  A    between atoms: C_12  and  C_13
REMARK    5  A    between atoms: C_16  and  C_17
REMARK    6  A    between atoms: C_23  and  C_24
REMARK                            x       y       z     vdW  Elec       q    Type
REMARK                         _______ _______ _______ _____ _____    ______ ____
ROOT
ATOM      1  C   UNL     1      -2.157  12.451  21.090  0.00  0.00    +0.000 A 
ATOM      2  C   UNL     1      -2.574  12.396  19.746  0.00  0.00    +0.000 A 
ATOM      3  C   UNL     1      -1.951  11.573  18.794  0.00  0.00    +0.000 A 
ATOM      4  C   UNL     1      -0.911  10.788  19.276  0.00  0.00    +0.000 A 
ATOM      5  O   UNL     1      -0.124   9.923  18.567  0.00  0.00    +0.000 OA
ATOM      6  C   UNL     1       0.736   9.426  19.510  0.00  0.00    +0.000 A 
ATOM      7  N   UNL     1       0.536   9.886  20.737  0.00  0.00    +0.000 NA
ATOM      8  C   UNL     1      -0.490  10.773  20.587  0.00  0.00    +0.000 A 
ATOM      9  C   UNL     1      -1.113  11.615  21.522  0.00  0.00    +0.000 A 
ENDROOT
BRANCH   6  10
ATOM     10  C   UNL     1       1.803   8.538  19.057  0.00  0.00    +0.000 A 
ATOM     11  C   UNL     1       2.534   8.903  17.932  0.00  0.00    +0.000 A 
ATOM     12  C   UNL     1       3.449   8.019  17.362  0.00  0.00    +0.000 A 
ATOM     13  C   UNL     1       3.704   6.728  17.887  0.00  0.00    +0.000 A 
ATOM     14  C   UNL     1       3.026   6.379  19.083  0.00  0.00    +0.000 A 
ATOM     15  C   UNL     1       2.084   7.296  19.643  0.00  0.00    +0.000 A 
BRANCH  13  16
ATOM     16  C   UNL     1       4.631   5.854  17.117  0.00  0.00    +0.000 A 
ATOM     17  C   UNL     1       4.202   4.609  16.615  0.00  0.00    +0.000 A 
ATOM     18  C   UNL     1       5.067   3.751  15.926  0.00  0.00    +0.000 A 
ATOM     19  C   UNL     1       6.373   4.147  15.665  0.00  0.00    +0.000 A 
ATOM     20  C   UNL     1       6.824   5.368  16.137  0.00  0.00    +0.000 A 
ATOM     21  C   UNL     1       5.982   6.175  16.907  0.00  0.00    +0.000 A 
ENDBRANCH  13  16
BRANCH  14  22
ATOM     22  C   UNL     1       3.165   5.071  19.846  0.00  0.00    +0.000 C 
ATOM     23  F   UNL     1       2.588   3.960  19.314  0.00  0.00    +0.000 F 
ATOM     24  F   UNL     1       4.466   4.712  20.025  0.00  0.00    +0.000 F 
ATOM     25  F   UNL     1       2.641   5.180  21.105  0.00  0.00    +0.000 F 
ENDBRANCH  14  22
ENDBRANCH   6  10
BRANCH   1  28
ATOM     26  C   UNL     1      -3.632  14.500  23.399  0.00  0.00    +0.000 C 
ATOM     27  C   UNL     1      -3.998  13.148  22.759  0.00  0.00    +0.000 C 
ATOM     28  N   UNL     1      -2.801  13.303  21.996  0.00  0.00    +0.000 N 
ATOM     29  C   UNL     1      -2.808  14.725  22.119  0.00  0.00    +0.000 C 
BRANCH  26  31
ATOM     30  O   UNL     1      -5.676  15.809  22.986  0.00  0.00    +0.000 OA
ATOM     31  C   UNL     1      -4.755  15.487  23.730  0.00  0.00    +0.000 C 
BRANCH  31  32
ATOM     32  O   UNL     1      -4.677  16.005  24.992  0.00  0.00    +0.000 OA
ATOM     33  H   UNL     1      -3.787  15.984  25.376  0.00  0.00    +0.000 HD
ENDBRANCH  31  32
ENDBRANCH  26  31
ENDBRANCH   1  28
TORSDOF 6
ENDMDL
