MODEL 1
REMARK VINA RESULT:      -8.4      0.000      0.000
REMARK  Name = 
REMARK  14 active torsions:
REMARK  status: ('A' for Active; 'I' for Inactive)
REMARK    1  A    between atoms: C_1  and  C_2
REMARK    2  A    between atoms: C_2  and  O_3
REMARK    3  A    between atoms: O_3  and  C_4
REMARK    4  A    between atoms: C_4  and  C_6
REMARK    5  A    between atoms: C_6  and  C_7
REMARK    6  A    between atoms: C_7  and  C_8
REMARK    7  A    between atoms: C_10  and  C_11
REMARK    8  A    between atoms: C_14  and  N_15
REMARK    9  A    between atoms: N_15  and  C_16
REMARK   10  A    between atoms: N_15  and  C_17
REMARK   11  A    between atoms: N_20  and  C_21
REMARK   12  A    between atoms: C_24  and  N_25
REMARK   13  A    between atoms: N_26  and  C_27
REMARK   14  A    between atoms: C_31  and  O_32
REMARK                            x       y       z     vdW  Elec       q    Type
REMARK                         _______ _______ _______ _____ _____    ______ ____
ROOT
ATOM      1  C   UNL     1       3.717   3.523  19.116  0.00  0.00    +0.000 C 
ATOM      2  C   UNL     1       5.053   4.532  18.745  0.00  0.00    +0.000 C 
ATOM      3  N   UNL     1       3.747   4.932  19.036  0.00  0.00    +0.000 N 
ENDROOT
BRANCH   2   4
ATOM      4  C   UNL     1       5.551   4.579  17.319  0.00  0.00    +0.000 A 
ATOM      5  C   UNL     1       6.876   4.295  16.977  0.00  0.00    +0.000 A 
ATOM      6  C   UNL     1       7.323   4.302  15.649  0.00  0.00    +0.000 A 
ATOM      7  C   UNL     1       6.476   4.600  14.571  0.00  0.00    +0.000 A 
ATOM      8  C   UNL     1       5.157   4.915  14.920  0.00  0.00    +0.000 A 
ATOM      9  C   UNL     1       4.702   4.906  16.254  0.00  0.00    +0.000 A 
BRANCH   7  10
ATOM     10  N   UNL     1       6.953   4.623  13.274  0.00  0.00    +0.000 N 
ATOM     11  C   UNL     1       8.124   5.423  12.914  0.00  0.00    +0.000 C 
ATOM     12  C   UNL     1       6.567   3.624  12.284  0.00  0.00    +0.000 C 
ENDBRANCH   7  10
ENDBRANCH   2   4
BRANCH   3  13
ATOM     13  C   UNL     1       3.064   6.071  19.401  0.00  0.00    +0.000 A 
ATOM     14  C   UNL     1       2.988   7.169  18.531  0.00  0.00    +0.000 A 
ATOM     15  C   UNL     1       2.142   8.262  18.790  0.00  0.00    +0.000 A 
ATOM     16  C   UNL     1       1.374   8.325  19.956  0.00  0.00    +0.000 A 
ATOM     17  C   UNL     1       1.512   7.270  20.869  0.00  0.00    +0.000 A 
ATOM     18  C   UNL     1       2.332   6.157  20.588  0.00  0.00    +0.000 A 
BRANCH  16  19
ATOM     19  N   UNL     1       0.537   9.454  20.145  0.00  0.00    +0.000 NA
ATOM     20  N   UNL     1       0.335   9.706  21.353  0.00  0.00    +0.000 NA
BRANCH  20  21
ATOM     21  C   UNL     1      -0.592  10.759  21.557  0.00  0.00    +0.000 A 
ATOM     22  C   UNL     1      -1.082  10.970  22.855  0.00  0.00    +0.000 A 
ATOM     23  C   UNL     1      -2.077  11.922  23.111  0.00  0.00    +0.000 A 
ATOM     24  C   UNL     1      -2.600  12.681  22.065  0.00  0.00    +0.000 A 
ATOM     25  C   UNL     1      -2.118  12.483  20.778  0.00  0.00    +0.000 A 
ATOM     26  C   UNL     1      -1.126  11.536  20.519  0.00  0.00    +0.000 A 
BRANCH  25  27
ATOM     27  O   UNL     1      -2.616  13.199  19.724  0.00  0.00    +0.000 OA
ATOM     28  H   UNL     1      -3.079  13.980  20.066  0.00  0.00    +0.000 HD
ENDBRANCH  25  27
ENDBRANCH  20  21
ENDBRANCH  16  19
ENDBRANCH   3  13
BRANCH   1  29
ATOM     29  C   UNL     1       3.834   2.834  20.430  0.00  0.00    +0.000 C 
ATOM     30  C   UNL     1       2.687   3.037  21.386  0.00  0.00    +0.000 C 
ATOM     31  O   UNL     1       4.844   2.208  20.744  0.00  0.00    +0.000 OA
ENDBRANCH   1  29
BRANCH   1  32
ATOM     32  C   UNL     1       3.202   2.749  17.952  0.00  0.00    +0.000 C 
ATOM     33  O   UNL     1       3.748   1.715  17.589  0.00  0.00    +0.000 OA
BRANCH  32  34
ATOM     34  O   UNL     1       2.122   3.326  17.359  0.00  0.00    +0.000 OA
BRANCH  34  36
ATOM     35  C   UNL     1       0.530   2.136  18.737  0.00  0.00    +0.000 C 
ATOM     36  C   UNL     1       0.967   3.481  18.194  0.00  0.00    +0.000 C 
ENDBRANCH  34  36
ENDBRANCH  32  34
ENDBRANCH   1  32
TORSDOF 10
ENDMDL
MODEL 2
REMARK VINA RESULT:      -8.3      3.128     11.094
REMARK  Name = 
REMARK  14 active torsions:
REMARK  status: ('A' for Active; 'I' for Inactive)
REMARK    1  A    between atoms: C_1  and  C_2
REMARK    2  A    between atoms: C_2  and  O_3
REMARK    3  A    between atoms: O_3  and  C_4
REMARK    4  A    between atoms: C_4  and  C_6
REMARK    5  A    between atoms: C_6  and  C_7
REMARK    6  A    between atoms: C_7  and  C_8
REMARK    7  A    between atoms: C_10  and  C_11
REMARK    8  A    between atoms: C_14  and  N_15
REMARK    9  A    between atoms: N_15  and  C_16
REMARK   10  A    between atoms: N_15  and  C_17
REMARK   11  A    between atoms: N_20  and  C_21
REMARK   12  A    between atoms: C_24  and  N_25
REMARK   13  A    between atoms: N_26  and  C_27
REMARK   14  A    between atoms: C_31  and  O_32
REMARK                            x       y       z     vdW  Elec       q    Type
REMARK                         _______ _______ _______ _____ _____    ______ ____
ROOT
ATOM      1  C   UNL     1       0.839  12.752  19.228  0.00  0.00    +0.000 C 
ATOM      2  C   UNL     1       0.750  12.627  20.937  0.00  0.00    +0.000 C 
ATOM      3  N   UNL     1       0.777  11.580  20.013  0.00  0.00    +0.000 N 
ENDROOT
BRANCH   2   4
ATOM      4  C   UNL     1      -0.548  12.988  21.621  0.00  0.00    +0.000 A 
ATOM      5  C   UNL     1      -1.607  12.084  21.746  0.00  0.00    +0.000 A 
ATOM      6  C   UNL     1      -2.793  12.412  22.415  0.00  0.00    +0.000 A 
ATOM      7  C   UNL     1      -3.005  13.669  23.001  0.00  0.00    +0.000 A 
ATOM      8  C   UNL     1      -1.956  14.583  22.845  0.00  0.00    +0.000 A 
ATOM      9  C   UNL     1      -0.759  14.257  22.176  0.00  0.00    +0.000 A 
BRANCH   7  10
ATOM     10  N   UNL     1      -4.198  13.970  23.633  0.00  0.00    +0.000 N 
ATOM     11  C   UNL     1      -5.058  12.913  24.165  0.00  0.00    +0.000 C 
ATOM     12  C   UNL     1      -4.507  15.311  24.116  0.00  0.00    +0.000 C 
ENDBRANCH   7  10
ENDBRANCH   2   4
BRANCH   3  13
ATOM     13  C   UNL     1       1.008  10.222  19.985  0.00  0.00    +0.000 A 
ATOM     14  C   UNL     1       1.463   9.598  18.814  0.00  0.00    +0.000 A 
ATOM     15  C   UNL     1       1.891   8.259  18.807  0.00  0.00    +0.000 A 
ATOM     16  C   UNL     1       1.835   7.473  19.961  0.00  0.00    +0.000 A 
ATOM     17  C   UNL     1       1.300   8.067  21.113  0.00  0.00    +0.000 A 
ATOM     18  C   UNL     1       0.908   9.422  21.126  0.00  0.00    +0.000 A 
BRANCH  16  19
ATOM     19  N   UNL     1       2.292   6.133  19.881  0.00  0.00    +0.000 NA
ATOM     20  N   UNL     1       2.647   5.813  18.726  0.00  0.00    +0.000 NA
BRANCH  20  21
ATOM     21  C   UNL     1       2.995   4.445  18.606  0.00  0.00    +0.000 A 
ATOM     22  C   UNL     1       2.250   3.645  17.725  0.00  0.00    +0.000 A 
ATOM     23  C   UNL     1       2.470   2.264  17.633  0.00  0.00    +0.000 A 
ATOM     24  C   UNL     1       3.444   1.660  18.428  0.00  0.00    +0.000 A 
ATOM     25  C   UNL     1       4.189   2.444  19.299  0.00  0.00    +0.000 A 
ATOM     26  C   UNL     1       3.973   3.819  19.392  0.00  0.00    +0.000 A 
BRANCH  25  27
ATOM     27  O   UNL     1       5.143   1.886  20.103  0.00  0.00    +0.000 OA
ATOM     28  H   UNL     1       4.911   2.054  21.030  0.00  0.00    +0.000 HD
ENDBRANCH  25  27
ENDBRANCH  20  21
ENDBRANCH  16  19
ENDBRANCH   3  13
BRANCH   1  29
ATOM     29  C   UNL     1       2.145  13.267  18.734  0.00  0.00    +0.000 C 
ATOM     30  C   UNL     1       2.460  14.701  19.073  0.00  0.00    +0.000 C 
ATOM     31  O   UNL     1       2.881  12.586  18.023  0.00  0.00    +0.000 OA
ENDBRANCH   1  29
BRANCH   1  32
ATOM     32  C   UNL     1      -0.409  13.256  18.592  0.00  0.00    +0.000 C 
ATOM     33  O   UNL     1      -0.809  14.394  18.800  0.00  0.00    +0.000 OA
BRANCH  32  34
ATOM     34  O   UNL     1      -1.030  12.326  17.816  0.00  0.00    +0.000 OA
BRANCH  34  36
ATOM     35  C   UNL     1      -2.260  10.273  18.162  0.00  0.00    +0.000 C 
ATOM     36  C   UNL     1      -2.237  11.775  18.357  0.00  0.00    +0.000 C 
ENDBRANCH  34  36
ENDBRANCH  32  34
ENDBRANCH   1  32
TORSDOF 10
ENDMDL
MODEL 3
REMARK VINA RESULT:      -8.2      0.681      1.240
REMARK  Name = 
REMARK  14 active torsions:
REMARK  status: ('A' for Active; 'I' for Inactive)
REMARK    1  A    between atoms: C_1  and  C_2
REMARK    2  A    between atoms: C_2  and  O_3
REMARK    3  A    between atoms: O_3  and  C_4
REMARK    4  A    between atoms: C_4  and  C_6
REMARK    5  A    between atoms: C_6  and  C_7
REMARK    6  A    between atoms: C_7  and  C_8
REMARK    7  A    between atoms: C_10  and  C_11
REMARK    8  A    between atoms: C_14  and  N_15
REMARK    9  A    between atoms: N_15  and  C_16
REMARK   10  A    between atoms: N_15  and  C_17
REMARK   11  A    between atoms: N_20  and  C_21
REMARK   12  A    between atoms: C_24  and  N_25
REMARK   13  A    between atoms: N_26  and  C_27
REMARK   14  A    between atoms: C_31  and  O_32
REMARK                            x       y       z     vdW  Elec       q    Type
REMARK                         _______ _______ _______ _____ _____    ______ ____
ROOT
ATOM      1  C   UNL     1       3.510   3.895  19.062  0.00  0.00    +0.000 C 
ATOM      2  C   UNL     1       4.830   4.942  18.737  0.00  0.00    +0.000 C 
ATOM      3  N   UNL     1       3.485   5.294  18.874  0.00  0.00    +0.000 N 
ENDROOT
BRANCH   2   4
ATOM      4  C   UNL     1       5.459   4.907  17.363  0.00  0.00    +0.000 A 
ATOM      5  C   UNL     1       6.707   4.326  17.124  0.00  0.00    +0.000 A 
ATOM      6  C   UNL     1       7.269   4.263  15.842  0.00  0.00    +0.000 A 
ATOM      7  C   UNL     1       6.622   4.782  14.711  0.00  0.00    +0.000 A 
ATOM      8  C   UNL     1       5.386   5.392  14.959  0.00  0.00    +0.000 A 
ATOM      9  C   UNL     1       4.816   5.455  16.246  0.00  0.00    +0.000 A 
BRANCH   7  10
ATOM     10  N   UNL     1       7.214   4.725  13.462  0.00  0.00    +0.000 N 
ATOM     11  C   UNL     1       6.643   3.906  12.393  0.00  0.00    +0.000 C 
ATOM     12  C   UNL     1       8.200   5.705  13.022  0.00  0.00    +0.000 C 
ENDBRANCH   7  10
ENDBRANCH   2   4
BRANCH   3  13
ATOM     13  C   UNL     1       2.720   6.420  19.083  0.00  0.00    +0.000 A 
ATOM     14  C   UNL     1       2.100   6.644  20.322  0.00  0.00    +0.000 A 
ATOM     15  C   UNL     1       1.480   7.867  20.630  0.00  0.00    +0.000 A 
ATOM     16  C   UNL     1       1.410   8.902  19.693  0.00  0.00    +0.000 A 
ATOM     17  C   UNL     1       1.952   8.651  18.425  0.00  0.00    +0.000 A 
ATOM     18  C   UNL     1       2.609   7.437  18.132  0.00  0.00    +0.000 A 
BRANCH  16  19
ATOM     19  N   UNL     1       0.777  10.111  20.077  0.00  0.00    +0.000 NA
ATOM     20  N   UNL     1       0.008   9.963  21.052  0.00  0.00    +0.000 NA
BRANCH  20  21
ATOM     21  C   UNL     1      -0.721  11.135  21.373  0.00  0.00    +0.000 A 
ATOM     22  C   UNL     1      -0.957  11.421  22.727  0.00  0.00    +0.000 A 
ATOM     23  C   UNL     1      -1.757  12.504  23.112  0.00  0.00    +0.000 A 
ATOM     24  C   UNL     1      -2.336  13.323  22.144  0.00  0.00    +0.000 A 
ATOM     25  C   UNL     1      -2.104  13.051  20.802  0.00  0.00    +0.000 A 
ATOM     26  C   UNL     1      -1.307  11.973  20.414  0.00  0.00    +0.000 A 
BRANCH  25  27
ATOM     27  O   UNL     1      -2.666  13.822  19.822  0.00  0.00    +0.000 OA
ATOM     28  H   UNL     1      -3.522  14.154  20.136  0.00  0.00    +0.000 HD
ENDBRANCH  25  27
ENDBRANCH  20  21
ENDBRANCH  16  19
ENDBRANCH   3  13
BRANCH   1  29
ATOM     29  C   UNL     1       3.532   3.314  20.432  0.00  0.00    +0.000 C 
ATOM     30  C   UNL     1       4.471   2.153  20.641  0.00  0.00    +0.000 C 
ATOM     31  O   UNL     1       2.770   3.705  21.313  0.00  0.00    +0.000 OA
ENDBRANCH   1  29
BRANCH   1  32
ATOM     32  C   UNL     1       3.144   3.011  17.921  0.00  0.00    +0.000 C 
ATOM     33  O   UNL     1       3.841   2.052  17.615  0.00  0.00    +0.000 OA
BRANCH  32  34
ATOM     34  O   UNL     1       2.010   3.405  17.280  0.00  0.00    +0.000 OA
BRANCH  34  36
ATOM     35  C   UNL     1       0.581   2.159  18.782  0.00  0.00    +0.000 C 
ATOM     36  C   UNL     1       0.834   3.485  18.095  0.00  0.00    +0.000 C 
ENDBRANCH  34  36
ENDBRANCH  32  34
ENDBRANCH   1  32
TORSDOF 10
ENDMDL
MODEL 4
REMARK VINA RESULT:      -8.2      3.269     11.003
REMARK  Name = 
REMARK  14 active torsions:
REMARK  status: ('A' for Active; 'I' for Inactive)
REMARK    1  A    between atoms: C_1  and  C_2
REMARK    2  A    between atoms: C_2  and  O_3
REMARK    3  A    between atoms: O_3  and  C_4
REMARK    4  A    between atoms: C_4  and  C_6
REMARK    5  A    between atoms: C_6  and  C_7
REMARK    6  A    between atoms: C_7  and  C_8
REMARK    7  A    between atoms: C_10  and  C_11
REMARK    8  A    between atoms: C_14  and  N_15
REMARK    9  A    between atoms: N_15  and  C_16
REMARK   10  A    between atoms: N_15  and  C_17
REMARK   11  A    between atoms: N_20  and  C_21
REMARK   12  A    between atoms: C_24  and  N_25
REMARK   13  A    between atoms: N_26  and  C_27
REMARK   14  A    between atoms: C_31  and  O_32
REMARK                            x       y       z     vdW  Elec       q    Type
REMARK                         _______ _______ _______ _____ _____    ______ ____
ROOT
ATOM      1  C   UNL     1       0.928  12.815  19.057  0.00  0.00    +0.000 C 
ATOM      2  C   UNL     1       1.118  12.441  20.720  0.00  0.00    +0.000 C 
ATOM      3  N   UNL     1       0.997  11.541  19.660  0.00  0.00    +0.000 N 
ENDROOT
BRANCH   2   4
ATOM      4  C   UNL     1      -0.053  12.665  21.650  0.00  0.00    +0.000 A 
ATOM      5  C   UNL     1      -0.245  13.866  22.339  0.00  0.00    +0.000 A 
ATOM      6  C   UNL     1      -1.352  14.081  23.170  0.00  0.00    +0.000 A 
ATOM      7  C   UNL     1      -2.341  13.108  23.374  0.00  0.00    +0.000 A 
ATOM      8  C   UNL     1      -2.129  11.894  22.708  0.00  0.00    +0.000 A 
ATOM      9  C   UNL     1      -1.018  11.674  21.868  0.00  0.00    +0.000 A 
BRANCH   7  10
ATOM     10  N   UNL     1      -3.410  13.342  24.219  0.00  0.00    +0.000 N 
ATOM     11  C   UNL     1      -3.874  14.703  24.490  0.00  0.00    +0.000 C 
ATOM     12  C   UNL     1      -4.341  12.290  24.610  0.00  0.00    +0.000 C 
ENDBRANCH   7  10
ENDBRANCH   2   4
BRANCH   3  13
ATOM     13  C   UNL     1       1.222  10.208  19.395  0.00  0.00    +0.000 A 
ATOM     14  C   UNL     1       1.457   9.768  18.084  0.00  0.00    +0.000 A 
ATOM     15  C   UNL     1       1.881   8.457  17.806  0.00  0.00    +0.000 A 
ATOM     16  C   UNL     1       2.040   7.515  18.825  0.00  0.00    +0.000 A 
ATOM     17  C   UNL     1       1.724   7.925  20.128  0.00  0.00    +0.000 A 
ATOM     18  C   UNL     1       1.337   9.252  20.408  0.00  0.00    +0.000 A 
BRANCH  16  19
ATOM     19  N   UNL     1       2.479   6.214  18.471  0.00  0.00    +0.000 NA
ATOM     20  N   UNL     1       2.220   5.362  19.349  0.00  0.00    +0.000 NA
BRANCH  20  21
ATOM     21  C   UNL     1       2.755   4.082  19.062  0.00  0.00    +0.000 A 
ATOM     22  C   UNL     1       2.153   3.322  18.046  0.00  0.00    +0.000 A 
ATOM     23  C   UNL     1       2.563   2.010  17.780  0.00  0.00    +0.000 A 
ATOM     24  C   UNL     1       3.587   1.433  18.531  0.00  0.00    +0.000 A 
ATOM     25  C   UNL     1       4.192   2.179  19.534  0.00  0.00    +0.000 A 
ATOM     26  C   UNL     1       3.787   3.487  19.801  0.00  0.00    +0.000 A 
BRANCH  25  27
ATOM     27  O   UNL     1       5.191   1.644  20.300  0.00  0.00    +0.000 OA
ATOM     28  H   UNL     1       5.797   1.150  19.726  0.00  0.00    +0.000 HD
ENDBRANCH  25  27
ENDBRANCH  20  21
ENDBRANCH  16  19
ENDBRANCH   3  13
BRANCH   1  29
ATOM     29  C   UNL     1       2.135  13.430  18.442  0.00  0.00    +0.000 C 
ATOM     30  C   UNL     1       2.222  14.933  18.518  0.00  0.00    +0.000 C 
ATOM     31  O   UNL     1       2.967  12.758  17.837  0.00  0.00    +0.000 OA
ENDBRANCH   1  29
BRANCH   1  32
ATOM     32  C   UNL     1      -0.408  13.374  18.711  0.00  0.00    +0.000 C 
ATOM     33  O   UNL     1      -0.767  14.464  19.137  0.00  0.00    +0.000 OA
BRANCH  32  34
ATOM     34  O   UNL     1      -1.150  12.545  17.927  0.00  0.00    +0.000 OA
BRANCH  34  36
ATOM     35  C   UNL     1      -3.370  11.591  17.857  0.00  0.00    +0.000 C 
ATOM     36  C   UNL     1      -2.067  11.691  18.622  0.00  0.00    +0.000 C 
ENDBRANCH  34  36
ENDBRANCH  32  34
ENDBRANCH   1  32
TORSDOF 10
ENDMDL
MODEL 5
REMARK VINA RESULT:      -8.2      3.134     11.212
REMARK  Name = 
REMARK  14 active torsions:
REMARK  status: ('A' for Active; 'I' for Inactive)
REMARK    1  A    between atoms: C_1  and  C_2
REMARK    2  A    between atoms: C_2  and  O_3
REMARK    3  A    between atoms: O_3  and  C_4
REMARK    4  A    between atoms: C_4  and  C_6
REMARK    5  A    between atoms: C_6  and  C_7
REMARK    6  A    between atoms: C_7  and  C_8
REMARK    7  A    between atoms: C_10  and  C_11
REMARK    8  A    between atoms: C_14  and  N_15
REMARK    9  A    between atoms: N_15  and  C_16
REMARK   10  A    between atoms: N_15  and  C_17
REMARK   11  A    between atoms: N_20  and  C_21
REMARK   12  A    between atoms: C_24  and  N_25
REMARK   13  A    between atoms: N_26  and  C_27
REMARK   14  A    between atoms: C_31  and  O_32
REMARK                            x       y       z     vdW  Elec       q    Type
REMARK                         _______ _______ _______ _____ _____    ______ ____
ROOT
ATOM      1  C   UNL     1       0.744  12.966  19.747  0.00  0.00    +0.000 C 
ATOM      2  C   UNL     1       0.559  12.745  21.438  0.00  0.00    +0.000 C 
ATOM      3  N   UNL     1       0.649  11.752  20.460  0.00  0.00    +0.000 N 
ENDROOT
BRANCH   2   4
ATOM      4  C   UNL     1      -0.780  13.057  22.066  0.00  0.00    +0.000 A 
ATOM      5  C   UNL     1      -1.094  14.322  22.571  0.00  0.00    +0.000 A 
ATOM      6  C   UNL     1      -2.350  14.617  23.117  0.00  0.00    +0.000 A 
ATOM      7  C   UNL     1      -3.377  13.665  23.202  0.00  0.00    +0.000 A 
ATOM      8  C   UNL     1      -3.048  12.390  22.725  0.00  0.00    +0.000 A 
ATOM      9  C   UNL     1      -1.787  12.090  22.171  0.00  0.00    +0.000 A 
BRANCH   7  10
ATOM     10  N   UNL     1      -4.598  13.981  23.770  0.00  0.00    +0.000 N 
ATOM     11  C   UNL     1      -5.058  15.367  23.849  0.00  0.00    +0.000 C 
ATOM     12  C   UNL     1      -5.632  12.979  24.000  0.00  0.00    +0.000 C 
ENDBRANCH   7  10
ENDBRANCH   2   4
BRANCH   3  13
ATOM     13  C   UNL     1       0.894  10.399  20.369  0.00  0.00    +0.000 A 
ATOM     14  C   UNL     1       1.204   9.809  19.135  0.00  0.00    +0.000 A 
ATOM     15  C   UNL     1       1.648   8.479  19.040  0.00  0.00    +0.000 A 
ATOM     16  C   UNL     1       1.753   7.666  20.172  0.00  0.00    +0.000 A 
ATOM     17  C   UNL     1       1.362   8.225  21.396  0.00  0.00    +0.000 A 
ATOM     18  C   UNL     1       0.955   9.572  21.494  0.00  0.00    +0.000 A 
BRANCH  16  19
ATOM     19  N   UNL     1       2.216   6.337  20.000  0.00  0.00    +0.000 NA
ATOM     20  N   UNL     1       2.601   6.108  18.833  0.00  0.00    +0.000 NA
BRANCH  20  21
ATOM     21  C   UNL     1       2.956   4.753  18.617  0.00  0.00    +0.000 A 
ATOM     22  C   UNL     1       2.203   4.008  17.697  0.00  0.00    +0.000 A 
ATOM     23  C   UNL     1       2.431   2.638  17.510  0.00  0.00    +0.000 A 
ATOM     24  C   UNL     1       3.421   1.990  18.247  0.00  0.00    +0.000 A 
ATOM     25  C   UNL     1       4.175   2.720  19.157  0.00  0.00    +0.000 A 
ATOM     26  C   UNL     1       3.952   4.085  19.344  0.00  0.00    +0.000 A 
BRANCH  25  27
ATOM     27  O   UNL     1       5.146   2.117  19.908  0.00  0.00    +0.000 OA
ATOM     28  H   UNL     1       4.730   1.464  20.493  0.00  0.00    +0.000 HD
ENDBRANCH  25  27
ENDBRANCH  20  21
ENDBRANCH  16  19
ENDBRANCH   3  13
BRANCH   1  29
ATOM     29  C   UNL     1       2.071  13.517  19.358  0.00  0.00    +0.000 C 
ATOM     30  C   UNL     1       2.709  12.902  18.139  0.00  0.00    +0.000 C 
ATOM     31  O   UNL     1       2.644  14.363  20.040  0.00  0.00    +0.000 OA
ENDBRANCH   1  29
BRANCH   1  32
ATOM     32  C   UNL     1      -0.472  13.497  19.070  0.00  0.00    +0.000 C 
ATOM     33  O   UNL     1      -0.893  14.620  19.316  0.00  0.00    +0.000 OA
BRANCH  32  34
ATOM     34  O   UNL     1      -1.039  12.607  18.211  0.00  0.00    +0.000 OA
BRANCH  34  36
ATOM     35  C   UNL     1      -2.379  10.599  18.086  0.00  0.00    +0.000 C 
ATOM     36  C   UNL     1      -2.249  11.990  18.669  0.00  0.00    +0.000 C 
ENDBRANCH  34  36
ENDBRANCH  32  34
ENDBRANCH   1  32
TORSDOF 10
ENDMDL
MODEL 6
REMARK VINA RESULT:      -8.1      3.164     11.205
REMARK  Name = 
REMARK  14 active torsions:
REMARK  status: ('A' for Active; 'I' for Inactive)
REMARK    1  A    between atoms: C_1  and  C_2
REMARK    2  A    between atoms: C_2  and  O_3
REMARK    3  A    between atoms: O_3  and  C_4
REMARK    4  A    between atoms: C_4  and  C_6
REMARK    5  A    between atoms: C_6  and  C_7
REMARK    6  A    between atoms: C_7  and  C_8
REMARK    7  A    between atoms: C_10  and  C_11
REMARK    8  A    between atoms: C_14  and  N_15
REMARK    9  A    between atoms: N_15  and  C_16
REMARK   10  A    between atoms: N_15  and  C_17
REMARK   11  A    between atoms: N_20  and  C_21
REMARK   12  A    between atoms: C_24  and  N_25
REMARK   13  A    between atoms: N_26  and  C_27
REMARK   14  A    between atoms: C_31  and  O_32
REMARK                            x       y       z     vdW  Elec       q    Type
REMARK                         _______ _______ _______ _____ _____    ______ ____
ROOT
ATOM      1  C   UNL     1       0.420  13.245  20.174  0.00  0.00    +0.000 C 
ATOM      2  C   UNL     1      -0.748  12.227  20.910  0.00  0.00    +0.000 C 
ATOM      3  N   UNL     1       0.268  11.849  20.031  0.00  0.00    +0.000 N 
ENDROOT
BRANCH   2   4
ATOM      4  C   UNL     1      -2.177  12.293  20.420  0.00  0.00    +0.000 A 
ATOM      5  C   UNL     1      -3.175  12.987  21.110  0.00  0.00    +0.000 A 
ATOM      6  C   UNL     1      -4.489  13.076  20.632  0.00  0.00    +0.000 A 
ATOM      7  C   UNL     1      -4.896  12.472  19.433  0.00  0.00    +0.000 A 
ATOM      8  C   UNL     1      -3.902  11.750  18.762  0.00  0.00    +0.000 A 
ATOM      9  C   UNL     1      -2.578  11.661  19.237  0.00  0.00    +0.000 A 
BRANCH   7  10
ATOM     10  N   UNL     1      -6.207  12.559  19.000  0.00  0.00    +0.000 N 
ATOM     11  C   UNL     1      -6.761  11.575  18.069  0.00  0.00    +0.000 C 
ATOM     12  C   UNL     1      -7.198  13.387  19.677  0.00  0.00    +0.000 C 
ENDBRANCH   7  10
ENDBRANCH   2   4
BRANCH   3  13
ATOM     13  C   UNL     1       0.921  10.706  19.623  0.00  0.00    +0.000 A 
ATOM     14  C   UNL     1       0.947   9.567  20.442  0.00  0.00    +0.000 A 
ATOM     15  C   UNL     1       1.432   8.332  19.978  0.00  0.00    +0.000 A 
ATOM     16  C   UNL     1       1.958   8.196  18.690  0.00  0.00    +0.000 A 
ATOM     17  C   UNL     1       2.014   9.352  17.899  0.00  0.00    +0.000 A 
ATOM     18  C   UNL     1       1.490  10.581  18.354  0.00  0.00    +0.000 A 
BRANCH  16  19
ATOM     19  N   UNL     1       2.420   6.918  18.287  0.00  0.00    +0.000 NA
ATOM     20  N   UNL     1       2.187   6.032  19.137  0.00  0.00    +0.000 NA
BRANCH  20  21
ATOM     21  C   UNL     1       2.746   4.774  18.802  0.00  0.00    +0.000 A 
ATOM     22  C   UNL     1       2.178   4.056  17.738  0.00  0.00    +0.000 A 
ATOM     23  C   UNL     1       2.612   2.763  17.419  0.00  0.00    +0.000 A 
ATOM     24  C   UNL     1       3.626   2.164  18.164  0.00  0.00    +0.000 A 
ATOM     25  C   UNL     1       4.198   2.868  19.216  0.00  0.00    +0.000 A 
ATOM     26  C   UNL     1       3.770   4.157  19.536  0.00  0.00    +0.000 A 
BRANCH  25  27
ATOM     27  O   UNL     1       5.187   2.310  19.979  0.00  0.00    +0.000 OA
ATOM     28  H   UNL     1       4.874   1.459  20.324  0.00  0.00    +0.000 HD
ENDBRANCH  25  27
ENDBRANCH  20  21
ENDBRANCH  16  19
ENDBRANCH   3  13
BRANCH   1  29
ATOM     29  C   UNL     1       1.411  13.807  21.132  0.00  0.00    +0.000 C 
ATOM     30  C   UNL     1       2.856  13.721  20.711  0.00  0.00    +0.000 C 
ATOM     31  O   UNL     1       1.075  14.237  22.232  0.00  0.00    +0.000 OA
ENDBRANCH   1  29
BRANCH   1  32
ATOM     32  C   UNL     1      -0.135  14.139  19.121  0.00  0.00    +0.000 C 
ATOM     33  O   UNL     1      -0.202  13.775  17.953  0.00  0.00    +0.000 OA
BRANCH  32  34
ATOM     34  O   UNL     1      -0.511  15.358  19.594  0.00  0.00    +0.000 OA
BRANCH  34  36
ATOM     35  C   UNL     1       1.218  16.898  18.899  0.00  0.00    +0.000 C 
ATOM     36  C   UNL     1      -0.225  16.470  18.737  0.00  0.00    +0.000 C 
ENDBRANCH  34  36
ENDBRANCH  32  34
ENDBRANCH   1  32
TORSDOF 10
ENDMDL
MODEL 7
REMARK VINA RESULT:      -8.1      3.239     11.364
REMARK  Name = 
REMARK  14 active torsions:
REMARK  status: ('A' for Active; 'I' for Inactive)
REMARK    1  A    between atoms: C_1  and  C_2
REMARK    2  A    between atoms: C_2  and  O_3
REMARK    3  A    between atoms: O_3  and  C_4
REMARK    4  A    between atoms: C_4  and  C_6
REMARK    5  A    between atoms: C_6  and  C_7
REMARK    6  A    between atoms: C_7  and  C_8
REMARK    7  A    between atoms: C_10  and  C_11
REMARK    8  A    between atoms: C_14  and  N_15
REMARK    9  A    between atoms: N_15  and  C_16
REMARK   10  A    between atoms: N_15  and  C_17
REMARK   11  A    between atoms: N_20  and  C_21
REMARK   12  A    between atoms: C_24  and  N_25
REMARK   13  A    between atoms: N_26  and  C_27
REMARK   14  A    between atoms: C_31  and  O_32
REMARK                            x       y       z     vdW  Elec       q    Type
REMARK                         _______ _______ _______ _____ _____    ______ ____
ROOT
ATOM      1  C   UNL     1       0.203  13.114  20.133  0.00  0.00    +0.000 C 
ATOM      2  C   UNL     1      -1.041  12.216  20.899  0.00  0.00    +0.000 C 
ATOM      3  N   UNL     1      -0.062  11.731  20.030  0.00  0.00    +0.000 N 
ENDROOT
BRANCH   2   4
ATOM      4  C   UNL     1      -2.461  12.384  20.409  0.00  0.00    +0.000 A 
ATOM      5  C   UNL     1      -2.946  11.727  19.275  0.00  0.00    +0.000 A 
ATOM      6  C   UNL     1      -4.274  11.857  18.847  0.00  0.00    +0.000 A 
ATOM      7  C   UNL     1      -5.207  12.658  19.521  0.00  0.00    +0.000 A 
ATOM      8  C   UNL     1      -4.709  13.341  20.638  0.00  0.00    +0.000 A 
ATOM      9  C   UNL     1      -3.375  13.211  21.074  0.00  0.00    +0.000 A 
BRANCH   7  10
ATOM     10  N   UNL     1      -6.504  12.785  19.059  0.00  0.00    +0.000 N 
ATOM     11  C   UNL     1      -6.953  12.073  17.862  0.00  0.00    +0.000 C 
ATOM     12  C   UNL     1      -7.576  13.327  19.886  0.00  0.00    +0.000 C 
ENDBRANCH   7  10
ENDBRANCH   2   4
BRANCH   3  13
ATOM     13  C   UNL     1       0.494  10.528  19.655  0.00  0.00    +0.000 A 
ATOM     14  C   UNL     1       0.873  10.299  18.324  0.00  0.00    +0.000 A 
ATOM     15  C   UNL     1       1.616   9.166  17.950  0.00  0.00    +0.000 A 
ATOM     16  C   UNL     1       1.968   8.188  18.884  0.00  0.00    +0.000 A 
ATOM     17  C   UNL     1       1.517   8.370  20.198  0.00  0.00    +0.000 A 
ATOM     18  C   UNL     1       0.806   9.527  20.578  0.00  0.00    +0.000 A 
BRANCH  16  19
ATOM     19  N   UNL     1       2.726   7.076  18.435  0.00  0.00    +0.000 NA
ATOM     20  N   UNL     1       3.664   7.407  17.678  0.00  0.00    +0.000 NA
BRANCH  20  21
ATOM     21  C   UNL     1       4.357   6.299  17.129  0.00  0.00    +0.000 A 
ATOM     22  C   UNL     1       3.834   5.014  17.346  0.00  0.00    +0.000 A 
ATOM     23  C   UNL     1       4.520   3.869  16.923  0.00  0.00    +0.000 A 
ATOM     24  C   UNL     1       5.747   3.992  16.273  0.00  0.00    +0.000 A 
ATOM     25  C   UNL     1       6.270   5.258  16.049  0.00  0.00    +0.000 A 
ATOM     26  C   UNL     1       5.589   6.402  16.468  0.00  0.00    +0.000 A 
BRANCH  25  27
ATOM     27  O   UNL     1       7.477   5.419  15.427  0.00  0.00    +0.000 OA
ATOM     28  H   UNL     1       7.325   5.734  14.522  0.00  0.00    +0.000 HD
ENDBRANCH  25  27
ENDBRANCH  20  21
ENDBRANCH  16  19
ENDBRANCH   3  13
BRANCH   1  29
ATOM     29  C   UNL     1       1.240  13.620  21.073  0.00  0.00    +0.000 C 
ATOM     30  C   UNL     1       2.669  13.493  20.610  0.00  0.00    +0.000 C 
ATOM     31  O   UNL     1       0.951  14.038  22.191  0.00  0.00    +0.000 OA
ENDBRANCH   1  29
BRANCH   1  32
ATOM     32  C   UNL     1      -0.280  14.020  19.055  0.00  0.00    +0.000 C 
ATOM     33  O   UNL     1      -0.353  13.638  17.894  0.00  0.00    +0.000 OA
BRANCH  32  34
ATOM     34  O   UNL     1      -0.586  15.269  19.499  0.00  0.00    +0.000 OA
BRANCH  34  36
ATOM     35  C   UNL     1      -1.241  17.449  18.685  0.00  0.00    +0.000 C 
ATOM     36  C   UNL     1      -0.206  16.344  18.632  0.00  0.00    +0.000 C 
ENDBRANCH  34  36
ENDBRANCH  32  34
ENDBRANCH   1  32
TORSDOF 10
ENDMDL
MODEL 8
REMARK VINA RESULT:      -8.1      3.244     11.026
REMARK  Name = 
REMARK  14 active torsions:
REMARK  status: ('A' for Active; 'I' for Inactive)
REMARK    1  A    between atoms: C_1  and  C_2
REMARK    2  A    between atoms: C_2  and  O_3
REMARK    3  A    between atoms: O_3  and  C_4
REMARK    4  A    between atoms: C_4  and  C_6
REMARK    5  A    between atoms: C_6  and  C_7
REMARK    6  A    between atoms: C_7  and  C_8
REMARK    7  A    between atoms: C_10  and  C_11
REMARK    8  A    between atoms: C_14  and  N_15
REMARK    9  A    between atoms: N_15  and  C_16
REMARK   10  A    between atoms: N_15  and  C_17
REMARK   11  A    between atoms: N_20  and  C_21
REMARK   12  A    between atoms: C_24  and  N_25
REMARK   13  A    between atoms: N_26  and  C_27
REMARK   14  A    between atoms: C_31  and  O_32
REMARK                            x       y       z     vdW  Elec       q    Type
REMARK                         _______ _______ _______ _____ _____    ______ ____
ROOT
ATOM      1  C   UNL     1       0.428  13.171  20.103  0.00  0.00    +0.000 C 
ATOM      2  C   UNL     1      -0.786  12.133  20.729  0.00  0.00    +0.000 C 
ATOM      3  N   UNL     1       0.312  11.773  19.945  0.00  0.00    +0.000 N 
ENDROOT
BRANCH   2   4
ATOM      4  C   UNL     1      -2.165  12.178  20.110  0.00  0.00    +0.000 A 
ATOM      5  C   UNL     1      -2.495  11.454  18.961  0.00  0.00    +0.000 A 
ATOM      6  C   UNL     1      -3.784  11.469  18.413  0.00  0.00    +0.000 A 
ATOM      7  C   UNL     1      -4.832  12.214  18.975  0.00  0.00    +0.000 A 
ATOM      8  C   UNL     1      -4.490  12.964  20.108  0.00  0.00    +0.000 A 
ATOM      9  C   UNL     1      -3.194  12.949  20.664  0.00  0.00    +0.000 A 
BRANCH   7  10
ATOM     10  N   UNL     1      -6.088  12.227  18.397  0.00  0.00    +0.000 N 
ATOM     11  C   UNL     1      -6.532  13.357  17.580  0.00  0.00    +0.000 C 
ATOM     12  C   UNL     1      -6.898  11.022  18.265  0.00  0.00    +0.000 C 
ENDBRANCH   7  10
ENDBRANCH   2   4
BRANCH   3  13
ATOM     13  C   UNL     1       1.017  10.641  19.599  0.00  0.00    +0.000 A 
ATOM     14  C   UNL     1       1.219   9.611  20.530  0.00  0.00    +0.000 A 
ATOM     15  C   UNL     1       1.760   8.369  20.155  0.00  0.00    +0.000 A 
ATOM     16  C   UNL     1       2.168   8.122  18.842  0.00  0.00    +0.000 A 
ATOM     17  C   UNL     1       2.048   9.177  17.927  0.00  0.00    +0.000 A 
ATOM     18  C   UNL     1       1.469  10.409  18.298  0.00  0.00    +0.000 A 
BRANCH  16  19
ATOM     19  N   UNL     1       2.697   6.842  18.535  0.00  0.00    +0.000 NA
ATOM     20  N   UNL     1       1.920   5.913  18.846  0.00  0.00    +0.000 NA
BRANCH  20  21
ATOM     21  C   UNL     1       2.481   4.627  18.654  0.00  0.00    +0.000 A 
ATOM     22  C   UNL     1       1.766   3.697  17.882  0.00  0.00    +0.000 A 
ATOM     23  C   UNL     1       2.210   2.377  17.737  0.00  0.00    +0.000 A 
ATOM     24  C   UNL     1       3.383   1.963  18.367  0.00  0.00    +0.000 A 
ATOM     25  C   UNL     1       4.100   2.876  19.128  0.00  0.00    +0.000 A 
ATOM     26  C   UNL     1       3.662   4.193  19.274  0.00  0.00    +0.000 A 
BRANCH  25  27
ATOM     27  O   UNL     1       5.249   2.505  19.772  0.00  0.00    +0.000 OA
ATOM     28  H   UNL     1       5.047   2.348  20.708  0.00  0.00    +0.000 HD
ENDBRANCH  25  27
ENDBRANCH  20  21
ENDBRANCH  16  19
ENDBRANCH   3  13
BRANCH   1  29
ATOM     29  C   UNL     1       1.319  13.746  21.147  0.00  0.00    +0.000 C 
ATOM     30  C   UNL     1       2.792  13.745  20.831  0.00  0.00    +0.000 C 
ATOM     31  O   UNL     1       0.883  14.121  22.233  0.00  0.00    +0.000 OA
ENDBRANCH   1  29
BRANCH   1  32
ATOM     32  C   UNL     1      -0.042  14.058  19.003  0.00  0.00    +0.000 C 
ATOM     33  O   UNL     1      -0.041  13.678  17.840  0.00  0.00    +0.000 OA
BRANCH  32  34
ATOM     34  O   UNL     1      -0.424  15.291  19.434  0.00  0.00    +0.000 OA
BRANCH  34  36
ATOM     35  C   UNL     1       1.393  16.767  18.828  0.00  0.00    +0.000 C 
ATOM     36  C   UNL     1      -0.053  16.385  18.587  0.00  0.00    +0.000 C 
ENDBRANCH  34  36
ENDBRANCH  32  34
ENDBRANCH   1  32
TORSDOF 10
ENDMDL
MODEL 9
REMARK VINA RESULT:      -8.1      3.262     11.280
REMARK  Name = 
REMARK  14 active torsions:
REMARK  status: ('A' for Active; 'I' for Inactive)
REMARK    1  A    between atoms: C_1  and  C_2
REMARK    2  A    between atoms: C_2  and  O_3
REMARK    3  A    between atoms: O_3  and  C_4
REMARK    4  A    between atoms: C_4  and  C_6
REMARK    5  A    between atoms: C_6  and  C_7
REMARK    6  A    between atoms: C_7  and  C_8
REMARK    7  A    between atoms: C_10  and  C_11
REMARK    8  A    between atoms: C_14  and  N_15
REMARK    9  A    between atoms: N_15  and  C_16
REMARK   10  A    between atoms: N_15  and  C_17
REMARK   11  A    between atoms: N_20  and  C_21
REMARK   12  A    between atoms: C_24  and  N_25
REMARK   13  A    between atoms: N_26  and  C_27
REMARK   14  A    between atoms: C_31  and  O_32
REMARK                            x       y       z     vdW  Elec       q    Type
REMARK                         _______ _______ _______ _____ _____    ______ ____
ROOT
ATOM      1  C   UNL     1       0.258  13.088  20.111  0.00  0.00    +0.000 C 
ATOM      2  C   UNL     1      -0.983  12.166  20.854  0.00  0.00    +0.000 C 
ATOM      3  N   UNL     1       0.011  11.703  19.990  0.00  0.00    +0.000 N 
ENDROOT
BRANCH   2   4
ATOM      4  C   UNL     1      -2.400  12.322  20.351  0.00  0.00    +0.000 A 
ATOM      5  C   UNL     1      -3.342  13.127  20.999  0.00  0.00    +0.000 A 
ATOM      6  C   UNL     1      -4.642  13.298  20.507  0.00  0.00    +0.000 A 
ATOM      7  C   UNL     1      -5.093  12.671  19.336  0.00  0.00    +0.000 A 
ATOM      8  C   UNL     1      -4.157  11.840  18.707  0.00  0.00    +0.000 A 
ATOM      9  C   UNL     1      -2.846  11.667  19.197  0.00  0.00    +0.000 A 
BRANCH   7  10
ATOM     10  N   UNL     1      -6.390  12.840  18.889  0.00  0.00    +0.000 N 
ATOM     11  C   UNL     1      -6.848  14.130  18.372  0.00  0.00    +0.000 C 
ATOM     12  C   UNL     1      -7.262  11.713  18.579  0.00  0.00    +0.000 C 
ENDBRANCH   7  10
ENDBRANCH   2   4
BRANCH   3  13
ATOM     13  C   UNL     1       0.586  10.511  19.608  0.00  0.00    +0.000 A 
ATOM     14  C   UNL     1       1.072  10.337  18.304  0.00  0.00    +0.000 A 
ATOM     15  C   UNL     1       1.834   9.213  17.941  0.00  0.00    +0.000 A 
ATOM     16  C   UNL     1       2.100   8.191  18.855  0.00  0.00    +0.000 A 
ATOM     17  C   UNL     1       1.543   8.319  20.135  0.00  0.00    +0.000 A 
ATOM     18  C   UNL     1       0.812   9.467  20.507  0.00  0.00    +0.000 A 
BRANCH  16  19
ATOM     19  N   UNL     1       2.883   7.091  18.420  0.00  0.00    +0.000 NA
ATOM     20  N   UNL     1       3.715   7.409  17.543  0.00  0.00    +0.000 NA
BRANCH  20  21
ATOM     21  C   UNL     1       4.422   6.301  17.015  0.00  0.00    +0.000 A 
ATOM     22  C   UNL     1       3.954   5.011  17.312  0.00  0.00    +0.000 A 
ATOM     23  C   UNL     1       4.662   3.870  16.912  0.00  0.00    +0.000 A 
ATOM     24  C   UNL     1       5.856   4.003  16.205  0.00  0.00    +0.000 A 
ATOM     25  C   UNL     1       6.325   5.275  15.903  0.00  0.00    +0.000 A 
ATOM     26  C   UNL     1       5.622   6.414  16.298  0.00  0.00    +0.000 A 
BRANCH  25  27
ATOM     27  O   UNL     1       7.500   5.447  15.223  0.00  0.00    +0.000 OA
ATOM     28  H   UNL     1       7.469   6.294  14.752  0.00  0.00    +0.000 HD
ENDBRANCH  25  27
ENDBRANCH  20  21
ENDBRANCH  16  19
ENDBRANCH   3  13
BRANCH   1  29
ATOM     29  C   UNL     1       1.279  13.596  21.068  0.00  0.00    +0.000 C 
ATOM     30  C   UNL     1       2.714  13.486  20.621  0.00  0.00    +0.000 C 
ATOM     31  O   UNL     1       0.971  14.004  22.185  0.00  0.00    +0.000 OA
ENDBRANCH   1  29
BRANCH   1  32
ATOM     32  C   UNL     1      -0.226  13.999  19.038  0.00  0.00    +0.000 C 
ATOM     33  O   UNL     1      -0.304  13.622  17.876  0.00  0.00    +0.000 OA
BRANCH  32  34
ATOM     34  O   UNL     1      -0.526  15.248  19.488  0.00  0.00    +0.000 OA
BRANCH  34  36
ATOM     35  C   UNL     1       1.365  16.569  18.763  0.00  0.00    +0.000 C 
ATOM     36  C   UNL     1      -0.124  16.327  18.635  0.00  0.00    +0.000 C 
ENDBRANCH  34  36
ENDBRANCH  32  34
ENDBRANCH   1  32
TORSDOF 10
ENDMDL
