MODEL 1
REMARK VINA RESULT:      -7.6      0.000      0.000
REMARK  Name = 
REMARK  6 active torsions:
REMARK  status: ('A' for Active; 'I' for Inactive)
REMARK    1  A    between atoms: C_1  and  N_2
REMARK    2  A    between atoms: C_3  and  C_5
REMARK    3  A    between atoms: C_7  and  N_8
REMARK    4  A    between atoms: C_14  and  C_15
REMARK    5  A    between atoms: C_20  and  O_21
REMARK    6  A    between atoms: O_21  and  C_22
REMARK                            x       y       z     vdW  Elec       q    Type
REMARK                         _______ _______ _______ _____ _____    ______ ____
ROOT
ATOM      1  C   UNL     1       4.179   4.921  19.299  0.00  0.00    +0.000 A 
ATOM      2  C   UNL     1       3.323   5.976  19.696  0.00  0.00    +0.000 A 
ATOM      3  C   UNL     1       2.165   5.764  20.445  0.00  0.00    +0.000 A 
ATOM      4  C   UNL     1       1.841   4.457  20.796  0.00  0.00    +0.000 A 
ATOM      5  C   UNL     1       2.659   3.395  20.379  0.00  0.00    +0.000 A 
ATOM      6  C   UNL     1       3.838   3.609  19.644  0.00  0.00    +0.000 A 
ENDROOT
BRANCH   3   7
ATOM      7  N   UNL     1       1.326   6.832  20.871  0.00  0.00    +0.000 N 
ATOM      8  C   UNL     1       1.316   8.097  20.319  0.00  0.00    +0.000 C 
ATOM      9  O   UNL     1       1.901   8.385  19.275  0.00  0.00    +0.000 OA
ATOM     10  N   UNL     1       0.596   9.073  21.024  0.00  0.00    +0.000 N 
ATOM     11  C   UNL     1       0.723  10.388  20.408  0.00  0.00    +0.000 C 
ATOM     12  C   UNL     1      -0.023  11.472  21.096  0.00  0.00    +0.000 C 
ATOM     13  C   UNL     1      -0.523  11.398  22.336  0.00  0.00    +0.000 C 
ATOM     14  C   UNL     1      -1.214  12.567  22.978  0.00  0.00    +0.000 C 
ATOM     15  C   UNL     1      -0.393  10.137  23.138  0.00  0.00    +0.000 C 
ATOM     16  C   UNL     1       0.424   9.004  22.481  0.00  0.00    +0.000 C 
ATOM     17  H   UNL     1       0.508   6.584  21.406  0.00  0.00    +0.000 HD
ENDBRANCH   3   7
BRANCH   1  20
ATOM     18  C   UNL     1       7.573   4.571  17.627  0.00  0.00    +0.000 C 
ATOM     19  N   UNL     1       6.372   4.366  18.397  0.00  0.00    +0.000 N 
ATOM     20  C   UNL     1       5.362   5.310  18.465  0.00  0.00    +0.000 C 
ATOM     21  O   UNL     1       5.417   6.394  17.902  0.00  0.00    +0.000 OA
ATOM     22  H   UNL     1       6.260   3.468  18.847  0.00  0.00    +0.000 HD
ENDBRANCH   1  20
BRANCH   6  23
ATOM     23  O   UNL     1       4.473   2.445  19.304  0.00  0.00    +0.000 OA
ATOM     24  C   UNL     1       3.723   1.475  18.582  0.00  0.00    +0.000 C 
ENDBRANCH   6  23
TORSDOF 3
ENDMDL
MODEL 2
REMARK VINA RESULT:      -7.3      2.212      2.728
REMARK  Name = 
REMARK  6 active torsions:
REMARK  status: ('A' for Active; 'I' for Inactive)
REMARK    1  A    between atoms: C_1  and  N_2
REMARK    2  A    between atoms: C_3  and  C_5
REMARK    3  A    between atoms: C_7  and  N_8
REMARK    4  A    between atoms: C_14  and  C_15
REMARK    5  A    between atoms: C_20  and  O_21
REMARK    6  A    between atoms: O_21  and  C_22
REMARK                            x       y       z     vdW  Elec       q    Type
REMARK                         _______ _______ _______ _____ _____    ______ ____
ROOT
ATOM      1  C   UNL     1       5.535   6.000  17.246  0.00  0.00    +0.000 A 
ATOM      2  C   UNL     1       4.566   6.702  18.002  0.00  0.00    +0.000 A 
ATOM      3  C   UNL     1       3.297   6.186  18.265  0.00  0.00    +0.000 A 
ATOM      4  C   UNL     1       2.978   4.934  17.747  0.00  0.00    +0.000 A 
ATOM      5  C   UNL     1       3.915   4.238  16.965  0.00  0.00    +0.000 A 
ATOM      6  C   UNL     1       5.201   4.748  16.717  0.00  0.00    +0.000 A 
ENDROOT
BRANCH   3   7
ATOM      7  N   UNL     1       2.339   6.882  19.054  0.00  0.00    +0.000 N 
ATOM      8  C   UNL     1       1.923   8.178  18.830  0.00  0.00    +0.000 C 
ATOM      9  O   UNL     1       2.201   8.813  17.812  0.00  0.00    +0.000 OA
ATOM     10  N   UNL     1       1.156   8.766  19.848  0.00  0.00    +0.000 N 
ATOM     11  C   UNL     1       0.847  10.159  19.554  0.00  0.00    +0.000 C 
ATOM     12  C   UNL     1       0.026  10.844  20.585  0.00  0.00    +0.000 C 
ATOM     13  C   UNL     1      -0.180  10.397  21.830  0.00  0.00    +0.000 C 
ATOM     14  C   UNL     1      -0.977  11.186  22.829  0.00  0.00    +0.000 C 
ATOM     15  C   UNL     1       0.399   9.088  22.278  0.00  0.00    +0.000 C 
ATOM     16  C   UNL     1       1.305   8.370  21.255  0.00  0.00    +0.000 C 
ATOM     17  H   UNL     1       1.727   6.321  19.628  0.00  0.00    +0.000 HD
ENDBRANCH   3   7
BRANCH   1  20
ATOM     18  C   UNL     1       8.215   8.658  17.679  0.00  0.00    +0.000 C 
ATOM     19  N   UNL     1       7.016   7.862  17.762  0.00  0.00    +0.000 N 
ATOM     20  C   UNL     1       6.836   6.709  17.019  0.00  0.00    +0.000 C 
ATOM     21  O   UNL     1       7.662   6.287  16.222  0.00  0.00    +0.000 OA
ATOM     22  H   UNL     1       6.320   8.146  18.438  0.00  0.00    +0.000 HD
ENDBRANCH   1  20
BRANCH   6  23
ATOM     23  O   UNL     1       5.948   3.939  15.905  0.00  0.00    +0.000 OA
ATOM     24  C   UNL     1       5.761   4.066  14.500  0.00  0.00    +0.000 C 
ENDBRANCH   6  23
TORSDOF 3
ENDMDL
MODEL 3
REMARK VINA RESULT:      -7.2      2.036      2.510
REMARK  Name = 
REMARK  6 active torsions:
REMARK  status: ('A' for Active; 'I' for Inactive)
REMARK    1  A    between atoms: C_1  and  N_2
REMARK    2  A    between atoms: C_3  and  C_5
REMARK    3  A    between atoms: C_7  and  N_8
REMARK    4  A    between atoms: C_14  and  C_15
REMARK    5  A    between atoms: C_20  and  O_21
REMARK    6  A    between atoms: O_21  and  C_22
REMARK                            x       y       z     vdW  Elec       q    Type
REMARK                         _______ _______ _______ _____ _____    ______ ____
ROOT
ATOM      1  C   UNL     1       4.529   5.726  17.122  0.00  0.00    +0.000 A 
ATOM      2  C   UNL     1       3.884   6.953  17.411  0.00  0.00    +0.000 A 
ATOM      3  C   UNL     1       2.687   7.025  18.123  0.00  0.00    +0.000 A 
ATOM      4  C   UNL     1       2.105   5.834  18.548  0.00  0.00    +0.000 A 
ATOM      5  C   UNL     1       2.712   4.606  18.239  0.00  0.00    +0.000 A 
ATOM      6  C   UNL     1       3.930   4.534  17.541  0.00  0.00    +0.000 A 
ENDROOT
BRANCH   3   7
ATOM      7  N   UNL     1       2.061   8.263  18.441  0.00  0.00    +0.000 N 
ATOM      8  C   UNL     1       1.541   8.590  19.676  0.00  0.00    +0.000 C 
ATOM      9  O   UNL     1       1.725   7.917  20.689  0.00  0.00    +0.000 OA
ATOM     10  N   UNL     1       0.759   9.755  19.728  0.00  0.00    +0.000 N 
ATOM     11  C   UNL     1       0.185   9.960  21.051  0.00  0.00    +0.000 C 
ATOM     12  C   UNL     1      -0.648  11.183  21.184  0.00  0.00    +0.000 C 
ATOM     13  C   UNL     1      -1.133  11.902  20.164  0.00  0.00    +0.000 C 
ATOM     14  C   UNL     1      -2.019  13.093  20.389  0.00  0.00    +0.000 C 
ATOM     15  C   UNL     1      -0.816  11.527  18.746  0.00  0.00    +0.000 C 
ATOM     16  C   UNL     1       0.002  10.230  18.562  0.00  0.00    +0.000 C 
ATOM     17  H   UNL     1       2.254   9.041  17.829  0.00  0.00    +0.000 HD
ENDBRANCH   3   7
BRANCH   1  20
ATOM     18  C   UNL     1       7.063   4.816  14.441  0.00  0.00    +0.000 C 
ATOM     19  N   UNL     1       5.922   4.864  15.320  0.00  0.00    +0.000 N 
ATOM     20  C   UNL     1       5.788   5.818  16.314  0.00  0.00    +0.000 C 
ATOM     21  O   UNL     1       6.631   6.675  16.540  0.00  0.00    +0.000 OA
ATOM     22  H   UNL     1       5.179   4.202  15.147  0.00  0.00    +0.000 HD
ENDBRANCH   1  20
BRANCH   6  23
ATOM     23  O   UNL     1       4.335   3.248  17.307  0.00  0.00    +0.000 OA
ATOM     24  C   UNL     1       3.563   2.201  17.886  0.00  0.00    +0.000 C 
ENDBRANCH   6  23
TORSDOF 3
ENDMDL
MODEL 4
REMARK VINA RESULT:      -7.2      2.224      3.498
REMARK  Name = 
REMARK  6 active torsions:
REMARK  status: ('A' for Active; 'I' for Inactive)
REMARK    1  A    between atoms: C_1  and  N_2
REMARK    2  A    between atoms: C_3  and  C_5
REMARK    3  A    between atoms: C_7  and  N_8
REMARK    4  A    between atoms: C_14  and  C_15
REMARK    5  A    between atoms: C_20  and  O_21
REMARK    6  A    between atoms: O_21  and  C_22
REMARK                            x       y       z     vdW  Elec       q    Type
REMARK                         _______ _______ _______ _____ _____    ______ ____
ROOT
ATOM      1  C   UNL     1       3.638   4.752  17.541  0.00  0.00    +0.000 A 
ATOM      2  C   UNL     1       2.873   5.873  17.942  0.00  0.00    +0.000 A 
ATOM      3  C   UNL     1       3.268   7.186  17.685  0.00  0.00    +0.000 A 
ATOM      4  C   UNL     1       4.472   7.389  17.018  0.00  0.00    +0.000 A 
ATOM      5  C   UNL     1       5.263   6.289  16.645  0.00  0.00    +0.000 A 
ATOM      6  C   UNL     1       4.855   4.966  16.885  0.00  0.00    +0.000 A 
ENDROOT
BRANCH   3   7
ATOM      7  N   UNL     1       2.477   8.308  18.060  0.00  0.00    +0.000 N 
ATOM      8  C   UNL     1       1.873   8.473  19.289  0.00  0.00    +0.000 C 
ATOM      9  O   UNL     1       2.103   7.751  20.260  0.00  0.00    +0.000 OA
ATOM     10  N   UNL     1       0.947   9.523  19.387  0.00  0.00    +0.000 N 
ATOM     11  C   UNL     1       0.301   9.553  20.693  0.00  0.00    +0.000 C 
ATOM     12  C   UNL     1      -0.686  10.648  20.873  0.00  0.00    +0.000 C 
ATOM     13  C   UNL     1      -1.219  11.377  19.884  0.00  0.00    +0.000 C 
ATOM     14  C   UNL     1      -2.258  12.428  20.152  0.00  0.00    +0.000 C 
ATOM     15  C   UNL     1      -0.803  11.155  18.461  0.00  0.00    +0.000 C 
ATOM     16  C   UNL     1       0.180   9.988  18.223  0.00  0.00    +0.000 C 
ATOM     17  H   UNL     1       2.592   9.149  17.515  0.00  0.00    +0.000 HD
ENDBRANCH   3   7
BRANCH   1  20
ATOM     18  C   UNL     1       3.700   1.107  18.612  0.00  0.00    +0.000 C 
ATOM     19  N   UNL     1       4.048   2.446  18.209  0.00  0.00    +0.000 N 
ATOM     20  C   UNL     1       3.095   3.410  17.928  0.00  0.00    +0.000 C 
ATOM     21  O   UNL     1       1.891   3.198  17.977  0.00  0.00    +0.000 OA
ATOM     22  H   UNL     1       5.030   2.683  18.194  0.00  0.00    +0.000 HD
ENDBRANCH   1  20
BRANCH   6  23
ATOM     23  O   UNL     1       5.779   4.042  16.480  0.00  0.00    +0.000 OA
ATOM     24  C   UNL     1       6.067   3.968  15.088  0.00  0.00    +0.000 C 
ENDBRANCH   6  23
TORSDOF 3
ENDMDL
MODEL 5
REMARK VINA RESULT:      -7.1      1.181      1.349
REMARK  Name = 
REMARK  6 active torsions:
REMARK  status: ('A' for Active; 'I' for Inactive)
REMARK    1  A    between atoms: C_1  and  N_2
REMARK    2  A    between atoms: C_3  and  C_5
REMARK    3  A    between atoms: C_7  and  N_8
REMARK    4  A    between atoms: C_14  and  C_15
REMARK    5  A    between atoms: C_20  and  O_21
REMARK    6  A    between atoms: O_21  and  C_22
REMARK                            x       y       z     vdW  Elec       q    Type
REMARK                         _______ _______ _______ _____ _____    ______ ____
ROOT
ATOM      1  C   UNL     1       4.367   4.733  19.467  0.00  0.00    +0.000 A 
ATOM      2  C   UNL     1       3.646   5.944  19.604  0.00  0.00    +0.000 A 
ATOM      3  C   UNL     1       2.297   5.981  19.957  0.00  0.00    +0.000 A 
ATOM      4  C   UNL     1       1.641   4.772  20.167  0.00  0.00    +0.000 A 
ATOM      5  C   UNL     1       2.331   3.560  20.001  0.00  0.00    +0.000 A 
ATOM      6  C   UNL     1       3.696   3.522  19.666  0.00  0.00    +0.000 A 
ENDROOT
BRANCH   3   7
ATOM      7  N   UNL     1       1.586   7.203  20.126  0.00  0.00    +0.000 N 
ATOM      8  C   UNL     1       1.646   8.277  19.262  0.00  0.00    +0.000 C 
ATOM      9  O   UNL     1       2.179   8.227  18.154  0.00  0.00    +0.000 OA
ATOM     10  N   UNL     1       1.065   9.470  19.719  0.00  0.00    +0.000 N 
ATOM     11  C   UNL     1       1.262  10.562  18.775  0.00  0.00    +0.000 C 
ATOM     12  C   UNL     1       0.662  11.857  19.188  0.00  0.00    +0.000 C 
ATOM     13  C   UNL     1       0.247  12.155  20.425  0.00  0.00    +0.000 C 
ATOM     14  C   UNL     1      -0.294  13.514  20.770  0.00  0.00    +0.000 C 
ATOM     15  C   UNL     1       0.323  11.136  21.523  0.00  0.00    +0.000 C 
ATOM     16  C   UNL     1       0.991   9.795  21.150  0.00  0.00    +0.000 C 
ATOM     17  H   UNL     1       0.789   7.185  20.744  0.00  0.00    +0.000 HD
ENDBRANCH   3   7
BRANCH   1  20
ATOM     18  C   UNL     1       7.411   4.431  17.213  0.00  0.00    +0.000 C 
ATOM     19  N   UNL     1       6.088   4.372  17.783  0.00  0.00    +0.000 N 
ATOM     20  C   UNL     1       5.799   4.862  19.044  0.00  0.00    +0.000 C 
ATOM     21  O   UNL     1       6.640   5.359  19.781  0.00  0.00    +0.000 OA
ATOM     22  H   UNL     1       5.349   4.008  17.197  0.00  0.00    +0.000 HD
ENDBRANCH   1  20
BRANCH   6  23
ATOM     23  O   UNL     1       4.172   2.248  19.516  0.00  0.00    +0.000 OA
ATOM     24  C   UNL     1       3.679   1.489  18.417  0.00  0.00    +0.000 C 
ENDBRANCH   6  23
TORSDOF 3
ENDMDL
MODEL 6
REMARK VINA RESULT:      -7.1      1.872      2.315
REMARK  Name = 
REMARK  6 active torsions:
REMARK  status: ('A' for Active; 'I' for Inactive)
REMARK    1  A    between atoms: C_1  and  N_2
REMARK    2  A    between atoms: C_3  and  C_5
REMARK    3  A    between atoms: C_7  and  N_8
REMARK    4  A    between atoms: C_14  and  C_15
REMARK    5  A    between atoms: C_20  and  O_21
REMARK    6  A    between atoms: O_21  and  C_22
REMARK                            x       y       z     vdW  Elec       q    Type
REMARK                         _______ _______ _______ _____ _____    ______ ____
ROOT
ATOM      1  C   UNL     1       4.602   5.010  18.096  0.00  0.00    +0.000 A 
ATOM      2  C   UNL     1       4.049   6.303  18.262  0.00  0.00    +0.000 A 
ATOM      3  C   UNL     1       2.677   6.548  18.210  0.00  0.00    +0.000 A 
ATOM      4  C   UNL     1       1.828   5.472  17.971  0.00  0.00    +0.000 A 
ATOM      5  C   UNL     1       2.361   4.188  17.768  0.00  0.00    +0.000 A 
ATOM      6  C   UNL     1       3.742   3.937  17.841  0.00  0.00    +0.000 A 
ENDROOT
BRANCH   3   7
ATOM      7  N   UNL     1       2.125   7.844  18.413  0.00  0.00    +0.000 N 
ATOM      8  C   UNL     1       1.661   8.325  19.620  0.00  0.00    +0.000 C 
ATOM      9  O   UNL     1       1.843   7.752  20.693  0.00  0.00    +0.000 OA
ATOM     10  N   UNL     1       0.941   9.529  19.570  0.00  0.00    +0.000 N 
ATOM     11  C   UNL     1       0.421   9.901  20.879  0.00  0.00    +0.000 C 
ATOM     12  C   UNL     1      -0.345  11.174  20.905  0.00  0.00    +0.000 C 
ATOM     13  C   UNL     1      -0.824  11.808  19.827  0.00  0.00    +0.000 C 
ATOM     14  C   UNL     1      -1.641  13.063  19.950  0.00  0.00    +0.000 C 
ATOM     15  C   UNL     1      -0.571  11.272  18.449  0.00  0.00    +0.000 C 
ATOM     16  C   UNL     1       0.173   9.921  18.381  0.00  0.00    +0.000 C 
ATOM     17  H   UNL     1       2.337   8.544  17.718  0.00  0.00    +0.000 HD
ENDBRANCH   3   7
BRANCH   1  20
ATOM     18  C   UNL     1       8.108   5.384  19.510  0.00  0.00    +0.000 C 
ATOM     19  N   UNL     1       6.683   5.407  19.295  0.00  0.00    +0.000 N 
ATOM     20  C   UNL     1       6.097   4.922  18.140  0.00  0.00    +0.000 C 
ATOM     21  O   UNL     1       6.737   4.459  17.205  0.00  0.00    +0.000 OA
ATOM     22  H   UNL     1       6.108   5.742  20.056  0.00  0.00    +0.000 HD
ENDBRANCH   1  20
BRANCH   6  23
ATOM     23  O   UNL     1       4.061   2.633  17.577  0.00  0.00    +0.000 OA
ATOM     24  C   UNL     1       3.416   1.630  18.355  0.00  0.00    +0.000 C 
ENDBRANCH   6  23
TORSDOF 3
ENDMDL
MODEL 7
REMARK VINA RESULT:      -7.1      1.896      3.000
REMARK  Name = 
REMARK  6 active torsions:
REMARK  status: ('A' for Active; 'I' for Inactive)
REMARK    1  A    between atoms: C_1  and  N_2
REMARK    2  A    between atoms: C_3  and  C_5
REMARK    3  A    between atoms: C_7  and  N_8
REMARK    4  A    between atoms: C_14  and  C_15
REMARK    5  A    between atoms: C_20  and  O_21
REMARK    6  A    between atoms: O_21  and  C_22
REMARK                            x       y       z     vdW  Elec       q    Type
REMARK                         _______ _______ _______ _____ _____    ______ ____
ROOT
ATOM      1  C   UNL     1       3.392   4.758  17.585  0.00  0.00    +0.000 A 
ATOM      2  C   UNL     1       2.534   5.581  18.353  0.00  0.00    +0.000 A 
ATOM      3  C   UNL     1       2.685   6.966  18.425  0.00  0.00    +0.000 A 
ATOM      4  C   UNL     1       3.734   7.549  17.721  0.00  0.00    +0.000 A 
ATOM      5  C   UNL     1       4.618   6.743  16.983  0.00  0.00    +0.000 A 
ATOM      6  C   UNL     1       4.453   5.350  16.892  0.00  0.00    +0.000 A 
ENDROOT
BRANCH   3   7
ATOM      7  N   UNL     1       1.798   7.792  19.171  0.00  0.00    +0.000 N 
ATOM      8  C   UNL     1       1.490   9.101  18.862  0.00  0.00    +0.000 C 
ATOM      9  O   UNL     1       1.808   9.640  17.802  0.00  0.00    +0.000 OA
ATOM     10  N   UNL     1       0.787   9.819  19.842  0.00  0.00    +0.000 N 
ATOM     11  C   UNL     1       0.593  11.211  19.456  0.00  0.00    +0.000 C 
ATOM     12  C   UNL     1      -0.155  12.030  20.443  0.00  0.00    +0.000 C 
ATOM     13  C   UNL     1      -0.383  11.687  21.717  0.00  0.00    +0.000 C 
ATOM     14  C   UNL     1      -1.100  12.606  22.665  0.00  0.00    +0.000 C 
ATOM     15  C   UNL     1       0.089  10.367  22.249  0.00  0.00    +0.000 C 
ATOM     16  C   UNL     1       0.919   9.507  21.271  0.00  0.00    +0.000 C 
ATOM     17  H   UNL     1       1.148   7.326  19.785  0.00  0.00    +0.000 HD
ENDBRANCH   3   7
BRANCH   1  20
ATOM     18  C   UNL     1       3.965   1.106  18.465  0.00  0.00    +0.000 C 
ATOM     19  N   UNL     1       4.077   2.534  18.303  0.00  0.00    +0.000 N 
ATOM     20  C   UNL     1       3.120   3.285  17.644  0.00  0.00    +0.000 C 
ATOM     21  O   UNL     1       2.122   2.800  17.130  0.00  0.00    +0.000 OA
ATOM     22  H   UNL     1       4.864   2.988  18.746  0.00  0.00    +0.000 HD
ENDBRANCH   1  20
BRANCH   6  23
ATOM     23  O   UNL     1       5.437   4.744  16.158  0.00  0.00    +0.000 OA
ATOM     24  C   UNL     1       6.725   4.634  16.753  0.00  0.00    +0.000 C 
ENDBRANCH   6  23
TORSDOF 3
ENDMDL
MODEL 8
REMARK VINA RESULT:      -7.0      3.321      8.835
REMARK  Name = 
REMARK  6 active torsions:
REMARK  status: ('A' for Active; 'I' for Inactive)
REMARK    1  A    between atoms: C_1  and  N_2
REMARK    2  A    between atoms: C_3  and  C_5
REMARK    3  A    between atoms: C_7  and  N_8
REMARK    4  A    between atoms: C_14  and  C_15
REMARK    5  A    between atoms: C_20  and  O_21
REMARK    6  A    between atoms: O_21  and  C_22
REMARK                            x       y       z     vdW  Elec       q    Type
REMARK                         _______ _______ _______ _____ _____    ______ ____
ROOT
ATOM      1  C   UNL     1      -1.331  10.716  18.195  0.00  0.00    +0.000 A 
ATOM      2  C   UNL     1      -0.437   9.685  17.815  0.00  0.00    +0.000 A 
ATOM      3  C   UNL     1       0.920   9.709  18.136  0.00  0.00    +0.000 A 
ATOM      4  C   UNL     1       1.407  10.803  18.845  0.00  0.00    +0.000 A 
ATOM      5  C   UNL     1       0.542  11.852  19.198  0.00  0.00    +0.000 A 
ATOM      6  C   UNL     1      -0.830  11.818  18.895  0.00  0.00    +0.000 A 
ENDROOT
BRANCH   3   7
ATOM      7  N   UNL     1       1.806   8.653  17.782  0.00  0.00    +0.000 N 
ATOM      8  C   UNL     1       2.326   7.729  18.664  0.00  0.00    +0.000 C 
ATOM      9  O   UNL     1       1.934   7.605  19.825  0.00  0.00    +0.000 OA
ATOM     10  N   UNL     1       3.359   6.917  18.172  0.00  0.00    +0.000 N 
ATOM     11  C   UNL     1       3.897   6.042  19.206  0.00  0.00    +0.000 C 
ATOM     12  C   UNL     1       4.990   5.144  18.753  0.00  0.00    +0.000 C 
ATOM     13  C   UNL     1       5.684   5.285  17.617  0.00  0.00    +0.000 C 
ATOM     14  C   UNL     1       6.816   4.363  17.265  0.00  0.00    +0.000 C 
ATOM     15  C   UNL     1       5.360   6.389  16.655  0.00  0.00    +0.000 C 
ATOM     16  C   UNL     1       4.267   7.379  17.113  0.00  0.00    +0.000 C 
ATOM     17  H   UNL     1       1.837   8.391  16.808  0.00  0.00    +0.000 HD
ENDBRANCH   3   7
BRANCH   1  20
ATOM     18  C   UNL     1      -4.733  11.757  16.863  0.00  0.00    +0.000 C 
ATOM     19  N   UNL     1      -3.375  11.729  17.344  0.00  0.00    +0.000 N 
ATOM     20  C   UNL     1      -2.750  10.559  17.739  0.00  0.00    +0.000 C 
ATOM     21  O   UNL     1      -3.302   9.468  17.735  0.00  0.00    +0.000 OA
ATOM     22  H   UNL     1      -2.862  12.600  17.327  0.00  0.00    +0.000 HD
ENDBRANCH   1  20
BRANCH   6  23
ATOM     23  O   UNL     1      -1.491  12.949  19.290  0.00  0.00    +0.000 OA
ATOM     24  C   UNL     1      -1.613  13.182  20.689  0.00  0.00    +0.000 C 
ENDBRANCH   6  23
TORSDOF 3
ENDMDL
MODEL 9
REMARK VINA RESULT:      -7.0      1.433      1.872
REMARK  Name = 
REMARK  6 active torsions:
REMARK  status: ('A' for Active; 'I' for Inactive)
REMARK    1  A    between atoms: C_1  and  N_2
REMARK    2  A    between atoms: C_3  and  C_5
REMARK    3  A    between atoms: C_7  and  N_8
REMARK    4  A    between atoms: C_14  and  C_15
REMARK    5  A    between atoms: C_20  and  O_21
REMARK    6  A    between atoms: O_21  and  C_22
REMARK                            x       y       z     vdW  Elec       q    Type
REMARK                         _______ _______ _______ _____ _____    ______ ____
ROOT
ATOM      1  C   UNL     1       4.181   4.889  19.216  0.00  0.00    +0.000 A 
ATOM      2  C   UNL     1       3.664   6.206  19.149  0.00  0.00    +0.000 A 
ATOM      3  C   UNL     1       2.415   6.552  19.665  0.00  0.00    +0.000 A 
ATOM      4  C   UNL     1       1.649   5.550  20.254  0.00  0.00    +0.000 A 
ATOM      5  C   UNL     1       2.131   4.231  20.297  0.00  0.00    +0.000 A 
ATOM      6  C   UNL     1       3.398   3.886  19.797  0.00  0.00    +0.000 A 
ENDROOT
BRANCH   3   7
ATOM      7  N   UNL     1       1.916   7.884  19.627  0.00  0.00    +0.000 N 
ATOM      8  C   UNL     1       1.382   8.559  20.705  0.00  0.00    +0.000 C 
ATOM      9  O   UNL     1       1.448   8.147  21.863  0.00  0.00    +0.000 OA
ATOM     10  N   UNL     1       0.731   9.768  20.417  0.00  0.00    +0.000 N 
ATOM     11  C   UNL     1       0.127  10.353  21.607  0.00  0.00    +0.000 C 
ATOM     12  C   UNL     1      -0.572  11.644  21.379  0.00  0.00    +0.000 C 
ATOM     13  C   UNL     1      -0.930  12.126  20.182  0.00  0.00    +0.000 C 
ATOM     14  C   UNL     1      -1.689  13.415  20.048  0.00  0.00    +0.000 C 
ATOM     15  C   UNL     1      -0.596  11.380  18.925  0.00  0.00    +0.000 C 
ATOM     16  C   UNL     1       0.082  10.006  19.121  0.00  0.00    +0.000 C 
ATOM     17  H   UNL     1       2.219   8.462  18.858  0.00  0.00    +0.000 HD
ENDBRANCH   3   7
BRANCH   1  20
ATOM     18  C   UNL     1       6.716   4.415  16.426  0.00  0.00    +0.000 C 
ATOM     19  N   UNL     1       5.514   4.603  17.199  0.00  0.00    +0.000 N 
ATOM     20  C   UNL     1       5.521   4.674  18.580  0.00  0.00    +0.000 C 
ATOM     21  O   UNL     1       6.536   4.560  19.254  0.00  0.00    +0.000 OA
ATOM     22  H   UNL     1       4.654   4.744  16.686  0.00  0.00    +0.000 HD
ENDBRANCH   1  20
BRANCH   6  23
ATOM     23  O   UNL     1       3.665   2.548  19.898  0.00  0.00    +0.000 OA
ATOM     24  C   UNL     1       3.421   1.741  18.751  0.00  0.00    +0.000 C 
ENDBRANCH   6  23
TORSDOF 3
ENDMDL
