MODEL 1
REMARK VINA RESULT:      -8.7      0.000      0.000
REMARK  Name = 
REMARK  6 active torsions:
REMARK  status: ('A' for Active; 'I' for Inactive)
REMARK    1  A    between atoms: C_1  and  C_2
REMARK    2  A    between atoms: N_4  and  C_5
REMARK    3  A    between atoms: C_9  and  N_10
REMARK    4  A    between atoms: N_10  and  S_11
REMARK    5  A    between atoms: S_11  and  C_14
REMARK    6  A    between atoms: C_25  and  C_26
REMARK                            x       y       z     vdW  Elec       q    Type
REMARK                         _______ _______ _______ _____ _____    ______ ____
ROOT
ATOM      1  C   UNL     1       1.066   9.597  19.191  0.00  0.00    +0.000 A 
ATOM      2  C   UNL     1       1.734   9.600  17.956  0.00  0.00    +0.000 A 
ATOM      3  C   UNL     1       2.552   8.533  17.565  0.00  0.00    +0.000 A 
ATOM      4  C   UNL     1       2.742   7.442  18.423  0.00  0.00    +0.000 A 
ATOM      5  C   UNL     1       2.112   7.440  19.662  0.00  0.00    +0.000 A 
ATOM      6  C   UNL     1       1.275   8.499  20.024  0.00  0.00    +0.000 A 
ENDROOT
BRANCH   1  10
ATOM      7  C   UNL     1       0.635  14.386  19.000  0.00  0.00    +0.000 C 
ATOM      8  C   UNL     1       0.201  12.962  18.657  0.00  0.00    +0.000 C 
ATOM      9  C   UNL     1       0.677  11.990  19.765  0.00  0.00    +0.000 C 
ATOM     10  N   UNL     1       0.194  10.621  19.527  0.00  0.00    +0.000 N 
ATOM     11  C   UNL     1      -1.253  10.512  19.257  0.00  0.00    +0.000 C 
ATOM     12  C   UNL     1      -1.708  11.552  18.187  0.00  0.00    +0.000 C 
ATOM     13  C   UNL     1      -3.232  11.550  18.059  0.00  0.00    +0.000 C 
ATOM     14  N   UNL     1      -1.271  12.940  18.483  0.00  0.00    +0.000 NA
ATOM     15  H   UNL     1      -1.703  13.233  19.359  0.00  0.00    +0.000 HD
ENDBRANCH   1  10
BRANCH   5  16
ATOM     16  N   UNL     1       2.318   6.413  20.630  0.00  0.00    +0.000 N 
ATOM     17  H   UNL     1       3.146   6.579  21.205  0.00  0.00    +0.000 HD
BRANCH  16  18
ATOM     18  S   UNL     1       2.387   4.814  20.088  0.00  0.00    +0.000 S 
ATOM     19  O   UNL     1       2.798   3.994  21.210  0.00  0.00    +0.000 OA
ATOM     20  O   UNL     1       1.137   4.547  19.413  0.00  0.00    +0.000 OA
BRANCH  18  21
ATOM     21  C   UNL     1       3.674   4.588  18.882  0.00  0.00    +0.000 A 
ATOM     22  C   UNL     1       3.569   4.193  17.568  0.00  0.00    +0.000 A 
ATOM     23  C   UNL     1       4.787   4.317  16.838  0.00  0.00    +0.000 A 
ATOM     24  C   UNL     1       5.026   4.143  15.457  0.00  0.00    +0.000 A 
ATOM     25  C   UNL     1       6.320   4.226  14.948  0.00  0.00    +0.000 A 
ATOM     26  C   UNL     1       7.385   4.476  15.801  0.00  0.00    +0.000 A 
ATOM     27  C   UNL     1       7.172   4.711  17.167  0.00  0.00    +0.000 A 
ATOM     28  C   UNL     1       5.855   4.645  17.675  0.00  0.00    +0.000 A 
ATOM     29  S   UNL     1       5.293   4.943  19.292  0.00  0.00    +0.000 S 
ENDBRANCH  18  21
ENDBRANCH  16  18
ENDBRANCH   5  16
TORSDOF 4
ENDMDL
MODEL 2
REMARK VINA RESULT:      -8.6      1.455      2.191
REMARK  Name = 
REMARK  6 active torsions:
REMARK  status: ('A' for Active; 'I' for Inactive)
REMARK    1  A    between atoms: C_1  and  C_2
REMARK    2  A    between atoms: N_4  and  C_5
REMARK    3  A    between atoms: C_9  and  N_10
REMARK    4  A    between atoms: N_10  and  S_11
REMARK    5  A    between atoms: S_11  and  C_14
REMARK    6  A    between atoms: C_25  and  C_26
REMARK                            x       y       z     vdW  Elec       q    Type
REMARK                         _______ _______ _______ _____ _____    ______ ____
ROOT
ATOM      1  C   UNL     1       1.394   9.043  19.306  0.00  0.00    +0.000 A 
ATOM      2  C   UNL     1       2.110   9.135  18.102  0.00  0.00    +0.000 A 
ATOM      3  C   UNL     1       2.892   8.072  17.633  0.00  0.00    +0.000 A 
ATOM      4  C   UNL     1       2.997   6.893  18.382  0.00  0.00    +0.000 A 
ATOM      5  C   UNL     1       2.319   6.799  19.592  0.00  0.00    +0.000 A 
ATOM      6  C   UNL     1       1.519   7.857  20.030  0.00  0.00    +0.000 A 
ENDROOT
BRANCH   1  10
ATOM      7  C   UNL     1      -1.034  10.612  23.152  0.00  0.00    +0.000 C 
ATOM      8  C   UNL     1       0.025  10.745  22.059  0.00  0.00    +0.000 C 
ATOM      9  C   UNL     1      -0.383   9.893  20.832  0.00  0.00    +0.000 C 
ATOM     10  N   UNL     1       0.559  10.070  19.714  0.00  0.00    +0.000 N 
ATOM     11  C   UNL     1       0.848  11.475  19.364  0.00  0.00    +0.000 C 
ATOM     12  C   UNL     1       1.186  12.316  20.633  0.00  0.00    +0.000 C 
ATOM     13  C   UNL     1       1.297  13.799  20.273  0.00  0.00    +0.000 C 
ATOM     14  N   UNL     1       0.186  12.179  21.722  0.00  0.00    +0.000 NA
ATOM     15  H   UNL     1      -0.709  12.532  21.382  0.00  0.00    +0.000 HD
ENDBRANCH   1  10
BRANCH   5  16
ATOM     16  N   UNL     1       2.438   5.672  20.457  0.00  0.00    +0.000 N 
ATOM     17  H   UNL     1       3.194   5.778  21.136  0.00  0.00    +0.000 HD
BRANCH  16  18
ATOM     18  S   UNL     1       2.600   4.144  19.752  0.00  0.00    +0.000 S 
ATOM     19  O   UNL     1       3.120   3.252  20.768  0.00  0.00    +0.000 OA
ATOM     20  O   UNL     1       1.343   3.849  19.100  0.00  0.00    +0.000 OA
BRANCH  18  21
ATOM     21  C   UNL     1       3.844   4.139  18.482  0.00  0.00    +0.000 A 
ATOM     22  C   UNL     1       3.703   3.902  17.133  0.00  0.00    +0.000 A 
ATOM     23  C   UNL     1       4.881   4.182  16.381  0.00  0.00    +0.000 A 
ATOM     24  C   UNL     1       5.069   4.192  14.981  0.00  0.00    +0.000 A 
ATOM     25  C   UNL     1       6.334   4.408  14.440  0.00  0.00    +0.000 A 
ATOM     26  C   UNL     1       7.421   4.610  15.279  0.00  0.00    +0.000 A 
ATOM     27  C   UNL     1       7.255   4.665  16.671  0.00  0.00    +0.000 A 
ATOM     28  C   UNL     1       5.965   4.464  17.213  0.00  0.00    +0.000 A 
ATOM     29  S   UNL     1       5.459   4.530  18.874  0.00  0.00    +0.000 S 
ENDBRANCH  18  21
ENDBRANCH  16  18
ENDBRANCH   5  16
TORSDOF 4
ENDMDL
MODEL 3
REMARK VINA RESULT:      -8.3      1.329      1.768
REMARK  Name = 
REMARK  6 active torsions:
REMARK  status: ('A' for Active; 'I' for Inactive)
REMARK    1  A    between atoms: C_1  and  C_2
REMARK    2  A    between atoms: N_4  and  C_5
REMARK    3  A    between atoms: C_9  and  N_10
REMARK    4  A    between atoms: N_10  and  S_11
REMARK    5  A    between atoms: S_11  and  C_14
REMARK    6  A    between atoms: C_25  and  C_26
REMARK                            x       y       z     vdW  Elec       q    Type
REMARK                         _______ _______ _______ _____ _____    ______ ____
ROOT
ATOM      1  C   UNL     1       1.608   9.068  19.653  0.00  0.00    +0.000 A 
ATOM      2  C   UNL     1       1.913   9.030  18.284  0.00  0.00    +0.000 A 
ATOM      3  C   UNL     1       2.302   7.842  17.653  0.00  0.00    +0.000 A 
ATOM      4  C   UNL     1       2.423   6.660  18.396  0.00  0.00    +0.000 A 
ATOM      5  C   UNL     1       2.157   6.689  19.759  0.00  0.00    +0.000 A 
ATOM      6  C   UNL     1       1.740   7.877  20.367  0.00  0.00    +0.000 A 
ENDROOT
BRANCH   1  10
ATOM      7  C   UNL     1      -1.297  12.811  18.816  0.00  0.00    +0.000 C 
ATOM      8  C   UNL     1      -0.863  11.566  19.587  0.00  0.00    +0.000 C 
ATOM      9  C   UNL     1       0.665  11.363  19.434  0.00  0.00    +0.000 C 
ATOM     10  N   UNL     1       1.144  10.232  20.244  0.00  0.00    +0.000 N 
ATOM     11  C   UNL     1       0.710  10.252  21.655  0.00  0.00    +0.000 C 
ATOM     12  C   UNL     1      -0.821  10.527  21.772  0.00  0.00    +0.000 C 
ATOM     13  C   UNL     1      -1.215  10.729  23.236  0.00  0.00    +0.000 C 
ATOM     14  N   UNL     1      -1.273  11.716  21.004  0.00  0.00    +0.000 NA
ATOM     15  H   UNL     1      -0.810  12.540  21.388  0.00  0.00    +0.000 HD
ENDBRANCH   1  10
BRANCH   5  16
ATOM     16  N   UNL     1       2.337   5.555  20.605  0.00  0.00    +0.000 N 
ATOM     17  H   UNL     1       3.100   5.683  21.272  0.00  0.00    +0.000 HD
BRANCH  16  18
ATOM     18  S   UNL     1       2.548   4.046  19.875  0.00  0.00    +0.000 S 
ATOM     19  O   UNL     1       3.073   3.147  20.883  0.00  0.00    +0.000 OA
ATOM     20  O   UNL     1       1.309   3.733  19.197  0.00  0.00    +0.000 OA
BRANCH  18  21
ATOM     21  C   UNL     1       3.812   4.095  18.626  0.00  0.00    +0.000 A 
ATOM     22  C   UNL     1       3.714   3.809  17.283  0.00  0.00    +0.000 A 
ATOM     23  C   UNL     1       4.882   4.152  16.543  0.00  0.00    +0.000 A 
ATOM     24  C   UNL     1       5.095   4.135  15.146  0.00  0.00    +0.000 A 
ATOM     25  C   UNL     1       6.351   4.427  14.620  0.00  0.00    +0.000 A 
ATOM     26  C   UNL     1       7.404   4.733  15.469  0.00  0.00    +0.000 A 
ATOM     27  C   UNL     1       7.209   4.816  16.856  0.00  0.00    +0.000 A 
ATOM     28  C   UNL     1       5.927   4.537  17.383  0.00  0.00    +0.000 A 
ATOM     29  S   UNL     1       5.387   4.614  19.033  0.00  0.00    +0.000 S 
ENDBRANCH  18  21
ENDBRANCH  16  18
ENDBRANCH   5  16
TORSDOF 4
ENDMDL
MODEL 4
REMARK VINA RESULT:      -8.2      0.885      1.349
REMARK  Name = 
REMARK  6 active torsions:
REMARK  status: ('A' for Active; 'I' for Inactive)
REMARK    1  A    between atoms: C_1  and  C_2
REMARK    2  A    between atoms: N_4  and  C_5
REMARK    3  A    between atoms: C_9  and  N_10
REMARK    4  A    between atoms: N_10  and  S_11
REMARK    5  A    between atoms: S_11  and  C_14
REMARK    6  A    between atoms: C_25  and  C_26
REMARK                            x       y       z     vdW  Elec       q    Type
REMARK                         _______ _______ _______ _____ _____    ______ ____
ROOT
ATOM      1  C   UNL     1       0.985   9.999  19.600  0.00  0.00    +0.000 A 
ATOM      2  C   UNL     1       1.506   9.902  18.301  0.00  0.00    +0.000 A 
ATOM      3  C   UNL     1       2.138   8.736  17.850  0.00  0.00    +0.000 A 
ATOM      4  C   UNL     1       2.286   7.641  18.711  0.00  0.00    +0.000 A 
ATOM      5  C   UNL     1       1.804   7.733  20.011  0.00  0.00    +0.000 A 
ATOM      6  C   UNL     1       1.150   8.893  20.435  0.00  0.00    +0.000 A 
ENDROOT
BRANCH   1  10
ATOM      7  C   UNL     1       0.797  14.754  18.888  0.00  0.00    +0.000 C 
ATOM      8  C   UNL     1       0.209  13.345  18.855  0.00  0.00    +0.000 C 
ATOM      9  C   UNL     1       0.896  12.467  19.930  0.00  0.00    +0.000 C 
ATOM     10  N   UNL     1       0.290  11.127  20.003  0.00  0.00    +0.000 N 
ATOM     11  C   UNL     1      -1.182  11.118  20.115  0.00  0.00    +0.000 C 
ATOM     12  C   UNL     1      -1.835  12.067  19.062  0.00  0.00    +0.000 C 
ATOM     13  C   UNL     1      -3.339  12.187  19.316  0.00  0.00    +0.000 C 
ATOM     14  N   UNL     1      -1.258  13.435  19.054  0.00  0.00    +0.000 NA
ATOM     15  H   UNL     1      -1.433  13.863  19.964  0.00  0.00    +0.000 HD
ENDBRANCH   1  10
BRANCH   5  16
ATOM     16  N   UNL     1       1.988   6.702  20.978  0.00  0.00    +0.000 N 
ATOM     17  H   UNL     1       2.769   6.892  21.609  0.00  0.00    +0.000 HD
BRANCH  16  18
ATOM     18  S   UNL     1       2.161   5.115  20.422  0.00  0.00    +0.000 S 
ATOM     19  O   UNL     1       2.631   4.315  21.536  0.00  0.00    +0.000 OA
ATOM     20  O   UNL     1       0.928   4.771  19.750  0.00  0.00    +0.000 OA
BRANCH  18  21
ATOM     21  C   UNL     1       3.455   4.985  19.209  0.00  0.00    +0.000 A 
ATOM     22  C   UNL     1       4.786   5.313  19.325  0.00  0.00    +0.000 A 
ATOM     23  C   UNL     1       5.576   4.886  18.219  0.00  0.00    +0.000 A 
ATOM     24  C   UNL     1       6.978   4.920  18.051  0.00  0.00    +0.000 A 
ATOM     25  C   UNL     1       7.555   4.529  16.846  0.00  0.00    +0.000 A 
ATOM     26  C   UNL     1       6.751   4.107  15.797  0.00  0.00    +0.000 A 
ATOM     27  C   UNL     1       5.360   4.006  15.953  0.00  0.00    +0.000 A 
ATOM     28  C   UNL     1       4.782   4.385  17.186  0.00  0.00    +0.000 A 
ATOM     29  S   UNL     1       3.116   4.314  17.676  0.00  0.00    +0.000 S 
ENDBRANCH  18  21
ENDBRANCH  16  18
ENDBRANCH   5  16
TORSDOF 4
ENDMDL
MODEL 5
REMARK VINA RESULT:      -8.0      4.354      9.891
REMARK  Name = 
REMARK  6 active torsions:
REMARK  status: ('A' for Active; 'I' for Inactive)
REMARK    1  A    between atoms: C_1  and  C_2
REMARK    2  A    between atoms: N_4  and  C_5
REMARK    3  A    between atoms: C_9  and  N_10
REMARK    4  A    between atoms: N_10  and  S_11
REMARK    5  A    between atoms: S_11  and  C_14
REMARK    6  A    between atoms: C_25  and  C_26
REMARK                            x       y       z     vdW  Elec       q    Type
REMARK                         _______ _______ _______ _____ _____    ______ ____
ROOT
ATOM      1  C   UNL     1       2.163   7.431  19.296  0.00  0.00    +0.000 A 
ATOM      2  C   UNL     1       2.449   8.115  18.105  0.00  0.00    +0.000 A 
ATOM      3  C   UNL     1       1.883   9.366  17.825  0.00  0.00    +0.000 A 
ATOM      4  C   UNL     1       0.987   9.949  18.730  0.00  0.00    +0.000 A 
ATOM      5  C   UNL     1       0.669   9.268  19.899  0.00  0.00    +0.000 A 
ATOM      6  C   UNL     1       1.266   8.036  20.177  0.00  0.00    +0.000 A 
ENDROOT
BRANCH   1  10
ATOM      7  C   UNL     1       1.245   2.990  20.905  0.00  0.00    +0.000 C 
ATOM      8  C   UNL     1       1.738   3.988  19.859  0.00  0.00    +0.000 C 
ATOM      9  C   UNL     1       2.217   5.284  20.559  0.00  0.00    +0.000 C 
ATOM     10  N   UNL     1       2.796   6.236  19.596  0.00  0.00    +0.000 N 
ATOM     11  C   UNL     1       3.815   5.663  18.695  0.00  0.00    +0.000 C 
ATOM     12  C   UNL     1       3.324   4.324  18.063  0.00  0.00    +0.000 C 
ATOM     13  C   UNL     1       4.459   3.656  17.285  0.00  0.00    +0.000 C 
ATOM     14  N   UNL     1       2.810   3.349  19.059  0.00  0.00    +0.000 NA
ATOM     15  H   UNL     1       3.574   3.099  19.686  0.00  0.00    +0.000 HD
ENDBRANCH   1  10
BRANCH   5  16
ATOM     16  N   UNL     1      -0.297   9.747  20.833  0.00  0.00    +0.000 N 
ATOM     17  H   UNL     1      -1.094  10.193  20.377  0.00  0.00    +0.000 HD
BRANCH  16  18
ATOM     18  S   UNL     1       0.232  10.786  22.058  0.00  0.00    +0.000 S 
ATOM     19  O   UNL     1       0.333  10.003  23.274  0.00  0.00    +0.000 OA
ATOM     20  O   UNL     1       1.390  11.482  21.544  0.00  0.00    +0.000 OA
BRANCH  18  21
ATOM     21  C   UNL     1      -0.983  12.028  22.433  0.00  0.00    +0.000 A 
ATOM     22  C   UNL     1      -2.237  11.874  22.981  0.00  0.00    +0.000 A 
ATOM     23  C   UNL     1      -2.858  13.108  23.331  0.00  0.00    +0.000 A 
ATOM     24  C   UNL     1      -4.063  13.337  24.032  0.00  0.00    +0.000 A 
ATOM     25  C   UNL     1      -4.547  14.632  24.200  0.00  0.00    +0.000 A 
ATOM     26  C   UNL     1      -3.847  15.707  23.672  0.00  0.00    +0.000 A 
ATOM     27  C   UNL     1      -2.618  15.516  23.023  0.00  0.00    +0.000 A 
ATOM     28  C   UNL     1      -2.122  14.201  22.873  0.00  0.00    +0.000 A 
ATOM     29  S   UNL     1      -0.622  13.676  22.171  0.00  0.00    +0.000 S 
ENDBRANCH  18  21
ENDBRANCH  16  18
ENDBRANCH   5  16
TORSDOF 4
ENDMDL
MODEL 6
REMARK VINA RESULT:      -8.0      3.450      9.143
REMARK  Name = 
REMARK  6 active torsions:
REMARK  status: ('A' for Active; 'I' for Inactive)
REMARK    1  A    between atoms: C_1  and  C_2
REMARK    2  A    between atoms: N_4  and  C_5
REMARK    3  A    between atoms: C_9  and  N_10
REMARK    4  A    between atoms: N_10  and  S_11
REMARK    5  A    between atoms: S_11  and  C_14
REMARK    6  A    between atoms: C_25  and  C_26
REMARK                            x       y       z     vdW  Elec       q    Type
REMARK                         _______ _______ _______ _____ _____    ______ ____
ROOT
ATOM      1  C   UNL     1       2.812   6.980  18.510  0.00  0.00    +0.000 A 
ATOM      2  C   UNL     1       2.321   6.741  19.802  0.00  0.00    +0.000 A 
ATOM      3  C   UNL     1       1.535   7.687  20.473  0.00  0.00    +0.000 A 
ATOM      4  C   UNL     1       1.246   8.917  19.866  0.00  0.00    +0.000 A 
ATOM      5  C   UNL     1       1.753   9.180  18.599  0.00  0.00    +0.000 A 
ATOM      6  C   UNL     1       2.510   8.213  17.932  0.00  0.00    +0.000 A 
ENDROOT
BRANCH   1  10
ATOM      7  C   UNL     1       7.236   5.135  18.087  0.00  0.00    +0.000 C 
ATOM      8  C   UNL     1       5.748   5.050  18.423  0.00  0.00    +0.000 C 
ATOM      9  C   UNL     1       4.969   6.114  17.611  0.00  0.00    +0.000 C 
ATOM     10  N   UNL     1       3.517   6.001  17.827  0.00  0.00    +0.000 N 
ATOM     11  C   UNL     1       2.969   4.641  17.660  0.00  0.00    +0.000 C 
ATOM     12  C   UNL     1       3.820   3.589  18.436  0.00  0.00    +0.000 C 
ATOM     13  C   UNL     1       3.350   2.173  18.100  0.00  0.00    +0.000 C 
ATOM     14  N   UNL     1       5.275   3.672  18.149  0.00  0.00    +0.000 NA
ATOM     15  H   UNL     1       5.418   3.474  17.159  0.00  0.00    +0.000 HD
ENDBRANCH   1  10
BRANCH   5  16
ATOM     16  N   UNL     1       1.580  10.435  17.945  0.00  0.00    +0.000 N 
ATOM     17  H   UNL     1       2.434  10.757  17.485  0.00  0.00    +0.000 HD
BRANCH  16  18
ATOM     18  S   UNL     1       0.976  11.727  18.853  0.00  0.00    +0.000 S 
ATOM     19  O   UNL     1       1.258  11.445  20.246  0.00  0.00    +0.000 OA
ATOM     20  O   UNL     1       1.476  12.938  18.241  0.00  0.00    +0.000 OA
BRANCH  18  21
ATOM     21  C   UNL     1      -0.798  11.811  18.770  0.00  0.00    +0.000 A 
ATOM     22  C   UNL     1      -1.648  11.260  17.838  0.00  0.00    +0.000 A 
ATOM     23  C   UNL     1      -3.023  11.356  18.196  0.00  0.00    +0.000 A 
ATOM     24  C   UNL     1      -4.155  10.791  17.568  0.00  0.00    +0.000 A 
ATOM     25  C   UNL     1      -5.437  11.078  18.030  0.00  0.00    +0.000 A 
ATOM     26  C   UNL     1      -5.609  11.929  19.112  0.00  0.00    +0.000 A 
ATOM     27  C   UNL     1      -4.503  12.458  19.793  0.00  0.00    +0.000 A 
ATOM     28  C   UNL     1      -3.203  12.148  19.331  0.00  0.00    +0.000 A 
ATOM     29  S   UNL     1      -1.668  12.610  20.002  0.00  0.00    +0.000 S 
ENDBRANCH  18  21
ENDBRANCH  16  18
ENDBRANCH   5  16
TORSDOF 4
ENDMDL
MODEL 7
REMARK VINA RESULT:      -8.0      3.603      9.183
REMARK  Name = 
REMARK  6 active torsions:
REMARK  status: ('A' for Active; 'I' for Inactive)
REMARK    1  A    between atoms: C_1  and  C_2
REMARK    2  A    between atoms: N_4  and  C_5
REMARK    3  A    between atoms: C_9  and  N_10
REMARK    4  A    between atoms: N_10  and  S_11
REMARK    5  A    between atoms: S_11  and  C_14
REMARK    6  A    between atoms: C_25  and  C_26
REMARK                            x       y       z     vdW  Elec       q    Type
REMARK                         _______ _______ _______ _____ _____    ______ ____
ROOT
ATOM      1  C   UNL     1       2.229   7.425  19.349  0.00  0.00    +0.000 A 
ATOM      2  C   UNL     1       2.269   8.061  18.099  0.00  0.00    +0.000 A 
ATOM      3  C   UNL     1       1.722   9.337  17.909  0.00  0.00    +0.000 A 
ATOM      4  C   UNL     1       1.091   9.995  18.973  0.00  0.00    +0.000 A 
ATOM      5  C   UNL     1       1.014   9.363  20.208  0.00  0.00    +0.000 A 
ATOM      6  C   UNL     1       1.592   8.104  20.388  0.00  0.00    +0.000 A 
ENDROOT
BRANCH   1  10
ATOM      7  C   UNL     1       1.279   2.894  20.663  0.00  0.00    +0.000 C 
ATOM      8  C   UNL     1       1.758   3.957  19.675  0.00  0.00    +0.000 C 
ATOM      9  C   UNL     1       2.283   5.191  20.450  0.00  0.00    +0.000 C 
ATOM     10  N   UNL     1       2.848   6.200  19.540  0.00  0.00    +0.000 N 
ATOM     11  C   UNL     1       3.827   5.679  18.567  0.00  0.00    +0.000 C 
ATOM     12  C   UNL     1       3.291   4.397  17.857  0.00  0.00    +0.000 C 
ATOM     13  C   UNL     1       4.388   3.769  16.995  0.00  0.00    +0.000 C 
ATOM     14  N   UNL     1       2.792   3.361  18.796  0.00  0.00    +0.000 NA
ATOM     15  H   UNL     1       3.571   3.053  19.378  0.00  0.00    +0.000 HD
ENDBRANCH   1  10
BRANCH   5  16
ATOM     16  N   UNL     1       0.317   9.922  21.319  0.00  0.00    +0.000 N 
ATOM     17  H   UNL     1      -0.551   9.426  21.526  0.00  0.00    +0.000 HD
BRANCH  16  18
ATOM     18  S   UNL     1      -0.040  11.574  21.282  0.00  0.00    +0.000 S 
ATOM     19  O   UNL     1      -0.339  11.983  22.640  0.00  0.00    +0.000 OA
ATOM     20  O   UNL     1       1.028  12.216  20.549  0.00  0.00    +0.000 OA
BRANCH  18  21
ATOM     21  C   UNL     1      -1.539  11.899  20.384  0.00  0.00    +0.000 A 
ATOM     22  C   UNL     1      -1.853  11.584  19.081  0.00  0.00    +0.000 A 
ATOM     23  C   UNL     1      -3.221  11.813  18.755  0.00  0.00    +0.000 A 
ATOM     24  C   UNL     1      -3.930  11.482  17.579  0.00  0.00    +0.000 A 
ATOM     25  C   UNL     1      -5.257  11.875  17.419  0.00  0.00    +0.000 A 
ATOM     26  C   UNL     1      -5.889  12.600  18.419  0.00  0.00    +0.000 A 
ATOM     27  C   UNL     1      -5.231  12.892  19.623  0.00  0.00    +0.000 A 
ATOM     28  C   UNL     1      -3.890  12.474  19.786  0.00  0.00    +0.000 A 
ATOM     29  S   UNL     1      -2.857  12.645  21.172  0.00  0.00    +0.000 S 
ENDBRANCH  18  21
ENDBRANCH  16  18
ENDBRANCH   5  16
TORSDOF 4
ENDMDL
MODEL 8
REMARK VINA RESULT:      -7.9      2.953      8.664
REMARK  Name = 
REMARK  6 active torsions:
REMARK  status: ('A' for Active; 'I' for Inactive)
REMARK    1  A    between atoms: C_1  and  C_2
REMARK    2  A    between atoms: N_4  and  C_5
REMARK    3  A    between atoms: C_9  and  N_10
REMARK    4  A    between atoms: N_10  and  S_11
REMARK    5  A    between atoms: S_11  and  C_14
REMARK    6  A    between atoms: C_25  and  C_26
REMARK                            x       y       z     vdW  Elec       q    Type
REMARK                         _______ _______ _______ _____ _____    ______ ____
ROOT
ATOM      1  C   UNL     1       4.236   4.067  17.520  0.00  0.00    +0.000 A 
ATOM      2  C   UNL     1       3.630   2.801  17.538  0.00  0.00    +0.000 A 
ATOM      3  C   UNL     1       2.256   2.651  17.767  0.00  0.00    +0.000 A 
ATOM      4  C   UNL     1       1.459   3.776  18.014  0.00  0.00    +0.000 A 
ATOM      5  C   UNL     1       2.050   5.033  18.031  0.00  0.00    +0.000 A 
ATOM      6  C   UNL     1       3.417   5.168  17.771  0.00  0.00    +0.000 A 
ENDROOT
BRANCH   1  10
ATOM      7  C   UNL     1       7.177   4.775  13.778  0.00  0.00    +0.000 C 
ATOM      8  C   UNL     1       6.558   5.162  15.120  0.00  0.00    +0.000 C 
ATOM      9  C   UNL     1       6.091   3.888  15.866  0.00  0.00    +0.000 C 
ATOM     10  N   UNL     1       5.579   4.205  17.209  0.00  0.00    +0.000 N 
ATOM     11  C   UNL     1       6.470   5.051  18.028  0.00  0.00    +0.000 C 
ATOM     12  C   UNL     1       6.976   6.286  17.222  0.00  0.00    +0.000 C 
ATOM     13  C   UNL     1       8.038   7.044  18.020  0.00  0.00    +0.000 C 
ATOM     14  N   UNL     1       7.554   5.938  15.899  0.00  0.00    +0.000 NA
ATOM     15  H   UNL     1       8.372   5.349  16.052  0.00  0.00    +0.000 HD
ENDBRANCH   1  10
BRANCH   5  16
ATOM     16  N   UNL     1       1.331   6.220  18.358  0.00  0.00    +0.000 N 
ATOM     17  H   UNL     1       0.854   6.623  17.549  0.00  0.00    +0.000 HD
BRANCH  16  18
ATOM     18  S   UNL     1       2.171   7.471  19.125  0.00  0.00    +0.000 S 
ATOM     19  O   UNL     1       2.971   6.873  20.176  0.00  0.00    +0.000 OA
ATOM     20  O   UNL     1       2.804   8.249  18.084  0.00  0.00    +0.000 OA
BRANCH  18  21
ATOM     21  C   UNL     1       1.068   8.570  19.982  0.00  0.00    +0.000 A 
ATOM     22  C   UNL     1       0.591   8.487  21.271  0.00  0.00    +0.000 A 
ATOM     23  C   UNL     1      -0.112   9.653  21.692  0.00  0.00    +0.000 A 
ATOM     24  C   UNL     1      -0.613   9.984  22.971  0.00  0.00    +0.000 A 
ATOM     25  C   UNL     1      -1.356  11.146  23.160  0.00  0.00    +0.000 A 
ATOM     26  C   UNL     1      -1.613  11.986  22.086  0.00  0.00    +0.000 A 
ATOM     27  C   UNL     1      -1.079  11.715  20.817  0.00  0.00    +0.000 A 
ATOM     28  C   UNL     1      -0.309  10.543  20.636  0.00  0.00    +0.000 A 
ATOM     29  S   UNL     1       0.512   9.988  19.209  0.00  0.00    +0.000 S 
ENDBRANCH  18  21
ENDBRANCH  16  18
ENDBRANCH   5  16
TORSDOF 4
ENDMDL
MODEL 9
REMARK VINA RESULT:      -7.9      3.405      9.225
REMARK  Name = 
REMARK  6 active torsions:
REMARK  status: ('A' for Active; 'I' for Inactive)
REMARK    1  A    between atoms: C_1  and  C_2
REMARK    2  A    between atoms: N_4  and  C_5
REMARK    3  A    between atoms: C_9  and  N_10
REMARK    4  A    between atoms: N_10  and  S_11
REMARK    5  A    between atoms: S_11  and  C_14
REMARK    6  A    between atoms: C_25  and  C_26
REMARK                            x       y       z     vdW  Elec       q    Type
REMARK                         _______ _______ _______ _____ _____    ______ ____
ROOT
ATOM      1  C   UNL     1       2.771   6.901  18.816  0.00  0.00    +0.000 A 
ATOM      2  C   UNL     1       2.212   6.694  20.086  0.00  0.00    +0.000 A 
ATOM      3  C   UNL     1       1.383   7.651  20.686  0.00  0.00    +0.000 A 
ATOM      4  C   UNL     1       1.118   8.860  20.029  0.00  0.00    +0.000 A 
ATOM      5  C   UNL     1       1.692   9.093  18.785  0.00  0.00    +0.000 A 
ATOM      6  C   UNL     1       2.491   8.115  18.188  0.00  0.00    +0.000 A 
ENDROOT
BRANCH   1  10
ATOM      7  C   UNL     1       7.309   5.381  18.314  0.00  0.00    +0.000 C 
ATOM      8  C   UNL     1       5.855   5.216  18.753  0.00  0.00    +0.000 C 
ATOM      9  C   UNL     1       4.942   6.113  17.881  0.00  0.00    +0.000 C 
ATOM     10  N   UNL     1       3.520   5.910  18.201  0.00  0.00    +0.000 N 
ATOM     11  C   UNL     1       3.084   4.500  18.221  0.00  0.00    +0.000 C 
ATOM     12  C   UNL     1       4.065   3.616  19.050  0.00  0.00    +0.000 C 
ATOM     13  C   UNL     1       3.702   2.138  18.904  0.00  0.00    +0.000 C 
ATOM     14  N   UNL     1       5.489   3.783  18.663  0.00  0.00    +0.000 NA
ATOM     15  H   UNL     1       5.595   3.484  17.693  0.00  0.00    +0.000 HD
ENDBRANCH   1  10
BRANCH   5  16
ATOM     16  N   UNL     1       1.545  10.328  18.086  0.00  0.00    +0.000 N 
ATOM     17  H   UNL     1       2.423  10.650  17.675  0.00  0.00    +0.000 HD
BRANCH  16  18
ATOM     18  S   UNL     1       0.863  11.633  18.917  0.00  0.00    +0.000 S 
ATOM     19  O   UNL     1       1.228  11.495  20.313  0.00  0.00    +0.000 OA
ATOM     20  O   UNL     1       1.225  12.827  18.186  0.00  0.00    +0.000 OA
BRANCH  18  21
ATOM     21  C   UNL     1      -0.913  11.553  18.915  0.00  0.00    +0.000 A 
ATOM     22  C   UNL     1      -1.807  12.163  19.765  0.00  0.00    +0.000 A 
ATOM     23  C   UNL     1      -3.163  12.043  19.344  0.00  0.00    +0.000 A 
ATOM     24  C   UNL     1      -4.324  12.648  19.877  0.00  0.00    +0.000 A 
ATOM     25  C   UNL     1      -5.581  12.331  19.369  0.00  0.00    +0.000 A 
ATOM     26  C   UNL     1      -5.700  11.412  18.337  0.00  0.00    +0.000 A 
ATOM     27  C   UNL     1      -4.563  10.841  17.748  0.00  0.00    +0.000 A 
ATOM     28  C   UNL     1      -3.287  11.181  18.254  0.00  0.00    +0.000 A 
ATOM     29  S   UNL     1      -1.722  10.677  17.693  0.00  0.00    +0.000 S 
ENDBRANCH  18  21
ENDBRANCH  16  18
ENDBRANCH   5  16
TORSDOF 4
ENDMDL
