MODEL 1
REMARK VINA RESULT:      -8.1      0.000      0.000
REMARK  Name = 
REMARK  11 active torsions:
REMARK  status: ('A' for Active; 'I' for Inactive)
REMARK    1  A    between atoms: C_1  and  C_2
REMARK    2  A    between atoms: C_2  and  O_3
REMARK    3  A    between atoms: O_3  and  C_4
REMARK    4  A    between atoms: C_4  and  C_5
REMARK    5  A    between atoms: C_5  and  O_6
REMARK    6  A    between atoms: O_6  and  C_7
REMARK    7  A    between atoms: C_9  and  C_10
REMARK    8  A    between atoms: C_18  and  N_19
REMARK    9  A    between atoms: N_22  and  S_23
REMARK   10  A    between atoms: S_23  and  C_26
REMARK   11  A    between atoms: C_26  and  C_27
REMARK                            x       y       z     vdW  Elec       q    Type
REMARK                         _______ _______ _______ _____ _____    ______ ____
ROOT
ATOM      1  C   UNL     1       2.524   6.402  19.500  0.00  0.00    +0.000 A 
ATOM      2  C   UNL     1       3.413   5.663  18.697  0.00  0.00    +0.000 A 
ATOM      3  C   UNL     1       4.070   6.194  17.578  0.00  0.00    +0.000 A 
ATOM      4  C   UNL     1       3.801   7.525  17.267  0.00  0.00    +0.000 A 
ATOM      5  C   UNL     1       2.934   8.283  18.061  0.00  0.00    +0.000 A 
ATOM      6  C   UNL     1       2.258   7.751  19.180  0.00  0.00    +0.000 A 
ENDROOT
BRANCH   3   7
ATOM      7  C   UNL     1       5.060   5.379  16.846  0.00  0.00    +0.000 A 
ATOM      8  C   UNL     1       6.391   5.249  17.295  0.00  0.00    +0.000 A 
ATOM      9  C   UNL     1       7.364   4.617  16.522  0.00  0.00    +0.000 A 
ATOM     10  C   UNL     1       7.017   4.059  15.295  0.00  0.00    +0.000 A 
ATOM     11  C   UNL     1       5.701   4.130  14.849  0.00  0.00    +0.000 A 
ATOM     12  C   UNL     1       4.736   4.785  15.614  0.00  0.00    +0.000 A 
ENDBRANCH   3   7
BRANCH   6  13
ATOM     13  N   UNL     1       1.315   8.518  19.854  0.00  0.00    +0.000 N 
ATOM     14  C   UNL     1       0.941   9.837  19.327  0.00  0.00    +0.000 C 
ATOM     15  C   UNL     1      -0.536  10.096  19.646  0.00  0.00    +0.000 C 
ATOM     16  N   UNL     1      -0.839  10.010  21.112  0.00  0.00    +0.000 NA
ATOM     17  C   UNL     1      -0.360   8.680  21.657  0.00  0.00    +0.000 C 
ATOM     18  C   UNL     1       1.119   8.387  21.312  0.00  0.00    +0.000 C 
BRANCH  16  19
ATOM     19  S   UNL     1      -0.436  11.366  22.062  0.00  0.00    +0.000 S 
ATOM     20  O   UNL     1      -0.516  10.946  23.447  0.00  0.00    +0.000 OA
ATOM     21  O   UNL     1       0.787  11.926  21.525  0.00  0.00    +0.000 OA
BRANCH  19  22
ATOM     22  C   UNL     1      -1.816  12.470  21.707  0.00  0.00    +0.000 C 
BRANCH  22  23
ATOM     23  C   UNL     1      -2.122  13.305  22.918  0.00  0.00    +0.000 A 
ATOM     24  C   UNL     1      -3.345  13.159  23.589  0.00  0.00    +0.000 A 
ATOM     25  C   UNL     1      -3.622  13.920  24.725  0.00  0.00    +0.000 A 
ATOM     26  C   UNL     1      -2.679  14.833  25.197  0.00  0.00    +0.000 A 
ATOM     27  C   UNL     1      -1.465  14.990  24.533  0.00  0.00    +0.000 A 
ATOM     28  C   UNL     1      -1.187  14.232  23.396  0.00  0.00    +0.000 A 
ENDBRANCH  22  23
ENDBRANCH  19  22
ENDBRANCH  16  19
ENDBRANCH   6  13
BRANCH   1  29
ATOM     29  O   UNL     1       1.865   5.824  20.572  0.00  0.00    +0.000 OA
BRANCH  29  30
ATOM     30  C   UNL     1       2.274   4.492  20.899  0.00  0.00    +0.000 C 
BRANCH  30  31
ATOM     31  C   UNL     1       1.130   3.498  20.779  0.00  0.00    +0.000 C 
BRANCH  31  32
ATOM     32  O   UNL     1       1.077   3.062  19.417  0.00  0.00    +0.000 OA
BRANCH  32  34
ATOM     33  C   UNL     1       2.532   2.268  17.695  0.00  0.00    +0.000 C 
ATOM     34  C   UNL     1       2.072   2.086  19.128  0.00  0.00    +0.000 C 
ENDBRANCH  32  34
ENDBRANCH  31  32
ENDBRANCH  30  31
ENDBRANCH  29  30
ENDBRANCH   1  29
TORSDOF 10
ENDMDL
MODEL 2
REMARK VINA RESULT:      -8.0      0.627      1.099
REMARK  Name = 
REMARK  11 active torsions:
REMARK  status: ('A' for Active; 'I' for Inactive)
REMARK    1  A    between atoms: C_1  and  C_2
REMARK    2  A    between atoms: C_2  and  O_3
REMARK    3  A    between atoms: O_3  and  C_4
REMARK    4  A    between atoms: C_4  and  C_5
REMARK    5  A    between atoms: C_5  and  O_6
REMARK    6  A    between atoms: O_6  and  C_7
REMARK    7  A    between atoms: C_9  and  C_10
REMARK    8  A    between atoms: C_18  and  N_19
REMARK    9  A    between atoms: N_22  and  S_23
REMARK   10  A    between atoms: S_23  and  C_26
REMARK   11  A    between atoms: C_26  and  C_27
REMARK                            x       y       z     vdW  Elec       q    Type
REMARK                         _______ _______ _______ _____ _____    ______ ____
ROOT
ATOM      1  C   UNL     1       2.431   6.458  19.379  0.00  0.00    +0.000 A 
ATOM      2  C   UNL     1       3.273   5.723  18.523  0.00  0.00    +0.000 A 
ATOM      3  C   UNL     1       3.881   6.266  17.382  0.00  0.00    +0.000 A 
ATOM      4  C   UNL     1       3.611   7.603  17.104  0.00  0.00    +0.000 A 
ATOM      5  C   UNL     1       2.789   8.357  17.949  0.00  0.00    +0.000 A 
ATOM      6  C   UNL     1       2.163   7.814  19.092  0.00  0.00    +0.000 A 
ENDROOT
BRANCH   3   7
ATOM      7  C   UNL     1       4.827   5.452  16.591  0.00  0.00    +0.000 A 
ATOM      8  C   UNL     1       5.548   5.998  15.508  0.00  0.00    +0.000 A 
ATOM      9  C   UNL     1       6.314   5.197  14.664  0.00  0.00    +0.000 A 
ATOM     10  C   UNL     1       6.413   3.830  14.909  0.00  0.00    +0.000 A 
ATOM     11  C   UNL     1       5.751   3.272  15.999  0.00  0.00    +0.000 A 
ATOM     12  C   UNL     1       4.966   4.074  16.826  0.00  0.00    +0.000 A 
ENDBRANCH   3   7
BRANCH   6  13
ATOM     13  N   UNL     1       1.261   8.580  19.821  0.00  0.00    +0.000 N 
ATOM     14  C   UNL     1       0.794   9.863  19.280  0.00  0.00    +0.000 C 
ATOM     15  C   UNL     1      -0.656  10.089  19.727  0.00  0.00    +0.000 C 
ATOM     16  N   UNL     1      -0.818  10.056  21.217  0.00  0.00    +0.000 NA
ATOM     17  C   UNL     1      -0.244   8.766  21.766  0.00  0.00    +0.000 C 
ATOM     18  C   UNL     1       1.206   8.504  21.295  0.00  0.00    +0.000 C 
BRANCH  16  19
ATOM     19  S   UNL     1      -0.375  11.463  22.071  0.00  0.00    +0.000 S 
ATOM     20  O   UNL     1      -0.482  11.147  23.481  0.00  0.00    +0.000 OA
ATOM     21  O   UNL     1       0.872  11.939  21.509  0.00  0.00    +0.000 OA
BRANCH  19  22
ATOM     22  C   UNL     1      -1.712  12.585  21.621  0.00  0.00    +0.000 C 
BRANCH  22  23
ATOM     23  C   UNL     1      -2.206  13.302  22.846  0.00  0.00    +0.000 A 
ATOM     24  C   UNL     1      -1.516  14.419  23.341  0.00  0.00    +0.000 A 
ATOM     25  C   UNL     1      -1.985  15.096  24.465  0.00  0.00    +0.000 A 
ATOM     26  C   UNL     1      -3.146  14.664  25.105  0.00  0.00    +0.000 A 
ATOM     27  C   UNL     1      -3.834  13.551  24.625  0.00  0.00    +0.000 A 
ATOM     28  C   UNL     1      -3.365  12.870  23.502  0.00  0.00    +0.000 A 
ENDBRANCH  22  23
ENDBRANCH  19  22
ENDBRANCH  16  19
ENDBRANCH   6  13
BRANCH   1  29
ATOM     29  O   UNL     1       1.818   5.870  20.472  0.00  0.00    +0.000 OA
BRANCH  29  30
ATOM     30  C   UNL     1       2.381   4.625  20.896  0.00  0.00    +0.000 C 
BRANCH  30  31
ATOM     31  C   UNL     1       1.350   3.509  20.914  0.00  0.00    +0.000 C 
BRANCH  31  32
ATOM     32  O   UNL     1       0.679   3.519  19.650  0.00  0.00    +0.000 OA
BRANCH  32  34
ATOM     33  C   UNL     1       2.011   2.271  18.108  0.00  0.00    +0.000 C 
ATOM     34  C   UNL     1       0.773   2.266  18.983  0.00  0.00    +0.000 C 
ENDBRANCH  32  34
ENDBRANCH  31  32
ENDBRANCH  30  31
ENDBRANCH  29  30
ENDBRANCH   1  29
TORSDOF 10
ENDMDL
MODEL 3
REMARK VINA RESULT:      -7.7      0.635      1.032
REMARK  Name = 
REMARK  11 active torsions:
REMARK  status: ('A' for Active; 'I' for Inactive)
REMARK    1  A    between atoms: C_1  and  C_2
REMARK    2  A    between atoms: C_2  and  O_3
REMARK    3  A    between atoms: O_3  and  C_4
REMARK    4  A    between atoms: C_4  and  C_5
REMARK    5  A    between atoms: C_5  and  O_6
REMARK    6  A    between atoms: O_6  and  C_7
REMARK    7  A    between atoms: C_9  and  C_10
REMARK    8  A    between atoms: C_18  and  N_19
REMARK    9  A    between atoms: N_22  and  S_23
REMARK   10  A    between atoms: S_23  and  C_26
REMARK   11  A    between atoms: C_26  and  C_27
REMARK                            x       y       z     vdW  Elec       q    Type
REMARK                         _______ _______ _______ _____ _____    ______ ____
ROOT
ATOM      1  C   UNL     1       2.615   6.552  19.392  0.00  0.00    +0.000 A 
ATOM      2  C   UNL     1       3.519   5.868  18.557  0.00  0.00    +0.000 A 
ATOM      3  C   UNL     1       4.122   6.446  17.432  0.00  0.00    +0.000 A 
ATOM      4  C   UNL     1       3.783   7.766  17.147  0.00  0.00    +0.000 A 
ATOM      5  C   UNL     1       2.899   8.471  17.971  0.00  0.00    +0.000 A 
ATOM      6  C   UNL     1       2.277   7.891  19.098  0.00  0.00    +0.000 A 
ENDROOT
BRANCH   3   7
ATOM      7  C   UNL     1       5.133   5.689  16.665  0.00  0.00    +0.000 A 
ATOM      8  C   UNL     1       4.935   5.352  15.309  0.00  0.00    +0.000 A 
ATOM      9  C   UNL     1       5.809   4.503  14.633  0.00  0.00    +0.000 A 
ATOM     10  C   UNL     1       6.932   4.002  15.287  0.00  0.00    +0.000 A 
ATOM     11  C   UNL     1       7.178   4.357  16.610  0.00  0.00    +0.000 A 
ATOM     12  C   UNL     1       6.287   5.187  17.290  0.00  0.00    +0.000 A 
ENDBRANCH   3   7
BRANCH   6  13
ATOM     13  N   UNL     1       1.315   8.603  19.805  0.00  0.00    +0.000 N 
ATOM     14  C   UNL     1       0.866   9.909  19.306  0.00  0.00    +0.000 C 
ATOM     15  C   UNL     1      -0.614  10.092  19.662  0.00  0.00    +0.000 C 
ATOM     16  N   UNL     1      -0.878   9.971  21.133  0.00  0.00    +0.000 NA
ATOM     17  C   UNL     1      -0.323   8.659  21.648  0.00  0.00    +0.000 C 
ATOM     18  C   UNL     1       1.159   8.442  21.265  0.00  0.00    +0.000 C 
BRANCH  16  19
ATOM     19  S   UNL     1      -0.518  11.333  22.094  0.00  0.00    +0.000 S 
ATOM     20  O   UNL     1      -0.549  10.890  23.474  0.00  0.00    +0.000 OA
ATOM     21  O   UNL     1       0.667  11.955  21.540  0.00  0.00    +0.000 OA
BRANCH  19  22
ATOM     22  C   UNL     1      -1.954  12.375  21.784  0.00  0.00    +0.000 C 
BRANCH  22  23
ATOM     23  C   UNL     1      -2.206  13.260  22.972  0.00  0.00    +0.000 A 
ATOM     24  C   UNL     1      -3.413  13.172  23.679  0.00  0.00    +0.000 A 
ATOM     25  C   UNL     1      -3.638  13.980  24.793  0.00  0.00    +0.000 A 
ATOM     26  C   UNL     1      -2.660  14.882  25.208  0.00  0.00    +0.000 A 
ATOM     27  C   UNL     1      -1.460  14.982  24.507  0.00  0.00    +0.000 A 
ATOM     28  C   UNL     1      -1.234  14.178  23.391  0.00  0.00    +0.000 A 
ENDBRANCH  22  23
ENDBRANCH  19  22
ENDBRANCH  16  19
ENDBRANCH   6  13
BRANCH   1  29
ATOM     29  O   UNL     1       2.010   5.929  20.470  0.00  0.00    +0.000 OA
BRANCH  29  30
ATOM     30  C   UNL     1       1.647   4.560  20.264  0.00  0.00    +0.000 C 
BRANCH  30  31
ATOM     31  C   UNL     1       2.071   3.676  21.425  0.00  0.00    +0.000 C 
BRANCH  31  32
ATOM     32  O   UNL     1       2.549   2.442  20.878  0.00  0.00    +0.000 OA
BRANCH  32  34
ATOM     33  C   UNL     1       3.482   1.716  18.801  0.00  0.00    +0.000 C 
ATOM     34  C   UNL     1       3.647   2.638  19.994  0.00  0.00    +0.000 C 
ENDBRANCH  32  34
ENDBRANCH  31  32
ENDBRANCH  30  31
ENDBRANCH  29  30
ENDBRANCH   1  29
TORSDOF 10
ENDMDL
MODEL 4
REMARK VINA RESULT:      -7.6      1.609      2.257
REMARK  Name = 
REMARK  11 active torsions:
REMARK  status: ('A' for Active; 'I' for Inactive)
REMARK    1  A    between atoms: C_1  and  C_2
REMARK    2  A    between atoms: C_2  and  O_3
REMARK    3  A    between atoms: O_3  and  C_4
REMARK    4  A    between atoms: C_4  and  C_5
REMARK    5  A    between atoms: C_5  and  O_6
REMARK    6  A    between atoms: O_6  and  C_7
REMARK    7  A    between atoms: C_9  and  C_10
REMARK    8  A    between atoms: C_18  and  N_19
REMARK    9  A    between atoms: N_22  and  S_23
REMARK   10  A    between atoms: S_23  and  C_26
REMARK   11  A    between atoms: C_26  and  C_27
REMARK                            x       y       z     vdW  Elec       q    Type
REMARK                         _______ _______ _______ _____ _____    ______ ____
ROOT
ATOM      1  C   UNL     1       2.478   6.485  19.675  0.00  0.00    +0.000 A 
ATOM      2  C   UNL     1       3.359   5.718  18.890  0.00  0.00    +0.000 A 
ATOM      3  C   UNL     1       4.007   6.212  17.749  0.00  0.00    +0.000 A 
ATOM      4  C   UNL     1       3.738   7.532  17.396  0.00  0.00    +0.000 A 
ATOM      5  C   UNL     1       2.877   8.317  18.171  0.00  0.00    +0.000 A 
ATOM      6  C   UNL     1       2.210   7.823  19.313  0.00  0.00    +0.000 A 
ENDROOT
BRANCH   3   7
ATOM      7  C   UNL     1       4.990   5.371  17.036  0.00  0.00    +0.000 A 
ATOM      8  C   UNL     1       6.244   5.055  17.600  0.00  0.00    +0.000 A 
ATOM      9  C   UNL     1       7.232   4.402  16.866  0.00  0.00    +0.000 A 
ATOM     10  C   UNL     1       6.973   4.007  15.556  0.00  0.00    +0.000 A 
ATOM     11  C   UNL     1       5.728   4.262  14.990  0.00  0.00    +0.000 A 
ATOM     12  C   UNL     1       4.751   4.939  15.720  0.00  0.00    +0.000 A 
ENDBRANCH   3   7
BRANCH   6  13
ATOM     13  N   UNL     1       1.274   8.614  19.968  0.00  0.00    +0.000 N 
ATOM     14  C   UNL     1       0.722   9.797  19.294  0.00  0.00    +0.000 C 
ATOM     15  C   UNL     1      -0.732   9.987  19.742  0.00  0.00    +0.000 C 
ATOM     16  N   UNL     1      -0.870  10.118  21.229  0.00  0.00    +0.000 NA
ATOM     17  C   UNL     1      -0.211   8.936  21.911  0.00  0.00    +0.000 C 
ATOM     18  C   UNL     1       1.245   8.707  21.442  0.00  0.00    +0.000 C 
BRANCH  16  19
ATOM     19  S   UNL     1      -0.501  11.638  21.907  0.00  0.00    +0.000 S 
ATOM     20  O   UNL     1      -1.097  11.663  23.228  0.00  0.00    +0.000 OA
ATOM     21  O   UNL     1       0.918  11.862  21.728  0.00  0.00    +0.000 OA
BRANCH  19  22
ATOM     22  C   UNL     1      -1.431  12.741  20.827  0.00  0.00    +0.000 C 
BRANCH  22  23
ATOM     23  C   UNL     1      -0.586  13.930  20.466  0.00  0.00    +0.000 A 
ATOM     24  C   UNL     1       0.111  13.961  19.249  0.00  0.00    +0.000 A 
ATOM     25  C   UNL     1       0.879  15.073  18.905  0.00  0.00    +0.000 A 
ATOM     26  C   UNL     1       0.958  16.160  19.774  0.00  0.00    +0.000 A 
ATOM     27  C   UNL     1       0.276  16.134  20.989  0.00  0.00    +0.000 A 
ATOM     28  C   UNL     1      -0.491  15.023  21.336  0.00  0.00    +0.000 A 
ENDBRANCH  22  23
ENDBRANCH  19  22
ENDBRANCH  16  19
ENDBRANCH   6  13
BRANCH   1  29
ATOM     29  O   UNL     1       1.826   5.944  20.771  0.00  0.00    +0.000 OA
BRANCH  29  30
ATOM     30  C   UNL     1       1.345   4.607  20.601  0.00  0.00    +0.000 C 
BRANCH  30  31
ATOM     31  C   UNL     1       2.091   3.616  21.479  0.00  0.00    +0.000 C 
BRANCH  31  32
ATOM     32  O   UNL     1       2.799   2.721  20.615  0.00  0.00    +0.000 OA
BRANCH  32  34
ATOM     33  C   UNL     1       2.951   2.073  18.320  0.00  0.00    +0.000 C 
ATOM     34  C   UNL     1       2.021   2.336  19.488  0.00  0.00    +0.000 C 
ENDBRANCH  32  34
ENDBRANCH  31  32
ENDBRANCH  30  31
ENDBRANCH  29  30
ENDBRANCH   1  29
TORSDOF 10
ENDMDL
MODEL 5
REMARK VINA RESULT:      -7.6      1.623      2.266
REMARK  Name = 
REMARK  11 active torsions:
REMARK  status: ('A' for Active; 'I' for Inactive)
REMARK    1  A    between atoms: C_1  and  C_2
REMARK    2  A    between atoms: C_2  and  O_3
REMARK    3  A    between atoms: O_3  and  C_4
REMARK    4  A    between atoms: C_4  and  C_5
REMARK    5  A    between atoms: C_5  and  O_6
REMARK    6  A    between atoms: O_6  and  C_7
REMARK    7  A    between atoms: C_9  and  C_10
REMARK    8  A    between atoms: C_18  and  N_19
REMARK    9  A    between atoms: N_22  and  S_23
REMARK   10  A    between atoms: S_23  and  C_26
REMARK   11  A    between atoms: C_26  and  C_27
REMARK                            x       y       z     vdW  Elec       q    Type
REMARK                         _______ _______ _______ _____ _____    ______ ____
ROOT
ATOM      1  C   UNL     1       2.313   6.586  19.503  0.00  0.00    +0.000 A 
ATOM      2  C   UNL     1       3.134   5.811  18.662  0.00  0.00    +0.000 A 
ATOM      3  C   UNL     1       3.759   6.315  17.513  0.00  0.00    +0.000 A 
ATOM      4  C   UNL     1       3.530   7.655  17.211  0.00  0.00    +0.000 A 
ATOM      5  C   UNL     1       2.730   8.448  18.041  0.00  0.00    +0.000 A 
ATOM      6  C   UNL     1       2.086   7.944  19.192  0.00  0.00    +0.000 A 
ENDROOT
BRANCH   3   7
ATOM      7  C   UNL     1       4.682   5.460  16.738  0.00  0.00    +0.000 A 
ATOM      8  C   UNL     1       5.443   5.972  15.666  0.00  0.00    +0.000 A 
ATOM      9  C   UNL     1       6.187   5.137  14.835  0.00  0.00    +0.000 A 
ATOM     10  C   UNL     1       6.223   3.767  15.084  0.00  0.00    +0.000 A 
ATOM     11  C   UNL     1       5.521   3.241  16.163  0.00  0.00    +0.000 A 
ATOM     12  C   UNL     1       4.758   4.078  16.978  0.00  0.00    +0.000 A 
ENDBRANCH   3   7
BRANCH   6  13
ATOM     13  N   UNL     1       1.206   8.749  19.906  0.00  0.00    +0.000 N 
ATOM     14  C   UNL     1       0.603   9.920  19.256  0.00  0.00    +0.000 C 
ATOM     15  C   UNL     1      -0.810  10.122  19.817  0.00  0.00    +0.000 C 
ATOM     16  N   UNL     1      -0.828  10.280  21.307  0.00  0.00    +0.000 NA
ATOM     17  C   UNL     1      -0.117   9.110  21.955  0.00  0.00    +0.000 C 
ATOM     18  C   UNL     1       1.296   8.869  21.375  0.00  0.00    +0.000 C 
BRANCH  16  19
ATOM     19  S   UNL     1      -0.405  11.812  21.924  0.00  0.00    +0.000 S 
ATOM     20  O   UNL     1      -0.705  11.790  23.342  0.00  0.00    +0.000 OA
ATOM     21  O   UNL     1       0.929  12.118  21.451  0.00  0.00    +0.000 OA
BRANCH  19  22
ATOM     22  C   UNL     1      -1.602  12.871  21.092  0.00  0.00    +0.000 C 
BRANCH  22  23
ATOM     23  C   UNL     1      -0.925  14.123  20.611  0.00  0.00    +0.000 A 
ATOM     24  C   UNL     1      -0.657  15.173  21.502  0.00  0.00    +0.000 A 
ATOM     25  C   UNL     1      -0.011  16.327  21.060  0.00  0.00    +0.000 A 
ATOM     26  C   UNL     1       0.372  16.441  19.724  0.00  0.00    +0.000 A 
ATOM     27  C   UNL     1       0.103  15.407  18.830  0.00  0.00    +0.000 A 
ATOM     28  C   UNL     1      -0.545  14.254  19.269  0.00  0.00    +0.000 A 
ENDBRANCH  22  23
ENDBRANCH  19  22
ENDBRANCH  16  19
ENDBRANCH   6  13
BRANCH   1  29
ATOM     29  O   UNL     1       1.681   6.036  20.605  0.00  0.00    +0.000 OA
BRANCH  29  30
ATOM     30  C   UNL     1       2.259   4.825  21.104  0.00  0.00    +0.000 C 
BRANCH  30  31
ATOM     31  C   UNL     1       1.372   3.619  20.841  0.00  0.00    +0.000 C 
BRANCH  31  32
ATOM     32  O   UNL     1       2.228   2.504  20.569  0.00  0.00    +0.000 OA
BRANCH  32  34
ATOM     33  C   UNL     1       0.831   2.657  18.636  0.00  0.00    +0.000 C 
ATOM     34  C   UNL     1       2.059   2.009  19.245  0.00  0.00    +0.000 C 
ENDBRANCH  32  34
ENDBRANCH  31  32
ENDBRANCH  30  31
ENDBRANCH  29  30
ENDBRANCH   1  29
TORSDOF 10
ENDMDL
MODEL 6
REMARK VINA RESULT:      -7.6      0.800      1.123
REMARK  Name = 
REMARK  11 active torsions:
REMARK  status: ('A' for Active; 'I' for Inactive)
REMARK    1  A    between atoms: C_1  and  C_2
REMARK    2  A    between atoms: C_2  and  O_3
REMARK    3  A    between atoms: O_3  and  C_4
REMARK    4  A    between atoms: C_4  and  C_5
REMARK    5  A    between atoms: C_5  and  O_6
REMARK    6  A    between atoms: O_6  and  C_7
REMARK    7  A    between atoms: C_9  and  C_10
REMARK    8  A    between atoms: C_18  and  N_19
REMARK    9  A    between atoms: N_22  and  S_23
REMARK   10  A    between atoms: S_23  and  C_26
REMARK   11  A    between atoms: C_26  and  C_27
REMARK                            x       y       z     vdW  Elec       q    Type
REMARK                         _______ _______ _______ _____ _____    ______ ____
ROOT
ATOM      1  C   UNL     1       2.464   6.673  19.520  0.00  0.00    +0.000 A 
ATOM      2  C   UNL     1       3.338   5.949  18.688  0.00  0.00    +0.000 A 
ATOM      3  C   UNL     1       3.926   6.483  17.533  0.00  0.00    +0.000 A 
ATOM      4  C   UNL     1       3.602   7.799  17.215  0.00  0.00    +0.000 A 
ATOM      5  C   UNL     1       2.748   8.543  18.036  0.00  0.00    +0.000 A 
ATOM      6  C   UNL     1       2.141   8.008  19.194  0.00  0.00    +0.000 A 
ENDROOT
BRANCH   3   7
ATOM      7  C   UNL     1       4.907   5.686  16.767  0.00  0.00    +0.000 A 
ATOM      8  C   UNL     1       4.603   4.393  16.292  0.00  0.00    +0.000 A 
ATOM      9  C   UNL     1       5.576   3.580  15.714  0.00  0.00    +0.000 A 
ATOM     10  C   UNL     1       6.874   4.060  15.557  0.00  0.00    +0.000 A 
ATOM     11  C   UNL     1       7.190   5.349  15.973  0.00  0.00    +0.000 A 
ATOM     12  C   UNL     1       6.219   6.150  16.573  0.00  0.00    +0.000 A 
ENDBRANCH   3   7
BRANCH   6  13
ATOM     13  N   UNL     1       1.207   8.757  19.899  0.00  0.00    +0.000 N 
ATOM     14  C   UNL     1       0.628   9.960  19.286  0.00  0.00    +0.000 C 
ATOM     15  C   UNL     1      -0.820  10.111  19.767  0.00  0.00    +0.000 C 
ATOM     16  N   UNL     1      -0.934  10.175  21.261  0.00  0.00    +0.000 NA
ATOM     17  C   UNL     1      -0.247   8.975  21.879  0.00  0.00    +0.000 C 
ATOM     18  C   UNL     1       1.203   8.786  21.375  0.00  0.00    +0.000 C 
BRANCH  16  19
ATOM     19  S   UNL     1      -0.573  11.670  21.996  0.00  0.00    +0.000 S 
ATOM     20  O   UNL     1      -0.986  11.565  23.382  0.00  0.00    +0.000 OA
ATOM     21  O   UNL     1       0.793  12.006  21.652  0.00  0.00    +0.000 OA
BRANCH  19  22
ATOM     22  C   UNL     1      -1.706  12.773  21.132  0.00  0.00    +0.000 C 
BRANCH  22  23
ATOM     23  C   UNL     1      -2.708  13.333  22.102  0.00  0.00    +0.000 A 
ATOM     24  C   UNL     1      -3.921  12.668  22.332  0.00  0.00    +0.000 A 
ATOM     25  C   UNL     1      -4.842  13.177  23.247  0.00  0.00    +0.000 A 
ATOM     26  C   UNL     1      -4.559  14.356  23.937  0.00  0.00    +0.000 A 
ATOM     27  C   UNL     1      -3.360  15.027  23.708  0.00  0.00    +0.000 A 
ATOM     28  C   UNL     1      -2.439  14.522  22.792  0.00  0.00    +0.000 A 
ENDBRANCH  22  23
ENDBRANCH  19  22
ENDBRANCH  16  19
ENDBRANCH   6  13
BRANCH   1  29
ATOM     29  O   UNL     1       1.873   6.093  20.630  0.00  0.00    +0.000 OA
BRANCH  29  30
ATOM     30  C   UNL     1       2.069   4.682  20.763  0.00  0.00    +0.000 C 
BRANCH  30  31
ATOM     31  C   UNL     1       0.840   3.893  20.342  0.00  0.00    +0.000 C 
BRANCH  31  32
ATOM     32  O   UNL     1       1.157   3.214  19.122  0.00  0.00    +0.000 OA
BRANCH  32  34
ATOM     33  C   UNL     1       2.973   1.917  18.267  0.00  0.00    +0.000 C 
ATOM     34  C   UNL     1       1.917   2.032  19.349  0.00  0.00    +0.000 C 
ENDBRANCH  32  34
ENDBRANCH  31  32
ENDBRANCH  30  31
ENDBRANCH  29  30
ENDBRANCH   1  29
TORSDOF 10
ENDMDL
MODEL 7
REMARK VINA RESULT:      -7.5      1.280      1.823
REMARK  Name = 
REMARK  11 active torsions:
REMARK  status: ('A' for Active; 'I' for Inactive)
REMARK    1  A    between atoms: C_1  and  C_2
REMARK    2  A    between atoms: C_2  and  O_3
REMARK    3  A    between atoms: O_3  and  C_4
REMARK    4  A    between atoms: C_4  and  C_5
REMARK    5  A    between atoms: C_5  and  O_6
REMARK    6  A    between atoms: O_6  and  C_7
REMARK    7  A    between atoms: C_9  and  C_10
REMARK    8  A    between atoms: C_18  and  N_19
REMARK    9  A    between atoms: N_22  and  S_23
REMARK   10  A    between atoms: S_23  and  C_26
REMARK   11  A    between atoms: C_26  and  C_27
REMARK                            x       y       z     vdW  Elec       q    Type
REMARK                         _______ _______ _______ _____ _____    ______ ____
ROOT
ATOM      1  C   UNL     1       2.400   6.700  19.459  0.00  0.00    +0.000 A 
ATOM      2  C   UNL     1       3.228   5.913  18.636  0.00  0.00    +0.000 A 
ATOM      3  C   UNL     1       3.803   6.380  17.446  0.00  0.00    +0.000 A 
ATOM      4  C   UNL     1       3.516   7.693  17.083  0.00  0.00    +0.000 A 
ATOM      5  C   UNL     1       2.709   8.498  17.894  0.00  0.00    +0.000 A 
ATOM      6  C   UNL     1       2.114   8.031  19.086  0.00  0.00    +0.000 A 
ENDROOT
BRANCH   3   7
ATOM      7  C   UNL     1       4.737   5.520  16.690  0.00  0.00    +0.000 A 
ATOM      8  C   UNL     1       5.679   6.061  15.789  0.00  0.00    +0.000 A 
ATOM      9  C   UNL     1       6.445   5.246  14.958  0.00  0.00    +0.000 A 
ATOM     10  C   UNL     1       6.320   3.862  15.040  0.00  0.00    +0.000 A 
ATOM     11  C   UNL     1       5.434   3.300  15.954  0.00  0.00    +0.000 A 
ATOM     12  C   UNL     1       4.651   4.120  16.766  0.00  0.00    +0.000 A 
ENDBRANCH   3   7
BRANCH   6  13
ATOM     13  N   UNL     1       1.224   8.839  19.783  0.00  0.00    +0.000 N 
ATOM     14  C   UNL     1       0.733  10.079  19.166  0.00  0.00    +0.000 C 
ATOM     15  C   UNL     1      -0.707  10.325  19.632  0.00  0.00    +0.000 C 
ATOM     16  N   UNL     1      -0.833  10.395  21.124  0.00  0.00    +0.000 NA
ATOM     17  C   UNL     1      -0.235   9.150  21.747  0.00  0.00    +0.000 C 
ATOM     18  C   UNL     1       1.205   8.867  21.259  0.00  0.00    +0.000 C 
BRANCH  16  19
ATOM     19  S   UNL     1      -0.382  11.861  21.867  0.00  0.00    +0.000 S 
ATOM     20  O   UNL     1      -0.942  11.842  23.204  0.00  0.00    +0.000 OA
ATOM     21  O   UNL     1       1.041  12.035  21.660  0.00  0.00    +0.000 OA
BRANCH  19  22
ATOM     22  C   UNL     1      -1.291  13.057  20.872  0.00  0.00    +0.000 C 
BRANCH  22  23
ATOM     23  C   UNL     1      -2.765  12.916  21.130  0.00  0.00    +0.000 A 
ATOM     24  C   UNL     1      -3.286  13.147  22.411  0.00  0.00    +0.000 A 
ATOM     25  C   UNL     1      -4.656  13.036  22.645  0.00  0.00    +0.000 A 
ATOM     26  C   UNL     1      -5.515  12.692  21.603  0.00  0.00    +0.000 A 
ATOM     27  C   UNL     1      -5.005  12.453  20.328  0.00  0.00    +0.000 A 
ATOM     28  C   UNL     1      -3.636  12.560  20.092  0.00  0.00    +0.000 A 
ENDBRANCH  22  23
ENDBRANCH  19  22
ENDBRANCH  16  19
ENDBRANCH   6  13
BRANCH   1  29
ATOM     29  O   UNL     1       1.818   6.185  20.605  0.00  0.00    +0.000 OA
BRANCH  29  30
ATOM     30  C   UNL     1       2.062   4.796  20.847  0.00  0.00    +0.000 C 
BRANCH  30  31
ATOM     31  C   UNL     1       0.885   3.929  20.434  0.00  0.00    +0.000 C 
BRANCH  31  32
ATOM     32  O   UNL     1       1.348   2.576  20.360  0.00  0.00    +0.000 OA
BRANCH  32  34
ATOM     33  C   UNL     1       2.934   1.805  18.748  0.00  0.00    +0.000 C 
ATOM     34  C   UNL     1       1.476   2.126  19.017  0.00  0.00    +0.000 C 
ENDBRANCH  32  34
ENDBRANCH  31  32
ENDBRANCH  30  31
ENDBRANCH  29  30
ENDBRANCH   1  29
TORSDOF 10
ENDMDL
MODEL 8
REMARK VINA RESULT:      -7.5      0.846      1.508
REMARK  Name = 
REMARK  11 active torsions:
REMARK  status: ('A' for Active; 'I' for Inactive)
REMARK    1  A    between atoms: C_1  and  C_2
REMARK    2  A    between atoms: C_2  and  O_3
REMARK    3  A    between atoms: O_3  and  C_4
REMARK    4  A    between atoms: C_4  and  C_5
REMARK    5  A    between atoms: C_5  and  O_6
REMARK    6  A    between atoms: O_6  and  C_7
REMARK    7  A    between atoms: C_9  and  C_10
REMARK    8  A    between atoms: C_18  and  N_19
REMARK    9  A    between atoms: N_22  and  S_23
REMARK   10  A    between atoms: S_23  and  C_26
REMARK   11  A    between atoms: C_26  and  C_27
REMARK                            x       y       z     vdW  Elec       q    Type
REMARK                         _______ _______ _______ _____ _____    ______ ____
ROOT
ATOM      1  C   UNL     1       2.482   6.812  19.425  0.00  0.00    +0.000 A 
ATOM      2  C   UNL     1       3.419   6.075  18.675  0.00  0.00    +0.000 A 
ATOM      3  C   UNL     1       4.088   6.588  17.555  0.00  0.00    +0.000 A 
ATOM      4  C   UNL     1       3.782   7.895  17.185  0.00  0.00    +0.000 A 
ATOM      5  C   UNL     1       2.866   8.651  17.925  0.00  0.00    +0.000 A 
ATOM      6  C   UNL     1       2.178   8.137  19.045  0.00  0.00    +0.000 A 
ENDROOT
BRANCH   3   7
ATOM      7  C   UNL     1       5.127   5.781  16.882  0.00  0.00    +0.000 A 
ATOM      8  C   UNL     1       4.972   5.332  15.554  0.00  0.00    +0.000 A 
ATOM      9  C   UNL     1       5.872   4.439  14.976  0.00  0.00    +0.000 A 
ATOM     10  C   UNL     1       6.979   4.006  15.701  0.00  0.00    +0.000 A 
ATOM     11  C   UNL     1       7.183   4.471  16.996  0.00  0.00    +0.000 A 
ATOM     12  C   UNL     1       6.266   5.345  17.579  0.00  0.00    +0.000 A 
ENDBRANCH   3   7
BRANCH   6  13
ATOM     13  N   UNL     1       1.190   8.895  19.663  0.00  0.00    +0.000 N 
ATOM     14  C   UNL     1       0.540   9.985  18.921  0.00  0.00    +0.000 C 
ATOM     15  C   UNL     1      -0.919  10.092  19.379  0.00  0.00    +0.000 C 
ATOM     16  N   UNL     1      -1.051  10.309  20.857  0.00  0.00    +0.000 NA
ATOM     17  C   UNL     1      -0.295   9.229  21.603  0.00  0.00    +0.000 C 
ATOM     18  C   UNL     1       1.169   9.083  21.127  0.00  0.00    +0.000 C 
BRANCH  16  19
ATOM     19  S   UNL     1      -0.795  11.895  21.428  0.00  0.00    +0.000 S 
ATOM     20  O   UNL     1       0.638  12.113  21.428  0.00  0.00    +0.000 OA
ATOM     21  O   UNL     1      -1.680  12.772  20.689  0.00  0.00    +0.000 OA
BRANCH  19  22
ATOM     22  C   UNL     1      -1.363  11.754  23.132  0.00  0.00    +0.000 C 
BRANCH  22  23
ATOM     23  C   UNL     1      -2.296  12.887  23.452  0.00  0.00    +0.000 A 
ATOM     24  C   UNL     1      -1.788  14.150  23.789  0.00  0.00    +0.000 A 
ATOM     25  C   UNL     1      -2.654  15.207  24.067  0.00  0.00    +0.000 A 
ATOM     26  C   UNL     1      -4.033  15.011  24.011  0.00  0.00    +0.000 A 
ATOM     27  C   UNL     1      -4.547  13.758  23.684  0.00  0.00    +0.000 A 
ATOM     28  C   UNL     1      -3.683  12.698  23.408  0.00  0.00    +0.000 A 
ENDBRANCH  22  23
ENDBRANCH  19  22
ENDBRANCH  16  19
ENDBRANCH   6  13
BRANCH   1  29
ATOM     29  O   UNL     1       1.813   6.252  20.500  0.00  0.00    +0.000 OA
BRANCH  29  30
ATOM     30  C   UNL     1       2.152   4.893  20.794  0.00  0.00    +0.000 C 
BRANCH  30  31
ATOM     31  C   UNL     1       1.047   3.930  20.396  0.00  0.00    +0.000 C 
BRANCH  31  32
ATOM     32  O   UNL     1       1.665   2.784  19.800  0.00  0.00    +0.000 OA
BRANCH  32  34
ATOM     33  C   UNL     1       2.778   2.509  17.703  0.00  0.00    +0.000 C 
ATOM     34  C   UNL     1       1.446   2.728  18.395  0.00  0.00    +0.000 C 
ENDBRANCH  32  34
ENDBRANCH  31  32
ENDBRANCH  30  31
ENDBRANCH  29  30
ENDBRANCH   1  29
TORSDOF 10
ENDMDL
MODEL 9
REMARK VINA RESULT:      -7.3      2.857      9.554
REMARK  Name = 
REMARK  11 active torsions:
REMARK  status: ('A' for Active; 'I' for Inactive)
REMARK    1  A    between atoms: C_1  and  C_2
REMARK    2  A    between atoms: C_2  and  O_3
REMARK    3  A    between atoms: O_3  and  C_4
REMARK    4  A    between atoms: C_4  and  C_5
REMARK    5  A    between atoms: C_5  and  O_6
REMARK    6  A    between atoms: O_6  and  C_7
REMARK    7  A    between atoms: C_9  and  C_10
REMARK    8  A    between atoms: C_18  and  N_19
REMARK    9  A    between atoms: N_22  and  S_23
REMARK   10  A    between atoms: S_23  and  C_26
REMARK   11  A    between atoms: C_26  and  C_27
REMARK                            x       y       z     vdW  Elec       q    Type
REMARK                         _______ _______ _______ _____ _____    ______ ____
ROOT
ATOM      1  C   UNL     1       1.192   8.727  20.049  0.00  0.00    +0.000 A 
ATOM      2  C   UNL     1       1.012  10.117  19.910  0.00  0.00    +0.000 A 
ATOM      3  C   UNL     1       1.441  10.844  18.792  0.00  0.00    +0.000 A 
ATOM      4  C   UNL     1       2.083  10.127  17.786  0.00  0.00    +0.000 A 
ATOM      5  C   UNL     1       2.259   8.743  17.895  0.00  0.00    +0.000 A 
ATOM      6  C   UNL     1       1.842   8.006  19.025  0.00  0.00    +0.000 A 
ENDROOT
BRANCH   3   7
ATOM      7  C   UNL     1       1.128  12.284  18.683  0.00  0.00    +0.000 A 
ATOM      8  C   UNL     1       2.143  13.258  18.571  0.00  0.00    +0.000 A 
ATOM      9  C   UNL     1       1.857  14.620  18.632  0.00  0.00    +0.000 A 
ATOM     10  C   UNL     1       0.538  15.045  18.761  0.00  0.00    +0.000 A 
ATOM     11  C   UNL     1      -0.488  14.108  18.824  0.00  0.00    +0.000 A 
ATOM     12  C   UNL     1      -0.195  12.745  18.788  0.00  0.00    +0.000 A 
ENDBRANCH   3   7
BRANCH   6  13
ATOM     13  N   UNL     1       2.155   6.656  19.129  0.00  0.00    +0.000 N 
ATOM     14  C   UNL     1       3.127   6.211  20.137  0.00  0.00    +0.000 C 
ATOM     15  C   UNL     1       2.722   4.817  20.631  0.00  0.00    +0.000 C 
ATOM     16  N   UNL     1       2.617   3.814  19.523  0.00  0.00    +0.000 NA
ATOM     17  C   UNL     1       1.684   4.333  18.448  0.00  0.00    +0.000 C 
ATOM     18  C   UNL     1       2.058   5.754  17.964  0.00  0.00    +0.000 C 
BRANCH  16  19
ATOM     19  S   UNL     1       4.076   3.144  18.950  0.00  0.00    +0.000 S 
ATOM     20  O   UNL     1       4.564   2.255  19.986  0.00  0.00    +0.000 OA
ATOM     21  O   UNL     1       3.835   2.659  17.607  0.00  0.00    +0.000 OA
BRANCH  19  22
ATOM     22  C   UNL     1       5.134   4.602  18.888  0.00  0.00    +0.000 C 
BRANCH  22  23
ATOM     23  C   UNL     1       5.607   4.827  17.480  0.00  0.00    +0.000 A 
ATOM     24  C   UNL     1       4.859   5.620  16.598  0.00  0.00    +0.000 A 
ATOM     25  C   UNL     1       5.308   5.845  15.297  0.00  0.00    +0.000 A 
ATOM     26  C   UNL     1       6.507   5.278  14.867  0.00  0.00    +0.000 A 
ATOM     27  C   UNL     1       7.253   4.482  15.734  0.00  0.00    +0.000 A 
ATOM     28  C   UNL     1       6.805   4.254  17.034  0.00  0.00    +0.000 A 
ENDBRANCH  22  23
ENDBRANCH  19  22
ENDBRANCH  16  19
ENDBRANCH   6  13
BRANCH   1  29
ATOM     29  O   UNL     1       0.789   8.055  21.191  0.00  0.00    +0.000 OA
BRANCH  29  30
ATOM     30  C   UNL     1      -0.397   8.559  21.814  0.00  0.00    +0.000 C 
BRANCH  30  31
ATOM     31  C   UNL     1      -0.116   9.136  23.191  0.00  0.00    +0.000 C 
BRANCH  31  32
ATOM     32  O   UNL     1       0.082  10.546  23.037  0.00  0.00    +0.000 OA
BRANCH  32  34
ATOM     33  C   UNL     1      -0.851  12.670  22.463  0.00  0.00    +0.000 C 
ATOM     34  C   UNL     1      -1.148  11.247  22.897  0.00  0.00    +0.000 C 
ENDBRANCH  32  34
ENDBRANCH  31  32
ENDBRANCH  30  31
ENDBRANCH  29  30
ENDBRANCH   1  29
TORSDOF 10
ENDMDL
