MODEL 1
REMARK VINA RESULT:      -7.3      0.000      0.000
REMARK  Name = 
REMARK  9 active torsions:
REMARK  status: ('A' for Active; 'I' for Inactive)
REMARK    1  A    between atoms: O_1  and  C_2
REMARK    2  A    between atoms: C_2  and  C_3
REMARK    3  A    between atoms: C_3  and  O_4
REMARK    4  A    between atoms: C_6  and  N_7
REMARK    5  A    between atoms: N_7  and  C_8
REMARK    6  A    between atoms: C_8  and  C_9
REMARK    7  A    between atoms: C_15  and  O_16
REMARK    8  A    between atoms: C_17  and  O_18
REMARK    9  A    between atoms: C_19  and  O_20
REMARK                            x       y       z     vdW  Elec       q    Type
REMARK                         _______ _______ _______ _____ _____    ______ ____
ROOT
ATOM      1  C   UNL     1       3.786   2.473  19.679  0.00  0.00    +0.000 C 
ATOM      2  C   UNL     1       4.273   3.913  19.428  0.00  0.00    +0.000 C 
ATOM      3  C   UNL     1       3.179   4.877  18.944  0.00  0.00    +0.000 C 
ATOM      4  C   UNL     1       1.978   4.831  19.924  0.00  0.00    +0.000 C 
ATOM      5  C   UNL     1       1.434   3.395  20.115  0.00  0.00    +0.000 C 
ATOM      6  C   UNL     1       2.536   2.428  20.600  0.00  0.00    +0.000 C 
ENDROOT
BRANCH   1   7
ATOM      7  O   UNL     1       4.885   1.805  20.335  0.00  0.00    +0.000 OA
ATOM      8  H   UNL     1       5.007   0.966  19.850  0.00  0.00    +0.000 HD
ENDBRANCH   1   7
BRANCH   3   9
ATOM      9  N   UNL     1       3.684   6.270  18.848  0.00  0.00    +0.000 NA
ATOM     10  H   UNL     1       4.619   6.323  19.257  0.00  0.00    +0.000 HD
BRANCH   9  11
ATOM     11  C   UNL     1       3.800   6.742  17.461  0.00  0.00    +0.000 C 
BRANCH  11  12
ATOM     12  C   UNL     1       4.983   6.126  16.765  0.00  0.00    +0.000 A 
ATOM     13  C   UNL     1       4.842   5.038  15.902  0.00  0.00    +0.000 A 
ATOM     14  C   UNL     1       5.974   4.484  15.303  0.00  0.00    +0.000 A 
ATOM     15  C   UNL     1       7.209   5.040  15.593  0.00  0.00    +0.000 A 
ATOM     16  N   UNL     1       7.386   6.083  16.423  0.00  0.00    +0.000 NA
ATOM     17  C   UNL     1       6.274   6.608  16.985  0.00  0.00    +0.000 A 
ENDBRANCH  11  12
ENDBRANCH   9  11
ENDBRANCH   3   9
BRANCH   4  18
ATOM     18  O   UNL     1       2.387   5.354  21.192  0.00  0.00    +0.000 OA
ATOM     19  H   UNL     1       3.358   5.294  21.213  0.00  0.00    +0.000 HD
ENDBRANCH   4  18
BRANCH   5  20
ATOM     20  O   UNL     1       0.845   2.874  18.917  0.00  0.00    +0.000 OA
ATOM     21  H   UNL     1      -0.001   3.317  18.739  0.00  0.00    +0.000 HD
ENDBRANCH   5  20
BRANCH   6  22
ATOM     22  O   UNL     1       2.870   2.703  21.966  0.00  0.00    +0.000 OA
ATOM     23  H   UNL     1       2.039   2.752  22.474  0.00  0.00    +0.000 HD
ENDBRANCH   6  22
BRANCH   1  24
ATOM     24  C   UNL     1       3.531   1.697  18.368  0.00  0.00    +0.000 C 
BRANCH  24  25
ATOM     25  O   UNL     1       4.364   0.533  18.328  0.00  0.00    +0.000 OA
ATOM     26  H   UNL     1       4.590   0.388  17.389  0.00  0.00    +0.000 HD
ENDBRANCH  24  25
ENDBRANCH   1  24
TORSDOF 9
ENDMDL
MODEL 2
REMARK VINA RESULT:      -7.2      1.280      2.777
REMARK  Name = 
REMARK  9 active torsions:
REMARK  status: ('A' for Active; 'I' for Inactive)
REMARK    1  A    between atoms: O_1  and  C_2
REMARK    2  A    between atoms: C_2  and  C_3
REMARK    3  A    between atoms: C_3  and  O_4
REMARK    4  A    between atoms: C_6  and  N_7
REMARK    5  A    between atoms: N_7  and  C_8
REMARK    6  A    between atoms: C_8  and  C_9
REMARK    7  A    between atoms: C_15  and  O_16
REMARK    8  A    between atoms: C_17  and  O_18
REMARK    9  A    between atoms: C_19  and  O_20
REMARK                            x       y       z     vdW  Elec       q    Type
REMARK                         _______ _______ _______ _____ _____    ______ ____
ROOT
ATOM      1  C   UNL     1       1.741   3.487  20.184  0.00  0.00    +0.000 C 
ATOM      2  C   UNL     1       1.936   4.705  19.261  0.00  0.00    +0.000 C 
ATOM      3  C   UNL     1       3.370   4.882  18.740  0.00  0.00    +0.000 C 
ATOM      4  C   UNL     1       3.845   3.564  18.074  0.00  0.00    +0.000 C 
ATOM      5  C   UNL     1       3.728   2.352  19.027  0.00  0.00    +0.000 C 
ATOM      6  C   UNL     1       2.285   2.177  19.552  0.00  0.00    +0.000 C 
ENDROOT
BRANCH   1   7
ATOM      7  O   UNL     1       0.314   3.370  20.369  0.00  0.00    +0.000 OA
ATOM      8  H   UNL     1       0.194   3.054  21.286  0.00  0.00    +0.000 HD
ENDBRANCH   1   7
BRANCH   3   9
ATOM      9  N   UNL     1       3.459   5.991  17.756  0.00  0.00    +0.000 NA
ATOM     10  H   UNL     1       2.824   6.743  18.030  0.00  0.00    +0.000 HD
BRANCH   9  11
ATOM     11  C   UNL     1       4.804   6.580  17.679  0.00  0.00    +0.000 C 
BRANCH  11  12
ATOM     12  C   UNL     1       5.653   5.885  16.650  0.00  0.00    +0.000 A 
ATOM     13  C   UNL     1       5.213   5.703  15.337  0.00  0.00    +0.000 A 
ATOM     14  C   UNL     1       6.026   5.026  14.427  0.00  0.00    +0.000 A 
ATOM     15  C   UNL     1       7.252   4.554  14.867  0.00  0.00    +0.000 A 
ATOM     16  N   UNL     1       7.707   4.703  16.123  0.00  0.00    +0.000 NA
ATOM     17  C   UNL     1       6.906   5.370  16.985  0.00  0.00    +0.000 A 
ENDBRANCH  11  12
ENDBRANCH   9  11
ENDBRANCH   3   9
BRANCH   4  18
ATOM     18  O   UNL     1       3.060   3.322  16.901  0.00  0.00    +0.000 OA
ATOM     19  H   UNL     1       3.506   3.787  16.172  0.00  0.00    +0.000 HD
ENDBRANCH   4  18
BRANCH   5  20
ATOM     20  O   UNL     1       4.624   2.449  20.142  0.00  0.00    +0.000 OA
ATOM     21  H   UNL     1       4.432   3.250  20.657  0.00  0.00    +0.000 HD
ENDBRANCH   5  20
BRANCH   6  22
ATOM     22  O   UNL     1       1.433   1.697  18.504  0.00  0.00    +0.000 OA
ATOM     23  H   UNL     1       1.361   0.729  18.596  0.00  0.00    +0.000 HD
ENDBRANCH   6  22
BRANCH   1  24
ATOM     24  C   UNL     1       2.340   3.708  21.591  0.00  0.00    +0.000 C 
BRANCH  24  25
ATOM     25  O   UNL     1       2.518   2.446  22.243  0.00  0.00    +0.000 OA
ATOM     26  H   UNL     1       2.183   1.768  21.626  0.00  0.00    +0.000 HD
ENDBRANCH  24  25
ENDBRANCH   1  24
TORSDOF 9
ENDMDL
MODEL 3
REMARK VINA RESULT:      -7.0      1.909      3.073
REMARK  Name = 
REMARK  9 active torsions:
REMARK  status: ('A' for Active; 'I' for Inactive)
REMARK    1  A    between atoms: O_1  and  C_2
REMARK    2  A    between atoms: C_2  and  C_3
REMARK    3  A    between atoms: C_3  and  O_4
REMARK    4  A    between atoms: C_6  and  N_7
REMARK    5  A    between atoms: N_7  and  C_8
REMARK    6  A    between atoms: C_8  and  C_9
REMARK    7  A    between atoms: C_15  and  O_16
REMARK    8  A    between atoms: C_17  and  O_18
REMARK    9  A    between atoms: C_19  and  O_20
REMARK                            x       y       z     vdW  Elec       q    Type
REMARK                         _______ _______ _______ _____ _____    ______ ____
ROOT
ATOM      1  C   UNL     1       2.571   2.818  18.714  0.00  0.00    +0.000 C 
ATOM      2  C   UNL     1       3.396   3.274  17.494  0.00  0.00    +0.000 C 
ATOM      3  C   UNL     1       3.962   4.698  17.609  0.00  0.00    +0.000 C 
ATOM      4  C   UNL     1       4.756   4.835  18.934  0.00  0.00    +0.000 C 
ATOM      5  C   UNL     1       3.904   4.456  20.168  0.00  0.00    +0.000 C 
ATOM      6  C   UNL     1       3.335   3.025  20.050  0.00  0.00    +0.000 C 
ENDROOT
BRANCH   1   7
ATOM      7  O   UNL     1       2.336   1.408  18.512  0.00  0.00    +0.000 OA
ATOM      8  H   UNL     1       2.172   1.041  19.402  0.00  0.00    +0.000 HD
ENDBRANCH   1   7
BRANCH   3   9
ATOM      9  N   UNL     1       4.851   5.024  16.465  0.00  0.00    +0.000 NA
ATOM     10  H   UNL     1       5.710   5.455  16.811  0.00  0.00    +0.000 HD
BRANCH   9  11
ATOM     11  C   UNL     1       5.252   3.836  15.697  0.00  0.00    +0.000 C 
BRANCH  11  12
ATOM     12  C   UNL     1       6.090   4.206  14.504  0.00  0.00    +0.000 A 
ATOM     13  C   UNL     1       5.892   3.613  13.256  0.00  0.00    +0.000 A 
ATOM     14  C   UNL     1       6.714   3.970  12.187  0.00  0.00    +0.000 A 
ATOM     15  C   UNL     1       7.708   4.909  12.408  0.00  0.00    +0.000 A 
ATOM     16  N   UNL     1       7.934   5.497  13.595  0.00  0.00    +0.000 NA
ATOM     17  C   UNL     1       7.119   5.142  14.614  0.00  0.00    +0.000 A 
ENDBRANCH  11  12
ENDBRANCH   9  11
ENDBRANCH   3   9
BRANCH   4  18
ATOM     18  O   UNL     1       5.910   3.989  18.878  0.00  0.00    +0.000 OA
ATOM     19  H   UNL     1       6.215   4.002  17.954  0.00  0.00    +0.000 HD
ENDBRANCH   4  18
BRANCH   5  20
ATOM     20  O   UNL     1       2.825   5.374  20.386  0.00  0.00    +0.000 OA
ATOM     21  H   UNL     1       2.037   4.897  20.695  0.00  0.00    +0.000 HD
ENDBRANCH   5  20
BRANCH   6  22
ATOM     22  O   UNL     1       4.382   2.061  20.221  0.00  0.00    +0.000 OA
ATOM     23  H   UNL     1       4.086   1.223  19.819  0.00  0.00    +0.000 HD
ENDBRANCH   6  22
BRANCH   1  24
ATOM     24  C   UNL     1       1.178   3.484  18.769  0.00  0.00    +0.000 C 
BRANCH  24  25
ATOM     25  O   UNL     1       0.593   3.272  20.058  0.00  0.00    +0.000 OA
ATOM     26  H   UNL     1       1.325   3.314  20.703  0.00  0.00    +0.000 HD
ENDBRANCH  24  25
ENDBRANCH   1  24
TORSDOF 9
ENDMDL
MODEL 4
REMARK VINA RESULT:      -7.0      1.503      3.167
REMARK  Name = 
REMARK  9 active torsions:
REMARK  status: ('A' for Active; 'I' for Inactive)
REMARK    1  A    between atoms: O_1  and  C_2
REMARK    2  A    between atoms: C_2  and  C_3
REMARK    3  A    between atoms: C_3  and  O_4
REMARK    4  A    between atoms: C_6  and  N_7
REMARK    5  A    between atoms: N_7  and  C_8
REMARK    6  A    between atoms: C_8  and  C_9
REMARK    7  A    between atoms: C_15  and  O_16
REMARK    8  A    between atoms: C_17  and  O_18
REMARK    9  A    between atoms: C_19  and  O_20
REMARK                            x       y       z     vdW  Elec       q    Type
REMARK                         _______ _______ _______ _____ _____    ______ ____
ROOT
ATOM      1  C   UNL     1       1.979   4.090  19.302  0.00  0.00    +0.000 C 
ATOM      2  C   UNL     1       3.388   4.211  18.688  0.00  0.00    +0.000 C 
ATOM      3  C   UNL     1       4.512   3.637  19.563  0.00  0.00    +0.000 C 
ATOM      4  C   UNL     1       4.170   2.175  19.951  0.00  0.00    +0.000 C 
ATOM      5  C   UNL     1       2.790   2.061  20.643  0.00  0.00    +0.000 C 
ATOM      6  C   UNL     1       1.662   2.641  19.762  0.00  0.00    +0.000 C 
ENDROOT
BRANCH   1   7
ATOM      7  O   UNL     1       1.067   4.466  18.247  0.00  0.00    +0.000 OA
ATOM      8  H   UNL     1       1.061   3.711  17.627  0.00  0.00    +0.000 HD
ENDBRANCH   1   7
BRANCH   3   9
ATOM      9  N   UNL     1       5.819   3.667  18.859  0.00  0.00    +0.000 NA
ATOM     10  H   UNL     1       5.816   2.980  18.103  0.00  0.00    +0.000 HD
BRANCH   9  11
ATOM     11  C   UNL     1       6.107   4.971  18.244  0.00  0.00    +0.000 C 
BRANCH  11  12
ATOM     12  C   UNL     1       6.352   4.844  16.766  0.00  0.00    +0.000 A 
ATOM     13  C   UNL     1       5.667   3.909  15.986  0.00  0.00    +0.000 A 
ATOM     14  C   UNL     1       5.952   3.810  14.624  0.00  0.00    +0.000 A 
ATOM     15  C   UNL     1       6.914   4.652  14.091  0.00  0.00    +0.000 A 
ATOM     16  N   UNL     1       7.598   5.559  14.809  0.00  0.00    +0.000 NA
ATOM     17  C   UNL     1       7.300   5.643  16.125  0.00  0.00    +0.000 A 
ENDBRANCH  11  12
ENDBRANCH   9  11
ENDBRANCH   3   9
BRANCH   4  18
ATOM     18  O   UNL     1       4.177   1.363  18.772  0.00  0.00    +0.000 OA
ATOM     19  H   UNL     1       4.314   1.968  18.023  0.00  0.00    +0.000 HD
ENDBRANCH   4  18
BRANCH   5  20
ATOM     20  O   UNL     1       2.768   2.709  21.921  0.00  0.00    +0.000 OA
ATOM     21  H   UNL     1       3.675   2.904  22.213  0.00  0.00    +0.000 HD
ENDBRANCH   5  20
BRANCH   6  22
ATOM     22  O   UNL     1       1.406   1.773  18.651  0.00  0.00    +0.000 OA
ATOM     23  H   UNL     1       2.162   1.165  18.564  0.00  0.00    +0.000 HD
ENDBRANCH   6  22
BRANCH   1  24
ATOM     24  C   UNL     1       1.745   5.095  20.451  0.00  0.00    +0.000 C 
BRANCH  24  25
ATOM     25  O   UNL     1       2.452   6.311  20.179  0.00  0.00    +0.000 OA
ATOM     26  H   UNL     1       3.016   6.134  19.402  0.00  0.00    +0.000 HD
ENDBRANCH  24  25
ENDBRANCH   1  24
TORSDOF 9
ENDMDL
MODEL 5
REMARK VINA RESULT:      -6.9      1.590      3.265
REMARK  Name = 
REMARK  9 active torsions:
REMARK  status: ('A' for Active; 'I' for Inactive)
REMARK    1  A    between atoms: O_1  and  C_2
REMARK    2  A    between atoms: C_2  and  C_3
REMARK    3  A    between atoms: C_3  and  O_4
REMARK    4  A    between atoms: C_6  and  N_7
REMARK    5  A    between atoms: N_7  and  C_8
REMARK    6  A    between atoms: C_8  and  C_9
REMARK    7  A    between atoms: C_15  and  O_16
REMARK    8  A    between atoms: C_17  and  O_18
REMARK    9  A    between atoms: C_19  and  O_20
REMARK                            x       y       z     vdW  Elec       q    Type
REMARK                         _______ _______ _______ _____ _____    ______ ____
ROOT
ATOM      1  C   UNL     1       1.706   3.306  19.997  0.00  0.00    +0.000 C 
ATOM      2  C   UNL     1       2.041   4.537  19.131  0.00  0.00    +0.000 C 
ATOM      3  C   UNL     1       3.368   4.430  18.366  0.00  0.00    +0.000 C 
ATOM      4  C   UNL     1       3.388   3.116  17.543  0.00  0.00    +0.000 C 
ATOM      5  C   UNL     1       3.133   1.870  18.424  0.00  0.00    +0.000 C 
ATOM      6  C   UNL     1       1.799   1.980  19.195  0.00  0.00    +0.000 C 
ENDROOT
BRANCH   1   7
ATOM      7  O   UNL     1       0.344   3.504  20.435  0.00  0.00    +0.000 OA
ATOM      8  H   UNL     1      -0.137   3.830  19.649  0.00  0.00    +0.000 HD
ENDBRANCH   1   7
BRANCH   3   9
ATOM      9  N   UNL     1       3.565   5.586  17.455  0.00  0.00    +0.000 NA
ATOM     10  H   UNL     1       3.646   6.444  18.003  0.00  0.00    +0.000 HD
BRANCH   9  11
ATOM     11  C   UNL     1       4.792   5.478  16.652  0.00  0.00    +0.000 C 
BRANCH  11  12
ATOM     12  C   UNL     1       5.999   5.932  17.426  0.00  0.00    +0.000 A 
ATOM     13  C   UNL     1       6.590   7.177  17.200  0.00  0.00    +0.000 A 
ATOM     14  C   UNL     1       7.727   7.540  17.923  0.00  0.00    +0.000 A 
ATOM     15  C   UNL     1       8.232   6.640  18.847  0.00  0.00    +0.000 A 
ATOM     16  N   UNL     1       7.696   5.432  19.089  0.00  0.00    +0.000 NA
ATOM     17  C   UNL     1       6.591   5.105  18.382  0.00  0.00    +0.000 A 
ENDBRANCH  11  12
ENDBRANCH   9  11
ENDBRANCH   3   9
BRANCH   4  18
ATOM     18  O   UNL     1       2.386   3.187  16.523  0.00  0.00    +0.000 OA
ATOM     19  H   UNL     1       2.524   2.415  15.949  0.00  0.00    +0.000 HD
ENDBRANCH   4  18
BRANCH   5  20
ATOM     20  O   UNL     1       4.196   1.639  19.358  0.00  0.00    +0.000 OA
ATOM     21  H   UNL     1       4.231   0.699  19.600  0.00  0.00    +0.000 HD
ENDBRANCH   5  20
BRANCH   6  22
ATOM     22  O   UNL     1       0.694   1.823  18.294  0.00  0.00    +0.000 OA
ATOM     23  H   UNL     1       0.305   2.703  18.140  0.00  0.00    +0.000 HD
ENDBRANCH   6  22
BRANCH   1  24
ATOM     24  C   UNL     1       2.564   3.234  21.280  0.00  0.00    +0.000 C 
BRANCH  24  25
ATOM     25  O   UNL     1       1.903   2.421  22.256  0.00  0.00    +0.000 OA
ATOM     26  H   UNL     1       0.961   2.676  22.234  0.00  0.00    +0.000 HD
ENDBRANCH  24  25
ENDBRANCH   1  24
TORSDOF 9
ENDMDL
MODEL 6
REMARK VINA RESULT:      -6.9      1.252      2.140
REMARK  Name = 
REMARK  9 active torsions:
REMARK  status: ('A' for Active; 'I' for Inactive)
REMARK    1  A    between atoms: O_1  and  C_2
REMARK    2  A    between atoms: C_2  and  C_3
REMARK    3  A    between atoms: C_3  and  O_4
REMARK    4  A    between atoms: C_6  and  N_7
REMARK    5  A    between atoms: N_7  and  C_8
REMARK    6  A    between atoms: C_8  and  C_9
REMARK    7  A    between atoms: C_15  and  O_16
REMARK    8  A    between atoms: C_17  and  O_18
REMARK    9  A    between atoms: C_19  and  O_20
REMARK                            x       y       z     vdW  Elec       q    Type
REMARK                         _______ _______ _______ _____ _____    ______ ____
ROOT
ATOM      1  C   UNL     1       2.812   3.107  20.359  0.00  0.00    +0.000 C 
ATOM      2  C   UNL     1       3.020   4.503  19.741  0.00  0.00    +0.000 C 
ATOM      3  C   UNL     1       3.371   4.488  18.245  0.00  0.00    +0.000 C 
ATOM      4  C   UNL     1       2.309   3.661  17.473  0.00  0.00    +0.000 C 
ATOM      5  C   UNL     1       2.156   2.230  18.040  0.00  0.00    +0.000 C 
ATOM      6  C   UNL     1       1.807   2.248  19.545  0.00  0.00    +0.000 C 
ENDROOT
BRANCH   1   7
ATOM      7  O   UNL     1       2.275   3.348  21.678  0.00  0.00    +0.000 OA
ATOM      8  H   UNL     1       2.288   2.480  22.126  0.00  0.00    +0.000 HD
ENDBRANCH   1   7
BRANCH   3   9
ATOM      9  N   UNL     1       3.428   5.862  17.686  0.00  0.00    +0.000 NA
ATOM     10  H   UNL     1       2.852   6.487  18.253  0.00  0.00    +0.000 HD
BRANCH   9  11
ATOM     11  C   UNL     1       4.787   6.423  17.685  0.00  0.00    +0.000 C 
BRANCH  11  12
ATOM     12  C   UNL     1       5.652   5.772  16.641  0.00  0.00    +0.000 A 
ATOM     13  C   UNL     1       5.238   5.654  15.313  0.00  0.00    +0.000 A 
ATOM     14  C   UNL     1       6.064   5.016  14.388  0.00  0.00    +0.000 A 
ATOM     15  C   UNL     1       7.279   4.516  14.829  0.00  0.00    +0.000 A 
ATOM     16  N   UNL     1       7.711   4.605  16.099  0.00  0.00    +0.000 NA
ATOM     17  C   UNL     1       6.897   5.235  16.975  0.00  0.00    +0.000 A 
ENDBRANCH  11  12
ENDBRANCH   9  11
ENDBRANCH   3   9
BRANCH   4  18
ATOM     18  O   UNL     1       1.048   4.336  17.544  0.00  0.00    +0.000 OA
ATOM     19  H   UNL     1       1.151   5.163  17.043  0.00  0.00    +0.000 HD
ENDBRANCH   4  18
BRANCH   5  20
ATOM     20  O   UNL     1       3.335   1.439  17.842  0.00  0.00    +0.000 OA
ATOM     21  H   UNL     1       3.636   1.512  16.921  0.00  0.00    +0.000 HD
ENDBRANCH   5  20
BRANCH   6  22
ATOM     22  O   UNL     1       0.455   2.688  19.733  0.00  0.00    +0.000 OA
ATOM     23  H   UNL     1       0.476   3.503  20.266  0.00  0.00    +0.000 HD
ENDBRANCH   6  22
BRANCH   1  24
ATOM     24  C   UNL     1       4.141   2.347  20.567  0.00  0.00    +0.000 C 
BRANCH  24  25
ATOM     25  O   UNL     1       5.140   2.873  19.686  0.00  0.00    +0.000 OA
ATOM     26  H   UNL     1       5.669   2.110  19.383  0.00  0.00    +0.000 HD
ENDBRANCH  24  25
ENDBRANCH   1  24
TORSDOF 9
ENDMDL
MODEL 7
REMARK VINA RESULT:      -6.9      0.624      1.092
REMARK  Name = 
REMARK  9 active torsions:
REMARK  status: ('A' for Active; 'I' for Inactive)
REMARK    1  A    between atoms: O_1  and  C_2
REMARK    2  A    between atoms: C_2  and  C_3
REMARK    3  A    between atoms: C_3  and  O_4
REMARK    4  A    between atoms: C_6  and  N_7
REMARK    5  A    between atoms: N_7  and  C_8
REMARK    6  A    between atoms: C_8  and  C_9
REMARK    7  A    between atoms: C_15  and  O_16
REMARK    8  A    between atoms: C_17  and  O_18
REMARK    9  A    between atoms: C_19  and  O_20
REMARK                            x       y       z     vdW  Elec       q    Type
REMARK                         _______ _______ _______ _____ _____    ______ ____
ROOT
ATOM      1  C   UNL     1       3.729   2.504  19.686  0.00  0.00    +0.000 C 
ATOM      2  C   UNL     1       4.132   3.976  19.466  0.00  0.00    +0.000 C 
ATOM      3  C   UNL     1       2.975   4.891  19.037  0.00  0.00    +0.000 C 
ATOM      4  C   UNL     1       1.803   4.752  20.043  0.00  0.00    +0.000 C 
ATOM      5  C   UNL     1       1.342   3.284  20.204  0.00  0.00    +0.000 C 
ATOM      6  C   UNL     1       2.507   2.364  20.634  0.00  0.00    +0.000 C 
ENDROOT
BRANCH   1   7
ATOM      7  O   UNL     1       4.879   1.879  20.295  0.00  0.00    +0.000 OA
ATOM      8  H   UNL     1       4.800   2.064  21.251  0.00  0.00    +0.000 HD
ENDBRANCH   1   7
BRANCH   3   9
ATOM      9  N   UNL     1       3.402   6.312  18.971  0.00  0.00    +0.000 NA
ATOM     10  H   UNL     1       4.281   6.429  19.478  0.00  0.00    +0.000 HD
BRANCH   9  11
ATOM     11  C   UNL     1       3.641   6.773  17.595  0.00  0.00    +0.000 C 
BRANCH  11  12
ATOM     12  C   UNL     1       4.928   6.223  17.045  0.00  0.00    +0.000 A 
ATOM     13  C   UNL     1       6.169   6.613  17.551  0.00  0.00    +0.000 A 
ATOM     14  C   UNL     1       7.336   6.097  16.986  0.00  0.00    +0.000 A 
ATOM     15  C   UNL     1       7.216   5.207  15.931  0.00  0.00    +0.000 A 
ATOM     16  N   UNL     1       6.041   4.812  15.412  0.00  0.00    +0.000 NA
ATOM     17  C   UNL     1       4.924   5.320  15.981  0.00  0.00    +0.000 A 
ENDBRANCH  11  12
ENDBRANCH   9  11
ENDBRANCH   3   9
BRANCH   4  18
ATOM     18  O   UNL     1       2.216   5.260  21.316  0.00  0.00    +0.000 OA
ATOM     19  H   UNL     1       3.001   5.809  21.151  0.00  0.00    +0.000 HD
ENDBRANCH   4  18
BRANCH   5  20
ATOM     20  O   UNL     1       0.753   2.765  19.005  0.00  0.00    +0.000 OA
ATOM     21  H   UNL     1       0.952   1.818  18.916  0.00  0.00    +0.000 HD
ENDBRANCH   5  20
BRANCH   6  22
ATOM     22  O   UNL     1       2.860   2.619  22.000  0.00  0.00    +0.000 OA
ATOM     23  H   UNL     1       2.693   1.805  22.509  0.00  0.00    +0.000 HD
ENDBRANCH   6  22
BRANCH   1  24
ATOM     24  C   UNL     1       3.484   1.753  18.358  0.00  0.00    +0.000 C 
BRANCH  24  25
ATOM     25  O   UNL     1       4.335   0.603  18.291  0.00  0.00    +0.000 OA
ATOM     26  H   UNL     1       4.520   0.343  19.213  0.00  0.00    +0.000 HD
ENDBRANCH  24  25
ENDBRANCH   1  24
TORSDOF 9
ENDMDL
MODEL 8
REMARK VINA RESULT:      -6.9      3.416      6.139
REMARK  Name = 
REMARK  9 active torsions:
REMARK  status: ('A' for Active; 'I' for Inactive)
REMARK    1  A    between atoms: O_1  and  C_2
REMARK    2  A    between atoms: C_2  and  C_3
REMARK    3  A    between atoms: C_3  and  O_4
REMARK    4  A    between atoms: C_6  and  N_7
REMARK    5  A    between atoms: N_7  and  C_8
REMARK    6  A    between atoms: C_8  and  C_9
REMARK    7  A    between atoms: C_15  and  O_16
REMARK    8  A    between atoms: C_17  and  O_18
REMARK    9  A    between atoms: C_19  and  O_20
REMARK                            x       y       z     vdW  Elec       q    Type
REMARK                         _______ _______ _______ _____ _____    ______ ____
ROOT
ATOM      1  C   UNL     1       6.048   5.578  15.556  0.00  0.00    +0.000 C 
ATOM      2  C   UNL     1       4.768   4.808  15.937  0.00  0.00    +0.000 C 
ATOM      3  C   UNL     1       4.981   3.702  16.981  0.00  0.00    +0.000 C 
ATOM      4  C   UNL     1       5.697   4.294  18.224  0.00  0.00    +0.000 C 
ATOM      5  C   UNL     1       7.024   4.997  17.855  0.00  0.00    +0.000 C 
ATOM      6  C   UNL     1       6.808   6.107  16.803  0.00  0.00    +0.000 C 
ENDROOT
BRANCH   1   7
ATOM      7  O   UNL     1       5.600   6.696  14.760  0.00  0.00    +0.000 OA
ATOM      8  H   UNL     1       4.877   7.108  15.272  0.00  0.00    +0.000 HD
ENDBRANCH   1   7
BRANCH   3   9
ATOM      9  N   UNL     1       3.693   3.092  17.398  0.00  0.00    +0.000 NA
ATOM     10  H   UNL     1       3.277   2.598  16.607  0.00  0.00    +0.000 HD
BRANCH   9  11
ATOM     11  C   UNL     1       3.851   2.106  18.477  0.00  0.00    +0.000 C 
BRANCH  11  12
ATOM     12  C   UNL     1       2.922   2.391  19.625  0.00  0.00    +0.000 A 
ATOM     13  C   UNL     1       1.587   2.744  19.420  0.00  0.00    +0.000 A 
ATOM     14  C   UNL     1       0.774   3.027  20.518  0.00  0.00    +0.000 A 
ATOM     15  C   UNL     1       1.329   2.947  21.784  0.00  0.00    +0.000 A 
ATOM     16  N   UNL     1       2.609   2.616  22.023  0.00  0.00    +0.000 NA
ATOM     17  C   UNL     1       3.376   2.338  20.944  0.00  0.00    +0.000 A 
ENDBRANCH  11  12
ENDBRANCH   9  11
ENDBRANCH   3   9
BRANCH   4  18
ATOM     18  O   UNL     1       4.825   5.233  18.863  0.00  0.00    +0.000 OA
ATOM     19  H   UNL     1       4.091   5.391  18.245  0.00  0.00    +0.000 HD
ENDBRANCH   4  18
BRANCH   5  20
ATOM     20  O   UNL     1       8.009   4.076  17.369  0.00  0.00    +0.000 OA
ATOM     21  H   UNL     1       7.578   3.333  16.914  0.00  0.00    +0.000 HD
ENDBRANCH   5  20
BRANCH   6  22
ATOM     22  O   UNL     1       6.142   7.228  17.397  0.00  0.00    +0.000 OA
ATOM     23  H   UNL     1       5.185   7.121  17.250  0.00  0.00    +0.000 HD
ENDBRANCH   6  22
BRANCH   1  24
ATOM     24  C   UNL     1       6.987   4.753  14.649  0.00  0.00    +0.000 C 
BRANCH  24  25
ATOM     25  O   UNL     1       7.920   5.625  14.001  0.00  0.00    +0.000 OA
ATOM     26  H   UNL     1       7.693   6.531  14.285  0.00  0.00    +0.000 HD
ENDBRANCH  24  25
ENDBRANCH   1  24
TORSDOF 9
ENDMDL
MODEL 9
REMARK VINA RESULT:      -6.9      3.346      6.038
REMARK  Name = 
REMARK  9 active torsions:
REMARK  status: ('A' for Active; 'I' for Inactive)
REMARK    1  A    between atoms: O_1  and  C_2
REMARK    2  A    between atoms: C_2  and  C_3
REMARK    3  A    between atoms: C_3  and  O_4
REMARK    4  A    between atoms: C_6  and  N_7
REMARK    5  A    between atoms: N_7  and  C_8
REMARK    6  A    between atoms: C_8  and  C_9
REMARK    7  A    between atoms: C_15  and  O_16
REMARK    8  A    between atoms: C_17  and  O_18
REMARK    9  A    between atoms: C_19  and  O_20
REMARK                            x       y       z     vdW  Elec       q    Type
REMARK                         _______ _______ _______ _____ _____    ______ ____
ROOT
ATOM      1  C   UNL     1       7.221   4.932  17.807  0.00  0.00    +0.000 C 
ATOM      2  C   UNL     1       5.976   4.031  17.691  0.00  0.00    +0.000 C 
ATOM      3  C   UNL     1       4.655   4.795  17.513  0.00  0.00    +0.000 C 
ATOM      4  C   UNL     1       4.779   5.773  16.317  0.00  0.00    +0.000 C 
ATOM      5  C   UNL     1       5.981   6.735  16.470  0.00  0.00    +0.000 C 
ATOM      6  C   UNL     1       7.308   5.965  16.651  0.00  0.00    +0.000 C 
ENDROOT
BRANCH   1   7
ATOM      7  O   UNL     1       8.351   4.036  17.734  0.00  0.00    +0.000 OA
ATOM      8  H   UNL     1       8.999   4.382  18.377  0.00  0.00    +0.000 HD
ENDBRANCH   1   7
BRANCH   3   9
ATOM      9  N   UNL     1       3.518   3.869  17.277  0.00  0.00    +0.000 NA
ATOM     10  H   UNL     1       3.494   3.601  16.292  0.00  0.00    +0.000 HD
BRANCH   9  11
ATOM     11  C   UNL     1       3.625   2.624  18.052  0.00  0.00    +0.000 C 
BRANCH  11  12
ATOM     12  C   UNL     1       2.851   2.705  19.338  0.00  0.00    +0.000 A 
ATOM     13  C   UNL     1       1.501   3.060  19.361  0.00  0.00    +0.000 A 
ATOM     14  C   UNL     1       0.834   3.150  20.584  0.00  0.00    +0.000 A 
ATOM     15  C   UNL     1       1.546   2.882  21.741  0.00  0.00    +0.000 A 
ATOM     16  N   UNL     1       2.847   2.543  21.761  0.00  0.00    +0.000 NA
ATOM     17  C   UNL     1       3.470   2.454  20.564  0.00  0.00    +0.000 A 
ENDBRANCH  11  12
ENDBRANCH   9  11
ENDBRANCH   3   9
BRANCH   4  18
ATOM     18  O   UNL     1       4.928   5.019  15.109  0.00  0.00    +0.000 OA
ATOM     19  H   UNL     1       4.055   5.012  14.681  0.00  0.00    +0.000 HD
ENDBRANCH   4  18
BRANCH   5  20
ATOM     20  O   UNL     1       5.813   7.643  17.566  0.00  0.00    +0.000 OA
ATOM     21  H   UNL     1       6.548   7.550  18.195  0.00  0.00    +0.000 HD
ENDBRANCH   5  20
BRANCH   6  22
ATOM     22  O   UNL     1       7.695   5.350  15.415  0.00  0.00    +0.000 OA
ATOM     23  H   UNL     1       7.926   6.058  14.787  0.00  0.00    +0.000 HD
ENDBRANCH   6  22
BRANCH   1  24
ATOM     24  C   UNL     1       7.317   5.635  19.180  0.00  0.00    +0.000 C 
BRANCH  24  25
ATOM     25  O   UNL     1       8.285   6.688  19.115  0.00  0.00    +0.000 OA
ATOM     26  H   UNL     1       9.107   6.331  19.501  0.00  0.00    +0.000 HD
ENDBRANCH  24  25
ENDBRANCH   1  24
TORSDOF 9
ENDMDL
