MODEL 1
REMARK VINA RESULT:      -8.8      0.000      0.000
REMARK  Name = 
REMARK  3 active torsions:
REMARK  status: ('A' for Active; 'I' for Inactive)
REMARK    1  A    between atoms: C_2  and  C_21
REMARK    2  A    between atoms: N_3  and  N_4
REMARK    3  A    between atoms: C_5  and  C_7
REMARK                            x       y       z     vdW  Elec       q    Type
REMARK                         _______ _______ _______ _____ _____    ______ ____
ROOT
ATOM      1  N   UNL     1       7.540   8.914  18.157  0.00  0.00    +0.000 N 
ATOM      2  C   UNL     1       7.638   7.741  17.433  0.00  0.00    +0.000 C 
ATOM      3  O   UNL     1       8.358   7.620  16.446  0.00  0.00    +0.000 OA
ATOM      4  H   UNL     1       7.040   9.008  19.039  0.00  0.00    +0.000 HD
ENDROOT
BRANCH   2   5
ATOM      5  C   UNL     1       6.830   6.593  17.936  0.00  0.00    +0.000 A 
ATOM      6  C   UNL     1       7.460   5.609  18.711  0.00  0.00    +0.000 A 
ATOM      7  C   UNL     1       6.721   4.535  19.215  0.00  0.00    +0.000 A 
ATOM      8  C   UNL     1       5.360   4.431  18.911  0.00  0.00    +0.000 A 
ATOM      9  C   UNL     1       4.550   3.296  19.408  0.00  0.00    +0.000 A 
ATOM     10  O   UNL     1       5.021   2.467  20.177  0.00  0.00    +0.000 OA
ATOM     11  N   UNL     1       3.260   3.267  18.931  0.00  0.00    +0.000 N 
ATOM     12  C   UNL     1       2.739   4.241  18.116  0.00  0.00    +0.000 A 
ATOM     13  N   UNL     1       3.382   5.279  17.704  0.00  0.00    +0.000 NA
ATOM     14  C   UNL     1       4.728   5.384  18.097  0.00  0.00    +0.000 A 
ATOM     15  C   UNL     1       5.470   6.468  17.624  0.00  0.00    +0.000 A 
ATOM     16  C   UNL     1       1.322   3.920  17.765  0.00  0.00    +0.000 C 
ATOM     17  C   UNL     1       1.045   2.599  18.477  0.00  0.00    +0.000 C 
ATOM     18  C   UNL     1       2.311   2.234  19.238  0.00  0.00    +0.000 C 
ENDBRANCH   2   5
BRANCH   1  21
ATOM     19  O   UNL     1       9.304  10.170  19.767  0.00  0.00    +0.000 OA
ATOM     20  C   UNL     1       9.127  10.614  18.634  0.00  0.00    +0.000 C 
ATOM     21  N   UNL     1       8.257  10.034  17.734  0.00  0.00    +0.000 N 
ATOM     22  H   UNL     1       8.183  10.279  16.748  0.00  0.00    +0.000 HD
BRANCH  20  23
ATOM     23  C   UNL     1       9.875  11.812  18.172  0.00  0.00    +0.000 A 
ATOM     24  C   UNL     1      11.231  11.665  17.845  0.00  0.00    +0.000 A 
ATOM     25  C   UNL     1      11.988  12.774  17.465  0.00  0.00    +0.000 A 
ATOM     26  C   UNL     1      11.399  14.036  17.425  0.00  0.00    +0.000 A 
ATOM     27  C   UNL     1      10.052  14.181  17.759  0.00  0.00    +0.000 A 
ATOM     28 CL   UNL     1       9.339  15.750  17.746  0.00  0.00    +0.000 Cl
ATOM     29  C   UNL     1       9.281  13.079  18.128  0.00  0.00    +0.000 A 
ENDBRANCH  20  23
ENDBRANCH   1  21
TORSDOF 3
ENDMDL
MODEL 2
REMARK VINA RESULT:      -8.8      7.695      9.078
REMARK  Name = 
REMARK  3 active torsions:
REMARK  status: ('A' for Active; 'I' for Inactive)
REMARK    1  A    between atoms: C_2  and  C_21
REMARK    2  A    between atoms: N_3  and  N_4
REMARK    3  A    between atoms: C_5  and  C_7
REMARK                            x       y       z     vdW  Elec       q    Type
REMARK                         _______ _______ _______ _____ _____    ______ ____
ROOT
ATOM      1  N   UNL     1       0.011   9.851  20.781  0.00  0.00    +0.000 N 
ATOM      2  C   UNL     1       0.816  10.038  19.674  0.00  0.00    +0.000 C 
ATOM      3  O   UNL     1       0.916  11.114  19.091  0.00  0.00    +0.000 OA
ATOM      4  H   UNL     1      -0.004   9.006  21.348  0.00  0.00    +0.000 HD
ENDROOT
BRANCH   2   5
ATOM      5  C   UNL     1       1.601   8.850  19.228  0.00  0.00    +0.000 A 
ATOM      6  C   UNL     1       2.253   8.896  17.987  0.00  0.00    +0.000 A 
ATOM      7  C   UNL     1       3.014   7.806  17.556  0.00  0.00    +0.000 A 
ATOM      8  C   UNL     1       3.092   6.660  18.353  0.00  0.00    +0.000 A 
ATOM      9  C   UNL     1       3.871   5.478  17.920  0.00  0.00    +0.000 A 
ATOM     10  O   UNL     1       4.547   5.502  16.898  0.00  0.00    +0.000 OA
ATOM     11  N   UNL     1       3.758   4.388  18.751  0.00  0.00    +0.000 N 
ATOM     12  C   UNL     1       3.041   4.407  19.921  0.00  0.00    +0.000 A 
ATOM     13  N   UNL     1       2.396   5.426  20.373  0.00  0.00    +0.000 NA
ATOM     14  C   UNL     1       2.407   6.585  19.576  0.00  0.00    +0.000 A 
ATOM     15  C   UNL     1       1.673   7.690  20.009  0.00  0.00    +0.000 A 
ATOM     16  C   UNL     1       3.105   3.072  20.590  0.00  0.00    +0.000 C 
ATOM     17  C   UNL     1       3.962   2.222  19.657  0.00  0.00    +0.000 C 
ATOM     18  C   UNL     1       4.383   3.119  18.504  0.00  0.00    +0.000 C 
ENDBRANCH   2   5
BRANCH   1  21
ATOM     19  O   UNL     1      -0.210  10.418  23.410  0.00  0.00    +0.000 OA
ATOM     20  C   UNL     1      -0.824  11.119  22.607  0.00  0.00    +0.000 C 
ATOM     21  N   UNL     1      -0.763  10.916  21.243  0.00  0.00    +0.000 N 
ATOM     22  H   UNL     1      -1.136  11.550  20.539  0.00  0.00    +0.000 HD
BRANCH  20  23
ATOM     23  C   UNL     1      -1.662  12.249  23.084  0.00  0.00    +0.000 A 
ATOM     24  C   UNL     1      -1.037  13.479  23.337  0.00  0.00    +0.000 A 
ATOM     25  C   UNL     1      -1.772  14.552  23.843  0.00  0.00    +0.000 A 
ATOM     26  C   UNL     1      -3.130  14.396  24.115  0.00  0.00    +0.000 A 
ATOM     27  C   UNL     1      -3.747  13.168  23.871  0.00  0.00    +0.000 A 
ATOM     28 CL   UNL     1      -5.418  12.969  24.245  0.00  0.00    +0.000 Cl
ATOM     29  C   UNL     1      -3.026  12.093  23.352  0.00  0.00    +0.000 A 
ENDBRANCH  20  23
ENDBRANCH   1  21
TORSDOF 3
ENDMDL
MODEL 3
REMARK VINA RESULT:      -8.6      7.421      8.867
REMARK  Name = 
REMARK  3 active torsions:
REMARK  status: ('A' for Active; 'I' for Inactive)
REMARK    1  A    between atoms: C_2  and  C_21
REMARK    2  A    between atoms: N_3  and  N_4
REMARK    3  A    between atoms: C_5  and  C_7
REMARK                            x       y       z     vdW  Elec       q    Type
REMARK                         _______ _______ _______ _____ _____    ______ ____
ROOT
ATOM      1  N   UNL     1      -0.043   9.881  20.799  0.00  0.00    +0.000 N 
ATOM      2  C   UNL     1       0.872  10.099  19.787  0.00  0.00    +0.000 C 
ATOM      3  O   UNL     1       1.102  11.210  19.317  0.00  0.00    +0.000 OA
ATOM      4  H   UNL     1      -0.171   8.994  21.281  0.00  0.00    +0.000 HD
ENDROOT
BRANCH   2   5
ATOM      5  C   UNL     1       1.606   8.895  19.300  0.00  0.00    +0.000 A 
ATOM      6  C   UNL     1       2.193   8.929  18.026  0.00  0.00    +0.000 A 
ATOM      7  C   UNL     1       2.908   7.824  17.554  0.00  0.00    +0.000 A 
ATOM      8  C   UNL     1       3.002   6.675  18.346  0.00  0.00    +0.000 A 
ATOM      9  C   UNL     1       3.731   5.477  17.871  0.00  0.00    +0.000 A 
ATOM     10  O   UNL     1       4.354   5.489  16.816  0.00  0.00    +0.000 OA
ATOM     11  N   UNL     1       3.639   4.388  18.706  0.00  0.00    +0.000 N 
ATOM     12  C   UNL     1       2.984   4.420  19.912  0.00  0.00    +0.000 A 
ATOM     13  N   UNL     1       2.386   5.452  20.398  0.00  0.00    +0.000 NA
ATOM     14  C   UNL     1       2.380   6.612  19.603  0.00  0.00    +0.000 A 
ATOM     15  C   UNL     1       1.694   7.732  20.074  0.00  0.00    +0.000 A 
ATOM     16  C   UNL     1       3.054   3.083  20.576  0.00  0.00    +0.000 C 
ATOM     17  C   UNL     1       3.843   2.217  19.599  0.00  0.00    +0.000 C 
ATOM     18  C   UNL     1       4.223   3.107  18.426  0.00  0.00    +0.000 C 
ENDBRANCH   2   5
BRANCH   1  21
ATOM     19  O   UNL     1      -0.240  10.384  23.442  0.00  0.00    +0.000 OA
ATOM     20  C   UNL     1      -0.829  11.128  22.660  0.00  0.00    +0.000 C 
ATOM     21  N   UNL     1      -0.778  10.961  21.291  0.00  0.00    +0.000 N 
ATOM     22  H   UNL     1      -1.128  11.627  20.605  0.00  0.00    +0.000 HD
BRANCH  20  23
ATOM     23  C   UNL     1      -1.625  12.275  23.170  0.00  0.00    +0.000 A 
ATOM     24  C   UNL     1      -2.977  12.062  23.475  0.00  0.00    +0.000 A 
ATOM     25  C   UNL     1      -3.779  13.123  23.899  0.00  0.00    +0.000 A 
ATOM     26  C   UNL     1      -3.238  14.403  24.004  0.00  0.00    +0.000 A 
ATOM     27  C   UNL     1      -1.895  14.613  23.692  0.00  0.00    +0.000 A 
ATOM     28 CL   UNL     1      -1.241  16.205  23.787  0.00  0.00    +0.000 Cl
ATOM     29  C   UNL     1      -1.080  13.559  23.280  0.00  0.00    +0.000 A 
ENDBRANCH  20  23
ENDBRANCH   1  21
TORSDOF 3
ENDMDL
MODEL 4
REMARK VINA RESULT:      -8.6      1.803      2.222
REMARK  Name = 
REMARK  3 active torsions:
REMARK  status: ('A' for Active; 'I' for Inactive)
REMARK    1  A    between atoms: C_2  and  C_21
REMARK    2  A    between atoms: N_3  and  N_4
REMARK    3  A    between atoms: C_5  and  C_7
REMARK                            x       y       z     vdW  Elec       q    Type
REMARK                         _______ _______ _______ _____ _____    ______ ____
ROOT
ATOM      1  N   UNL     1       7.888   7.720  18.847  0.00  0.00    +0.000 N 
ATOM      2  C   UNL     1       7.549   7.189  17.617  0.00  0.00    +0.000 C 
ATOM      3  O   UNL     1       8.188   7.411  16.592  0.00  0.00    +0.000 OA
ATOM      4  H   UNL     1       7.446   7.465  19.728  0.00  0.00    +0.000 HD
ENDROOT
BRANCH   2   5
ATOM      5  C   UNL     1       6.360   6.290  17.598  0.00  0.00    +0.000 A 
ATOM      6  C   UNL     1       5.938   5.751  16.374  0.00  0.00    +0.000 A 
ATOM      7  C   UNL     1       4.841   4.885  16.331  0.00  0.00    +0.000 A 
ATOM      8  C   UNL     1       4.148   4.590  17.510  0.00  0.00    +0.000 A 
ATOM      9  C   UNL     1       2.969   3.696  17.501  0.00  0.00    +0.000 A 
ATOM     10  O   UNL     1       2.621   3.113  16.481  0.00  0.00    +0.000 OA
ATOM     11  N   UNL     1       2.323   3.594  18.711  0.00  0.00    +0.000 N 
ATOM     12  C   UNL     1       2.768   4.213  19.853  0.00  0.00    +0.000 A 
ATOM     13  N   UNL     1       3.821   4.952  19.929  0.00  0.00    +0.000 NA
ATOM     14  C   UNL     1       4.533   5.161  18.734  0.00  0.00    +0.000 A 
ATOM     15  C   UNL     1       5.647   6.000  18.768  0.00  0.00    +0.000 A 
ATOM     16  C   UNL     1       1.850   3.917  20.995  0.00  0.00    +0.000 C 
ATOM     17  C   UNL     1       0.767   3.029  20.389  0.00  0.00    +0.000 C 
ATOM     18  C   UNL     1       1.131   2.825  18.926  0.00  0.00    +0.000 C 
ENDBRANCH   2   5
BRANCH   1  21
ATOM     19  O   UNL     1       7.696  10.332  18.201  0.00  0.00    +0.000 OA
ATOM     20  C   UNL     1       8.787   9.900  18.571  0.00  0.00    +0.000 C 
ATOM     21  N   UNL     1       8.981   8.583  18.935  0.00  0.00    +0.000 N 
ATOM     22  H   UNL     1       9.821   8.215  19.378  0.00  0.00    +0.000 HD
BRANCH  20  23
ATOM     23  C   UNL     1       9.962  10.805  18.659  0.00  0.00    +0.000 A 
ATOM     24  C   UNL     1      10.559  10.999  19.914  0.00  0.00    +0.000 A 
ATOM     25  C   UNL     1      11.627  11.886  20.056  0.00  0.00    +0.000 A 
ATOM     26  C   UNL     1      12.093  12.595  18.950  0.00  0.00    +0.000 A 
ATOM     27  C   UNL     1      11.492  12.406  17.705  0.00  0.00    +0.000 A 
ATOM     28 CL   UNL     1      12.046  13.313  16.349  0.00  0.00    +0.000 Cl
ATOM     29  C   UNL     1      10.432  11.512  17.547  0.00  0.00    +0.000 A 
ENDBRANCH  20  23
ENDBRANCH   1  21
TORSDOF 3
ENDMDL
MODEL 5
REMARK VINA RESULT:      -8.5      7.350      8.871
REMARK  Name = 
REMARK  3 active torsions:
REMARK  status: ('A' for Active; 'I' for Inactive)
REMARK    1  A    between atoms: C_2  and  C_21
REMARK    2  A    between atoms: N_3  and  N_4
REMARK    3  A    between atoms: C_5  and  C_7
REMARK                            x       y       z     vdW  Elec       q    Type
REMARK                         _______ _______ _______ _____ _____    ______ ____
ROOT
ATOM      1  N   UNL     1       0.339   9.343  20.830  0.00  0.00    +0.000 N 
ATOM      2  C   UNL     1       1.087   9.405  19.670  0.00  0.00    +0.000 C 
ATOM      3  O   UNL     1       1.134  10.401  18.954  0.00  0.00    +0.000 OA
ATOM      4  H   UNL     1       0.370   8.575  21.497  0.00  0.00    +0.000 HD
ENDROOT
BRANCH   2   5
ATOM      5  C   UNL     1       1.878   8.185  19.336  0.00  0.00    +0.000 A 
ATOM      6  C   UNL     1       1.888   7.115  20.244  0.00  0.00    +0.000 A 
ATOM      7  C   UNL     1       2.602   5.951  19.944  0.00  0.00    +0.000 A 
ATOM      8  C   UNL     1       3.331   5.876  18.753  0.00  0.00    +0.000 A 
ATOM      9  C   UNL     1       4.117   4.668  18.413  0.00  0.00    +0.000 A 
ATOM     10  O   UNL     1       4.076   3.664  19.114  0.00  0.00    +0.000 OA
ATOM     11  N   UNL     1       4.874   4.786  17.271  0.00  0.00    +0.000 N 
ATOM     12  C   UNL     1       4.856   5.901  16.471  0.00  0.00    +0.000 A 
ATOM     13  N   UNL     1       4.146   6.954  16.689  0.00  0.00    +0.000 NA
ATOM     14  C   UNL     1       3.366   6.957  17.860  0.00  0.00    +0.000 A 
ATOM     15  C   UNL     1       2.627   8.104  18.156  0.00  0.00    +0.000 A 
ATOM     16  C   UNL     1       5.788   5.725  15.315  0.00  0.00    +0.000 C 
ATOM     17  C   UNL     1       6.390   4.339  15.523  0.00  0.00    +0.000 C 
ATOM     18  C   UNL     1       5.750   3.762  16.776  0.00  0.00    +0.000 C 
ENDBRANCH   2   5
BRANCH   1  21
ATOM     19  O   UNL     1       0.076  10.114  23.402  0.00  0.00    +0.000 OA
ATOM     20  C   UNL     1      -0.521  10.752  22.537  0.00  0.00    +0.000 C 
ATOM     21  N   UNL     1      -0.439  10.443  21.194  0.00  0.00    +0.000 N 
ATOM     22  H   UNL     1      -0.797  11.022  20.436  0.00  0.00    +0.000 HD
BRANCH  20  23
ATOM     23  C   UNL     1      -1.361  11.919  22.910  0.00  0.00    +0.000 A 
ATOM     24  C   UNL     1      -0.793  13.199  22.833  0.00  0.00    +0.000 A 
ATOM     25  C   UNL     1      -1.524  14.320  23.231  0.00  0.00    +0.000 A 
ATOM     26  C   UNL     1      -2.820  14.164  23.722  0.00  0.00    +0.000 A 
ATOM     27  C   UNL     1      -3.379  12.889  23.805  0.00  0.00    +0.000 A 
ATOM     28 CL   UNL     1      -4.966  12.699  24.449  0.00  0.00    +0.000 Cl
ATOM     29  C   UNL     1      -2.663  11.763  23.398  0.00  0.00    +0.000 A 
ENDBRANCH  20  23
ENDBRANCH   1  21
TORSDOF 3
ENDMDL
MODEL 6
REMARK VINA RESULT:      -8.4      1.372      1.511
REMARK  Name = 
REMARK  3 active torsions:
REMARK  status: ('A' for Active; 'I' for Inactive)
REMARK    1  A    between atoms: C_2  and  C_21
REMARK    2  A    between atoms: N_3  and  N_4
REMARK    3  A    between atoms: C_5  and  C_7
REMARK                            x       y       z     vdW  Elec       q    Type
REMARK                         _______ _______ _______ _____ _____    ______ ____
ROOT
ATOM      1  N   UNL     1       7.007   8.491  17.795  0.00  0.00    +0.000 N 
ATOM      2  C   UNL     1       7.258   7.313  17.119  0.00  0.00    +0.000 C 
ATOM      3  O   UNL     1       8.185   7.179  16.325  0.00  0.00    +0.000 OA
ATOM      4  H   UNL     1       6.319   8.596  18.538  0.00  0.00    +0.000 HD
ENDROOT
BRANCH   2   5
ATOM      5  C   UNL     1       6.345   6.175  17.428  0.00  0.00    +0.000 A 
ATOM      6  C   UNL     1       6.352   5.052  16.586  0.00  0.00    +0.000 A 
ATOM      7  C   UNL     1       5.525   3.962  16.867  0.00  0.00    +0.000 A 
ATOM      8  C   UNL     1       4.667   4.012  17.970  0.00  0.00    +0.000 A 
ATOM      9  C   UNL     1       3.759   2.886  18.286  0.00  0.00    +0.000 A 
ATOM     10  O   UNL     1       3.800   1.839  17.650  0.00  0.00    +0.000 OA
ATOM     11  N   UNL     1       2.894   3.128  19.327  0.00  0.00    +0.000 N 
ATOM     12  C   UNL     1       2.909   4.288  20.061  0.00  0.00    +0.000 A 
ATOM     13  N   UNL     1       3.717   5.273  19.866  0.00  0.00    +0.000 NA
ATOM     14  C   UNL     1       4.617   5.149  18.793  0.00  0.00    +0.000 A 
ATOM     15  C   UNL     1       5.469   6.220  18.519  0.00  0.00    +0.000 A 
ATOM     16  C   UNL     1       1.847   4.251  21.112  0.00  0.00    +0.000 C 
ATOM     17  C   UNL     1       1.167   2.899  20.915  0.00  0.00    +0.000 C 
ATOM     18  C   UNL     1       1.895   2.201  19.775  0.00  0.00    +0.000 C 
ENDBRANCH   2   5
BRANCH   1  21
ATOM     19  O   UNL     1       8.926   9.284  19.518  0.00  0.00    +0.000 OA
ATOM     20  C   UNL     1       8.759   9.936  18.489  0.00  0.00    +0.000 C 
ATOM     21  N   UNL     1       7.813   9.603  17.542  0.00  0.00    +0.000 N 
ATOM     22  H   UNL     1       7.734  10.024  16.618  0.00  0.00    +0.000 HD
BRANCH  20  23
ATOM     23  C   UNL     1       9.601  11.128  18.211  0.00  0.00    +0.000 A 
ATOM     24  C   UNL     1      10.992  10.960  18.149  0.00  0.00    +0.000 A 
ATOM     25  C   UNL     1      11.827  12.061  17.949  0.00  0.00    +0.000 A 
ATOM     26  C   UNL     1      11.276  13.336  17.828  0.00  0.00    +0.000 A 
ATOM     27  C   UNL     1       9.893  13.501  17.899  0.00  0.00    +0.000 A 
ATOM     28 CL   UNL     1       9.221  15.084  17.788  0.00  0.00    +0.000 Cl
ATOM     29  C   UNL     1       9.048  12.407  18.085  0.00  0.00    +0.000 A 
ENDBRANCH  20  23
ENDBRANCH   1  21
TORSDOF 3
ENDMDL
MODEL 7
REMARK VINA RESULT:      -8.2      7.207      8.762
REMARK  Name = 
REMARK  3 active torsions:
REMARK  status: ('A' for Active; 'I' for Inactive)
REMARK    1  A    between atoms: C_2  and  C_21
REMARK    2  A    between atoms: N_3  and  N_4
REMARK    3  A    between atoms: C_5  and  C_7
REMARK                            x       y       z     vdW  Elec       q    Type
REMARK                         _______ _______ _______ _____ _____    ______ ____
ROOT
ATOM      1  N   UNL     1      -0.023   9.476  20.928  0.00  0.00    +0.000 N 
ATOM      2  C   UNL     1       0.969   9.596  19.974  0.00  0.00    +0.000 C 
ATOM      3  O   UNL     1       1.283  10.668  19.464  0.00  0.00    +0.000 OA
ATOM      4  H   UNL     1      -0.226   8.623  21.445  0.00  0.00    +0.000 HD
ENDROOT
BRANCH   2   5
ATOM      5  C   UNL     1       1.677   8.337  19.605  0.00  0.00    +0.000 A 
ATOM      6  C   UNL     1       1.579   7.228  20.459  0.00  0.00    +0.000 A 
ATOM      7  C   UNL     1       2.213   6.028  20.125  0.00  0.00    +0.000 A 
ATOM      8  C   UNL     1       2.973   5.953  18.953  0.00  0.00    +0.000 A 
ATOM      9  C   UNL     1       3.678   4.706  18.578  0.00  0.00    +0.000 A 
ATOM     10  O   UNL     1       3.539   3.677  19.228  0.00  0.00    +0.000 OA
ATOM     11  N   UNL     1       4.478   4.818  17.465  0.00  0.00    +0.000 N 
ATOM     12  C   UNL     1       4.569   5.968  16.719  0.00  0.00    +0.000 A 
ATOM     13  N   UNL     1       3.933   7.060  16.968  0.00  0.00    +0.000 NA
ATOM     14  C   UNL     1       3.118   7.069  18.114  0.00  0.00    +0.000 A 
ATOM     15  C   UNL     1       2.456   8.253  18.444  0.00  0.00    +0.000 A 
ATOM     16  C   UNL     1       5.522   5.775  15.584  0.00  0.00    +0.000 C 
ATOM     17  C   UNL     1       6.013   4.339  15.742  0.00  0.00    +0.000 C 
ATOM     18  C   UNL     1       5.291   3.755  16.947  0.00  0.00    +0.000 C 
ENDBRANCH   2   5
BRANCH   1  21
ATOM     19  O   UNL     1      -0.085  10.330  23.486  0.00  0.00    +0.000 OA
ATOM     20  C   UNL     1      -0.719  10.962  22.643  0.00  0.00    +0.000 C 
ATOM     21  N   UNL     1      -0.738  10.612  21.309  0.00  0.00    +0.000 N 
ATOM     22  H   UNL     1      -1.129  11.180  20.559  0.00  0.00    +0.000 HD
BRANCH  20  23
ATOM     23  C   UNL     1      -1.494  12.167  23.036  0.00  0.00    +0.000 A 
ATOM     24  C   UNL     1      -2.824  11.996  23.449  0.00  0.00    +0.000 A 
ATOM     25  C   UNL     1      -3.610  13.105  23.769  0.00  0.00    +0.000 A 
ATOM     26  C   UNL     1      -3.076  14.388  23.662  0.00  0.00    +0.000 A 
ATOM     27  C   UNL     1      -1.757  14.555  23.242  0.00  0.00    +0.000 A 
ATOM     28 CL   UNL     1      -1.115  16.145  23.074  0.00  0.00    +0.000 Cl
ATOM     29  C   UNL     1      -0.957  13.455  22.932  0.00  0.00    +0.000 A 
ENDBRANCH  20  23
ENDBRANCH   1  21
TORSDOF 3
ENDMDL
MODEL 8
REMARK VINA RESULT:      -8.1      5.873      6.558
REMARK  Name = 
REMARK  3 active torsions:
REMARK  status: ('A' for Active; 'I' for Inactive)
REMARK    1  A    between atoms: C_2  and  C_21
REMARK    2  A    between atoms: N_3  and  N_4
REMARK    3  A    between atoms: C_5  and  C_7
REMARK                            x       y       z     vdW  Elec       q    Type
REMARK                         _______ _______ _______ _____ _____    ______ ____
ROOT
ATOM      1  N   UNL     1       2.296  11.313  18.098  0.00  0.00    +0.000 N 
ATOM      2  C   UNL     1       1.248  10.579  18.619  0.00  0.00    +0.000 C 
ATOM      3  O   UNL     1       0.109  11.022  18.732  0.00  0.00    +0.000 OA
ATOM      4  H   UNL     1       3.218  10.937  17.890  0.00  0.00    +0.000 HD
ENDROOT
BRANCH   2   5
ATOM      5  C   UNL     1       1.567   9.178  19.018  0.00  0.00    +0.000 A 
ATOM      6  C   UNL     1       1.299   8.771  20.334  0.00  0.00    +0.000 A 
ATOM      7  C   UNL     1       1.566   7.456  20.728  0.00  0.00    +0.000 A 
ATOM      8  C   UNL     1       2.133   6.563  19.813  0.00  0.00    +0.000 A 
ATOM      9  C   UNL     1       2.450   5.170  20.200  0.00  0.00    +0.000 A 
ATOM     10  O   UNL     1       2.139   4.730  21.300  0.00  0.00    +0.000 OA
ATOM     11  N   UNL     1       3.110   4.448  19.234  0.00  0.00    +0.000 N 
ATOM     12  C   UNL     1       3.395   4.947  17.987  0.00  0.00    +0.000 A 
ATOM     13  N   UNL     1       3.088   6.130  17.579  0.00  0.00    +0.000 NA
ATOM     14  C   UNL     1       2.449   6.972  18.508  0.00  0.00    +0.000 A 
ATOM     15  C   UNL     1       2.151   8.279  18.117  0.00  0.00    +0.000 A 
ATOM     16  C   UNL     1       4.123   3.927  17.173  0.00  0.00    +0.000 C 
ATOM     17  C   UNL     1       4.253   2.724  18.103  0.00  0.00    +0.000 C 
ATOM     18  C   UNL     1       3.561   3.096  19.406  0.00  0.00    +0.000 C 
ENDBRANCH   2   5
BRANCH   1  21
ATOM     19  O   UNL     1       2.860  13.381  19.737  0.00  0.00    +0.000 OA
ATOM     20  C   UNL     1       2.381  13.626  18.631  0.00  0.00    +0.000 C 
ATOM     21  N   UNL     1       2.072  12.638  17.719  0.00  0.00    +0.000 N 
ATOM     22  H   UNL     1       1.810  12.798  16.747  0.00  0.00    +0.000 HD
BRANCH  20  23
ATOM     23  C   UNL     1       2.127  15.030  18.217  0.00  0.00    +0.000 A 
ATOM     24  C   UNL     1       3.117  15.694  17.476  0.00  0.00    +0.000 A 
ATOM     25  C   UNL     1       2.948  17.032  17.117  0.00  0.00    +0.000 A 
ATOM     26  C   UNL     1       1.799  17.717  17.510  0.00  0.00    +0.000 A 
ATOM     27  C   UNL     1       0.822  17.056  18.253  0.00  0.00    +0.000 A 
ATOM     28 CL   UNL     1      -0.579  17.918  18.769  0.00  0.00    +0.000 Cl
ATOM     29  C   UNL     1       0.972  15.715  18.607  0.00  0.00    +0.000 A 
ENDBRANCH  20  23
ENDBRANCH   1  21
TORSDOF 3
ENDMDL
MODEL 9
REMARK VINA RESULT:      -8.1      5.929      6.623
REMARK  Name = 
REMARK  3 active torsions:
REMARK  status: ('A' for Active; 'I' for Inactive)
REMARK    1  A    between atoms: C_2  and  C_21
REMARK    2  A    between atoms: N_3  and  N_4
REMARK    3  A    between atoms: C_5  and  C_7
REMARK                            x       y       z     vdW  Elec       q    Type
REMARK                         _______ _______ _______ _____ _____    ______ ____
ROOT
ATOM      1  N   UNL     1       2.536  11.112  17.856  0.00  0.00    +0.000 N 
ATOM      2  C   UNL     1       1.640  10.121  18.209  0.00  0.00    +0.000 C 
ATOM      3  O   UNL     1       0.439  10.326  18.360  0.00  0.00    +0.000 OA
ATOM      4  H   UNL     1       3.512  10.949  17.616  0.00  0.00    +0.000 HD
ENDROOT
BRANCH   2   5
ATOM      5  C   UNL     1       2.209   8.753  18.373  0.00  0.00    +0.000 A 
ATOM      6  C   UNL     1       3.134   8.285  17.428  0.00  0.00    +0.000 A 
ATOM      7  C   UNL     1       3.700   7.015  17.571  0.00  0.00    +0.000 A 
ATOM      8  C   UNL     1       3.313   6.204  18.643  0.00  0.00    +0.000 A 
ATOM      9  C   UNL     1       3.874   4.845  18.815  0.00  0.00    +0.000 A 
ATOM     10  O   UNL     1       4.763   4.427  18.083  0.00  0.00    +0.000 OA
ATOM     11  N   UNL     1       3.312   4.124  19.843  0.00  0.00    +0.000 N 
ATOM     12  C   UNL     1       2.358   4.638  20.686  0.00  0.00    +0.000 A 
ATOM     13  N   UNL     1       1.880   5.832  20.616  0.00  0.00    +0.000 NA
ATOM     14  C   UNL     1       2.354   6.643  19.569  0.00  0.00    +0.000 A 
ATOM     15  C   UNL     1       1.816   7.923  19.431  0.00  0.00    +0.000 A 
ATOM     16  C   UNL     1       1.944   3.610  21.689  0.00  0.00    +0.000 C 
ATOM     17  C   UNL     1       2.779   2.382  21.337  0.00  0.00    +0.000 C 
ATOM     18  C   UNL     1       3.664   2.770  20.163  0.00  0.00    +0.000 C 
ENDBRANCH   2   5
BRANCH   1  21
ATOM     19  O   UNL     1       2.663  12.914  19.859  0.00  0.00    +0.000 OA
ATOM     20  C   UNL     1       2.172  13.265  18.788  0.00  0.00    +0.000 C 
ATOM     21  N   UNL     1       2.075  12.420  17.701  0.00  0.00    +0.000 N 
ATOM     22  H   UNL     1       1.809  12.703  16.760  0.00  0.00    +0.000 HD
BRANCH  20  23
ATOM     23  C   UNL     1       1.667  14.651  18.611  0.00  0.00    +0.000 A 
ATOM     24  C   UNL     1       2.544  15.618  18.097  0.00  0.00    +0.000 A 
ATOM     25  C   UNL     1       2.132  16.945  17.970  0.00  0.00    +0.000 A 
ATOM     26  C   UNL     1       0.849  17.316  18.371  0.00  0.00    +0.000 A 
ATOM     27  C   UNL     1      -0.017  16.354  18.890  0.00  0.00    +0.000 A 
ATOM     28 CL   UNL     1      -1.588  16.824  19.420  0.00  0.00    +0.000 Cl
ATOM     29  C   UNL     1       0.378  15.021  19.009  0.00  0.00    +0.000 A 
ENDBRANCH  20  23
ENDBRANCH   1  21
TORSDOF 3
ENDMDL
