MODEL 1
REMARK VINA RESULT:      -7.0      0.000      0.000
REMARK  Name = 
REMARK  11 active torsions:
REMARK  status: ('A' for Active; 'I' for Inactive)
REMARK    1  A    between atoms: C_1  and  C_2
REMARK    2  A    between atoms: C_2  and  O_3
REMARK    3  A    between atoms: O_3  and  P_4
REMARK    4  A    between atoms: P_4  and  O_6
REMARK    5  A    between atoms: P_4  and  O_9
REMARK    6  A    between atoms: O_6  and  C_7
REMARK    7  A    between atoms: C_7  and  C_8
REMARK    8  A    between atoms: O_9  and  N_10
REMARK    9  A    between atoms: C_11  and  C_12
REMARK   10  A    between atoms: C_11  and  C_13
REMARK   11  A    between atoms: C_17  and  C_18
REMARK                            x       y       z     vdW  Elec       q    Type
REMARK                         _______ _______ _______ _____ _____    ______ ____
ROOT
ATOM      1  N   UNL     1       4.597   6.515  18.485  0.00  0.00    +0.000 NA
ATOM      2  C   UNL     1       3.333   6.194  18.510  0.00  0.00    +0.000 C 
ATOM      3  C   UNL     1       2.358   7.340  18.290  0.00  0.00    +0.000 C 
ENDROOT
BRANCH   2   4
ATOM      4  C   UNL     1       2.730   4.823  18.713  0.00  0.00    +0.000 A 
ATOM      5  C   UNL     1       2.601   3.937  17.633  0.00  0.00    +0.000 A 
ATOM      6  C   UNL     1       2.062   2.659  17.821  0.00  0.00    +0.000 A 
ATOM      7  C   UNL     1       1.668   2.241  19.092  0.00  0.00    +0.000 A 
ATOM      8  C   UNL     1       1.781   3.112  20.184  0.00  0.00    +0.000 A 
ATOM      9  C   UNL     1       1.428   2.669  21.569  0.00  0.00    +0.000 C 
ATOM     10  C   UNL     1       2.279   4.404  19.972  0.00  0.00    +0.000 A 
ENDBRANCH   2   4
BRANCH   1  11
ATOM     11  O   UNL     1       5.413   5.382  18.593  0.00  0.00    +0.000 OA
BRANCH  11  12
ATOM     12  P   UNL     1       6.469   5.049  17.264  0.00  0.00    +0.000 P 
ATOM     13  O   UNL     1       7.487   4.450  18.246  0.00  0.00    +0.000 OA
BRANCH  12  14
ATOM     14  O   UNL     1       7.527   4.716  15.935  0.00  0.00    +0.000 OA
BRANCH  14  16
ATOM     15  C   UNL     1       5.628   4.405  14.398  0.00  0.00    +0.000 C 
ATOM     16  C   UNL     1       7.125   4.570  14.594  0.00  0.00    +0.000 C 
ENDBRANCH  14  16
ENDBRANCH  12  14
BRANCH  12  17
ATOM     17  O   UNL     1       6.836   6.653  17.114  0.00  0.00    +0.000 OA
BRANCH  17  18
ATOM     18  C   UNL     1       7.818   7.223  17.959  0.00  0.00    +0.000 C 
ATOM     19  C   UNL     1       7.947   8.723  17.748  0.00  0.00    +0.000 C 
ENDBRANCH  17  18
ENDBRANCH  12  17
ENDBRANCH  11  12
ENDBRANCH   1  11
TORSDOF 7
ENDMDL
MODEL 2
REMARK VINA RESULT:      -6.8      1.444      1.677
REMARK  Name = 
REMARK  11 active torsions:
REMARK  status: ('A' for Active; 'I' for Inactive)
REMARK    1  A    between atoms: C_1  and  C_2
REMARK    2  A    between atoms: C_2  and  O_3
REMARK    3  A    between atoms: O_3  and  P_4
REMARK    4  A    between atoms: P_4  and  O_6
REMARK    5  A    between atoms: P_4  and  O_9
REMARK    6  A    between atoms: O_6  and  C_7
REMARK    7  A    between atoms: C_7  and  C_8
REMARK    8  A    between atoms: O_9  and  N_10
REMARK    9  A    between atoms: C_11  and  C_12
REMARK   10  A    between atoms: C_11  and  C_13
REMARK   11  A    between atoms: C_17  and  C_18
REMARK                            x       y       z     vdW  Elec       q    Type
REMARK                         _______ _______ _______ _____ _____    ______ ____
ROOT
ATOM      1  N   UNL     1       4.240   6.680  17.515  0.00  0.00    +0.000 NA
ATOM      2  C   UNL     1       3.089   6.569  18.118  0.00  0.00    +0.000 C 
ATOM      3  C   UNL     1       2.326   7.868  18.325  0.00  0.00    +0.000 C 
ENDROOT
BRANCH   2   4
ATOM      4  C   UNL     1       2.422   5.307  18.616  0.00  0.00    +0.000 A 
ATOM      5  C   UNL     1       1.681   4.503  17.739  0.00  0.00    +0.000 A 
ATOM      6  C   UNL     1       1.080   3.322  18.191  0.00  0.00    +0.000 A 
ATOM      7  C   UNL     1       1.231   2.918  19.517  0.00  0.00    +0.000 A 
ATOM      8  C   UNL     1       1.961   3.711  20.413  0.00  0.00    +0.000 A 
ATOM      9  C   UNL     1       2.196   3.271  21.825  0.00  0.00    +0.000 C 
ATOM     10  C   UNL     1       2.518   4.912  19.957  0.00  0.00    +0.000 A 
ENDBRANCH   2   4
BRANCH   1  11
ATOM     11  O   UNL     1       4.816   5.425  17.280  0.00  0.00    +0.000 OA
BRANCH  11  12
ATOM     12  P   UNL     1       5.725   5.242  15.820  0.00  0.00    +0.000 P 
ATOM     13  O   UNL     1       5.496   3.725  15.888  0.00  0.00    +0.000 OA
BRANCH  12  14
ATOM     14  O   UNL     1       6.636   5.058  14.360  0.00  0.00    +0.000 OA
BRANCH  14  16
ATOM     15  C   UNL     1       7.094   4.256  12.077  0.00  0.00    +0.000 C 
ATOM     16  C   UNL     1       6.510   3.989  13.453  0.00  0.00    +0.000 C 
ENDBRANCH  14  16
ENDBRANCH  12  14
BRANCH  12  17
ATOM     17  O   UNL     1       7.136   5.549  16.625  0.00  0.00    +0.000 OA
BRANCH  17  18
ATOM     18  C   UNL     1       7.451   4.800  17.784  0.00  0.00    +0.000 C 
ATOM     19  C   UNL     1       7.745   5.697  18.976  0.00  0.00    +0.000 C 
ENDBRANCH  17  18
ENDBRANCH  12  17
ENDBRANCH  11  12
ENDBRANCH   1  11
TORSDOF 7
ENDMDL
MODEL 3
REMARK VINA RESULT:      -6.8      0.982      1.014
REMARK  Name = 
REMARK  11 active torsions:
REMARK  status: ('A' for Active; 'I' for Inactive)
REMARK    1  A    between atoms: C_1  and  C_2
REMARK    2  A    between atoms: C_2  and  O_3
REMARK    3  A    between atoms: O_3  and  P_4
REMARK    4  A    between atoms: P_4  and  O_6
REMARK    5  A    between atoms: P_4  and  O_9
REMARK    6  A    between atoms: O_6  and  C_7
REMARK    7  A    between atoms: C_7  and  C_8
REMARK    8  A    between atoms: O_9  and  N_10
REMARK    9  A    between atoms: C_11  and  C_12
REMARK   10  A    between atoms: C_11  and  C_13
REMARK   11  A    between atoms: C_17  and  C_18
REMARK                            x       y       z     vdW  Elec       q    Type
REMARK                         _______ _______ _______ _____ _____    ______ ____
ROOT
ATOM      1  N   UNL     1       4.261   6.955  17.831  0.00  0.00    +0.000 NA
ATOM      2  C   UNL     1       3.016   6.734  18.151  0.00  0.00    +0.000 C 
ATOM      3  C   UNL     1       2.081   7.926  18.016  0.00  0.00    +0.000 C 
ENDROOT
BRANCH   2   4
ATOM      4  C   UNL     1       2.396   5.439  18.621  0.00  0.00    +0.000 A 
ATOM      5  C   UNL     1       1.764   4.582  17.708  0.00  0.00    +0.000 A 
ATOM      6  C   UNL     1       1.207   3.371  18.136  0.00  0.00    +0.000 A 
ATOM      7  C   UNL     1       1.295   2.989  19.474  0.00  0.00    +0.000 A 
ATOM      8  C   UNL     1       1.916   3.834  20.405  0.00  0.00    +0.000 A 
ATOM      9  C   UNL     1       2.083   3.422  21.834  0.00  0.00    +0.000 C 
ATOM     10  C   UNL     1       2.427   5.062  19.970  0.00  0.00    +0.000 A 
ENDBRANCH   2   4
BRANCH   1  11
ATOM     11  O   UNL     1       5.018   5.778  17.889  0.00  0.00    +0.000 OA
BRANCH  11  12
ATOM     12  P   UNL     1       5.860   5.317  16.450  0.00  0.00    +0.000 P 
ATOM     13  O   UNL     1       6.715   4.349  17.282  0.00  0.00    +0.000 OA
BRANCH  12  14
ATOM     14  O   UNL     1       6.704   4.856  15.012  0.00  0.00    +0.000 OA
BRANCH  14  16
ATOM     15  C   UNL     1       6.792   4.117  12.664  0.00  0.00    +0.000 C 
ATOM     16  C   UNL     1       6.247   3.917  14.067  0.00  0.00    +0.000 C 
ENDBRANCH  14  16
ENDBRANCH  12  14
BRANCH  12  17
ATOM     17  O   UNL     1       6.664   6.761  16.422  0.00  0.00    +0.000 OA
BRANCH  17  18
ATOM     18  C   UNL     1       7.655   7.023  17.398  0.00  0.00    +0.000 C 
ATOM     19  C   UNL     1       7.812   8.513  17.661  0.00  0.00    +0.000 C 
ENDBRANCH  17  18
ENDBRANCH  12  17
ENDBRANCH  11  12
ENDBRANCH   1  11
TORSDOF 7
ENDMDL
MODEL 4
REMARK VINA RESULT:      -6.6      2.281      6.169
REMARK  Name = 
REMARK  11 active torsions:
REMARK  status: ('A' for Active; 'I' for Inactive)
REMARK    1  A    between atoms: C_1  and  C_2
REMARK    2  A    between atoms: C_2  and  O_3
REMARK    3  A    between atoms: O_3  and  P_4
REMARK    4  A    between atoms: P_4  and  O_6
REMARK    5  A    between atoms: P_4  and  O_9
REMARK    6  A    between atoms: O_6  and  C_7
REMARK    7  A    between atoms: C_7  and  C_8
REMARK    8  A    between atoms: O_9  and  N_10
REMARK    9  A    between atoms: C_11  and  C_12
REMARK   10  A    between atoms: C_11  and  C_13
REMARK   11  A    between atoms: C_17  and  C_18
REMARK                            x       y       z     vdW  Elec       q    Type
REMARK                         _______ _______ _______ _____ _____    ______ ____
ROOT
ATOM      1  N   UNL     1       4.605   4.411  15.908  0.00  0.00    +0.000 NA
ATOM      2  C   UNL     1       5.874   4.712  15.887  0.00  0.00    +0.000 C 
ATOM      3  C   UNL     1       6.627   4.298  14.632  0.00  0.00    +0.000 C 
ENDROOT
BRANCH   2   4
ATOM      4  C   UNL     1       6.673   5.432  16.948  0.00  0.00    +0.000 A 
ATOM      5  C   UNL     1       7.264   4.716  18.000  0.00  0.00    +0.000 A 
ATOM      6  C   UNL     1       8.023   5.377  18.973  0.00  0.00    +0.000 A 
ATOM      7  C   UNL     1       8.221   6.755  18.896  0.00  0.00    +0.000 A 
ATOM      8  C   UNL     1       7.633   7.492  17.858  0.00  0.00    +0.000 A 
ATOM      9  C   UNL     1       7.882   8.960  17.712  0.00  0.00    +0.000 C 
ATOM     10  C   UNL     1       6.839   6.823  16.918  0.00  0.00    +0.000 A 
ENDBRANCH   2   4
BRANCH   1  11
ATOM     11  O   UNL     1       3.979   4.922  17.053  0.00  0.00    +0.000 OA
BRANCH  11  12
ATOM     12  P   UNL     1       3.201   3.781  18.094  0.00  0.00    +0.000 P 
ATOM     13  O   UNL     1       2.403   3.254  16.891  0.00  0.00    +0.000 OA
BRANCH  12  14
ATOM     14  O   UNL     1       2.420   2.639  19.134  0.00  0.00    +0.000 OA
BRANCH  14  16
ATOM     15  C   UNL     1       1.589   2.911  21.436  0.00  0.00    +0.000 C 
ATOM     16  C   UNL     1       1.302   2.911  19.945  0.00  0.00    +0.000 C 
ENDBRANCH  14  16
ENDBRANCH  12  14
BRANCH  12  17
ATOM     17  O   UNL     1       2.294   4.979  18.781  0.00  0.00    +0.000 OA
BRANCH  17  18
ATOM     18  C   UNL     1       2.876   6.250  19.002  0.00  0.00    +0.000 C 
ATOM     19  C   UNL     1       2.103   7.057  20.033  0.00  0.00    +0.000 C 
ENDBRANCH  17  18
ENDBRANCH  12  17
ENDBRANCH  11  12
ENDBRANCH   1  11
TORSDOF 7
ENDMDL
MODEL 5
REMARK VINA RESULT:      -6.5      1.502      3.198
REMARK  Name = 
REMARK  11 active torsions:
REMARK  status: ('A' for Active; 'I' for Inactive)
REMARK    1  A    between atoms: C_1  and  C_2
REMARK    2  A    between atoms: C_2  and  O_3
REMARK    3  A    between atoms: O_3  and  P_4
REMARK    4  A    between atoms: P_4  and  O_6
REMARK    5  A    between atoms: P_4  and  O_9
REMARK    6  A    between atoms: O_6  and  C_7
REMARK    7  A    between atoms: C_7  and  C_8
REMARK    8  A    between atoms: O_9  and  N_10
REMARK    9  A    between atoms: C_11  and  C_12
REMARK   10  A    between atoms: C_11  and  C_13
REMARK   11  A    between atoms: C_17  and  C_18
REMARK                            x       y       z     vdW  Elec       q    Type
REMARK                         _______ _______ _______ _____ _____    ______ ____
ROOT
ATOM      1  N   UNL     1       4.542   3.313  17.234  0.00  0.00    +0.000 NA
ATOM      2  C   UNL     1       3.383   3.542  17.787  0.00  0.00    +0.000 C 
ATOM      3  C   UNL     1       2.384   2.397  17.717  0.00  0.00    +0.000 C 
ENDROOT
BRANCH   2   4
ATOM      4  C   UNL     1       2.926   4.795  18.497  0.00  0.00    +0.000 A 
ATOM      5  C   UNL     1       2.562   4.750  19.851  0.00  0.00    +0.000 A 
ATOM      6  C   UNL     1       2.159   5.913  20.519  0.00  0.00    +0.000 A 
ATOM      7  C   UNL     1       2.136   7.137  19.850  0.00  0.00    +0.000 A 
ATOM      8  C   UNL     1       2.488   7.203  18.495  0.00  0.00    +0.000 A 
ATOM      9  C   UNL     1       2.536   8.511  17.769  0.00  0.00    +0.000 C 
ATOM     10  C   UNL     1       2.846   6.024  17.829  0.00  0.00    +0.000 A 
ENDBRANCH   2   4
BRANCH   1  11
ATOM     11  O   UNL     1       5.424   4.382  17.440  0.00  0.00    +0.000 OA
BRANCH  11  12
ATOM     12  P   UNL     1       6.523   4.748  16.156  0.00  0.00    +0.000 P 
ATOM     13  O   UNL     1       7.698   4.484  17.110  0.00  0.00    +0.000 OA
BRANCH  12  14
ATOM     14  O   UNL     1       7.624   5.115  14.871  0.00  0.00    +0.000 OA
BRANCH  14  16
ATOM     15  C   UNL     1       8.293   5.748  12.588  0.00  0.00    +0.000 C 
ATOM     16  C   UNL     1       7.338   4.997  13.498  0.00  0.00    +0.000 C 
ENDBRANCH  14  16
ENDBRANCH  12  14
BRANCH  12  17
ATOM     17  O   UNL     1       6.168   6.358  16.269  0.00  0.00    +0.000 OA
BRANCH  17  18
ATOM     18  C   UNL     1       6.347   7.023  17.505  0.00  0.00    +0.000 C 
ATOM     19  C   UNL     1       7.637   7.827  17.536  0.00  0.00    +0.000 C 
ENDBRANCH  17  18
ENDBRANCH  12  17
ENDBRANCH  11  12
ENDBRANCH   1  11
TORSDOF 7
ENDMDL
MODEL 6
REMARK VINA RESULT:      -6.5      2.546      6.290
REMARK  Name = 
REMARK  11 active torsions:
REMARK  status: ('A' for Active; 'I' for Inactive)
REMARK    1  A    between atoms: C_1  and  C_2
REMARK    2  A    between atoms: C_2  and  O_3
REMARK    3  A    between atoms: O_3  and  P_4
REMARK    4  A    between atoms: P_4  and  O_6
REMARK    5  A    between atoms: P_4  and  O_9
REMARK    6  A    between atoms: O_6  and  C_7
REMARK    7  A    between atoms: C_7  and  C_8
REMARK    8  A    between atoms: O_9  and  N_10
REMARK    9  A    between atoms: C_11  and  C_12
REMARK   10  A    between atoms: C_11  and  C_13
REMARK   11  A    between atoms: C_17  and  C_18
REMARK                            x       y       z     vdW  Elec       q    Type
REMARK                         _______ _______ _______ _____ _____    ______ ____
ROOT
ATOM      1  N   UNL     1       4.764   4.469  15.867  0.00  0.00    +0.000 NA
ATOM      2  C   UNL     1       6.019   4.822  15.860  0.00  0.00    +0.000 C 
ATOM      3  C   UNL     1       6.792   4.480  14.595  0.00  0.00    +0.000 C 
ENDROOT
BRANCH   2   4
ATOM      4  C   UNL     1       6.786   5.542  16.946  0.00  0.00    +0.000 A 
ATOM      5  C   UNL     1       7.327   4.827  18.024  0.00  0.00    +0.000 A 
ATOM      6  C   UNL     1       8.057   5.487  19.021  0.00  0.00    +0.000 A 
ATOM      7  C   UNL     1       8.274   6.862  18.941  0.00  0.00    +0.000 A 
ATOM      8  C   UNL     1       7.736   7.597  17.875  0.00  0.00    +0.000 A 
ATOM      9  C   UNL     1       8.008   9.061  17.728  0.00  0.00    +0.000 C 
ATOM     10  C   UNL     1       6.970   6.930  16.911  0.00  0.00    +0.000 A 
ENDBRANCH   2   4
BRANCH   1  11
ATOM     11  O   UNL     1       4.116   4.917  17.026  0.00  0.00    +0.000 OA
BRANCH  11  12
ATOM     12  P   UNL     1       2.636   4.127  17.449  0.00  0.00    +0.000 P 
ATOM     13  O   UNL     1       2.367   5.227  18.487  0.00  0.00    +0.000 OA
BRANCH  12  14
ATOM     14  O   UNL     1       1.156   3.337  17.874  0.00  0.00    +0.000 OA
BRANCH  14  16
ATOM     15  C   UNL     1       0.758   3.010  20.283  0.00  0.00    +0.000 C 
ATOM     16  C   UNL     1       1.005   2.400  18.915  0.00  0.00    +0.000 C 
ENDBRANCH  14  16
ENDBRANCH  12  14
BRANCH  12  17
ATOM     17  O   UNL     1       3.464   2.927  18.228  0.00  0.00    +0.000 OA
BRANCH  17  18
ATOM     18  C   UNL     1       4.366   3.265  19.264  0.00  0.00    +0.000 C 
ATOM     19  C   UNL     1       4.483   2.158  20.300  0.00  0.00    +0.000 C 
ENDBRANCH  17  18
ENDBRANCH  12  17
ENDBRANCH  11  12
ENDBRANCH   1  11
TORSDOF 7
ENDMDL
MODEL 7
REMARK VINA RESULT:      -6.5      1.156      1.861
REMARK  Name = 
REMARK  11 active torsions:
REMARK  status: ('A' for Active; 'I' for Inactive)
REMARK    1  A    between atoms: C_1  and  C_2
REMARK    2  A    between atoms: C_2  and  O_3
REMARK    3  A    between atoms: O_3  and  P_4
REMARK    4  A    between atoms: P_4  and  O_6
REMARK    5  A    between atoms: P_4  and  O_9
REMARK    6  A    between atoms: O_6  and  C_7
REMARK    7  A    between atoms: C_7  and  C_8
REMARK    8  A    between atoms: O_9  and  N_10
REMARK    9  A    between atoms: C_11  and  C_12
REMARK   10  A    between atoms: C_11  and  C_13
REMARK   11  A    between atoms: C_17  and  C_18
REMARK                            x       y       z     vdW  Elec       q    Type
REMARK                         _______ _______ _______ _____ _____    ______ ____
ROOT
ATOM      1  N   UNL     1       4.176   7.238  17.555  0.00  0.00    +0.000 NA
ATOM      2  C   UNL     1       2.954   7.079  17.981  0.00  0.00    +0.000 C 
ATOM      3  C   UNL     1       1.951   8.120  17.507  0.00  0.00    +0.000 C 
ENDROOT
BRANCH   2   4
ATOM      4  C   UNL     1       2.419   5.981  18.870  0.00  0.00    +0.000 A 
ATOM      5  C   UNL     1       2.320   6.174  20.255  0.00  0.00    +0.000 A 
ATOM      6  C   UNL     1       1.804   5.167  21.080  0.00  0.00    +0.000 A 
ATOM      7  C   UNL     1       1.359   3.965  20.530  0.00  0.00    +0.000 A 
ATOM      8  C   UNL     1       1.455   3.748  19.148  0.00  0.00    +0.000 A 
ATOM      9  C   UNL     1       0.926   2.496  18.521  0.00  0.00    +0.000 C 
ATOM     10  C   UNL     1       2.015   4.747  18.342  0.00  0.00    +0.000 A 
ENDBRANCH   2   4
BRANCH   1  11
ATOM     11  O   UNL     1       4.999   6.178  17.958  0.00  0.00    +0.000 OA
BRANCH  11  12
ATOM     12  P   UNL     1       5.645   5.170  16.711  0.00  0.00    +0.000 P 
ATOM     13  O   UNL     1       5.778   4.027  17.728  0.00  0.00    +0.000 OA
BRANCH  12  14
ATOM     14  O   UNL     1       6.291   4.160  15.463  0.00  0.00    +0.000 OA
BRANCH  14  16
ATOM     15  C   UNL     1       6.109   3.683  13.054  0.00  0.00    +0.000 C 
ATOM     16  C   UNL     1       6.621   4.586  14.162  0.00  0.00    +0.000 C 
ENDBRANCH  14  16
ENDBRANCH  12  14
BRANCH  12  17
ATOM     17  O   UNL     1       7.073   6.001  16.735  0.00  0.00    +0.000 OA
BRANCH  17  18
ATOM     18  C   UNL     1       7.474   6.658  17.922  0.00  0.00    +0.000 C 
ATOM     19  C   UNL     1       7.868   8.104  17.666  0.00  0.00    +0.000 C 
ENDBRANCH  17  18
ENDBRANCH  12  17
ENDBRANCH  11  12
ENDBRANCH   1  11
TORSDOF 7
ENDMDL
MODEL 8
REMARK VINA RESULT:      -6.4      2.574      6.015
REMARK  Name = 
REMARK  11 active torsions:
REMARK  status: ('A' for Active; 'I' for Inactive)
REMARK    1  A    between atoms: C_1  and  C_2
REMARK    2  A    between atoms: C_2  and  O_3
REMARK    3  A    between atoms: O_3  and  P_4
REMARK    4  A    between atoms: P_4  and  O_6
REMARK    5  A    between atoms: P_4  and  O_9
REMARK    6  A    between atoms: O_6  and  C_7
REMARK    7  A    between atoms: C_7  and  C_8
REMARK    8  A    between atoms: O_9  and  N_10
REMARK    9  A    between atoms: C_11  and  C_12
REMARK   10  A    between atoms: C_11  and  C_13
REMARK   11  A    between atoms: C_17  and  C_18
REMARK                            x       y       z     vdW  Elec       q    Type
REMARK                         _______ _______ _______ _____ _____    ______ ____
ROOT
ATOM      1  N   UNL     1       6.318   4.325  19.594  0.00  0.00    +0.000 NA
ATOM      2  C   UNL     1       6.705   5.215  18.722  0.00  0.00    +0.000 C 
ATOM      3  C   UNL     1       7.833   6.130  19.173  0.00  0.00    +0.000 C 
ENDROOT
BRANCH   2   4
ATOM      4  C   UNL     1       6.179   5.430  17.322  0.00  0.00    +0.000 A 
ATOM      5  C   UNL     1       5.346   6.521  17.037  0.00  0.00    +0.000 A 
ATOM      6  C   UNL     1       4.875   6.736  15.736  0.00  0.00    +0.000 A 
ATOM      7  C   UNL     1       5.247   5.879  14.701  0.00  0.00    +0.000 A 
ATOM      8  C   UNL     1       6.073   4.778  14.965  0.00  0.00    +0.000 A 
ATOM      9  C   UNL     1       6.543   3.879  13.864  0.00  0.00    +0.000 C 
ATOM     10  C   UNL     1       6.500   4.550  16.279  0.00  0.00    +0.000 A 
ENDBRANCH   2   4
BRANCH   1  11
ATOM     11  O   UNL     1       5.352   3.468  19.052  0.00  0.00    +0.000 OA
BRANCH  11  12
ATOM     12  P   UNL     1       4.091   2.940  20.112  0.00  0.00    +0.000 P 
ATOM     13  O   UNL     1       5.020   1.834  20.637  0.00  0.00    +0.000 OA
BRANCH  12  14
ATOM     14  O   UNL     1       2.830   2.410  21.172  0.00  0.00    +0.000 OA
BRANCH  14  16
ATOM     15  C   UNL     1       1.183   4.172  20.678  0.00  0.00    +0.000 C 
ATOM     16  C   UNL     1       1.807   3.227  21.689  0.00  0.00    +0.000 C 
ENDBRANCH  14  16
ENDBRANCH  12  14
BRANCH  12  17
ATOM     17  O   UNL     1       3.251   2.296  18.843  0.00  0.00    +0.000 OA
BRANCH  17  18
ATOM     18  C   UNL     1       3.531   2.740  17.528  0.00  0.00    +0.000 C 
ATOM     19  C   UNL     1       2.494   3.737  17.034  0.00  0.00    +0.000 C 
ENDBRANCH  17  18
ENDBRANCH  12  17
ENDBRANCH  11  12
ENDBRANCH   1  11
TORSDOF 7
ENDMDL
MODEL 9
REMARK VINA RESULT:      -6.4      0.967      1.758
REMARK  Name = 
REMARK  11 active torsions:
REMARK  status: ('A' for Active; 'I' for Inactive)
REMARK    1  A    between atoms: C_1  and  C_2
REMARK    2  A    between atoms: C_2  and  O_3
REMARK    3  A    between atoms: O_3  and  P_4
REMARK    4  A    between atoms: P_4  and  O_6
REMARK    5  A    between atoms: P_4  and  O_9
REMARK    6  A    between atoms: O_6  and  C_7
REMARK    7  A    between atoms: C_7  and  C_8
REMARK    8  A    between atoms: O_9  and  N_10
REMARK    9  A    between atoms: C_11  and  C_12
REMARK   10  A    between atoms: C_11  and  C_13
REMARK   11  A    between atoms: C_17  and  C_18
REMARK                            x       y       z     vdW  Elec       q    Type
REMARK                         _______ _______ _______ _____ _____    ______ ____
ROOT
ATOM      1  N   UNL     1       4.266   7.055  17.684  0.00  0.00    +0.000 NA
ATOM      2  C   UNL     1       3.090   6.850  18.208  0.00  0.00    +0.000 C 
ATOM      3  C   UNL     1       2.094   7.990  18.054  0.00  0.00    +0.000 C 
ENDROOT
BRANCH   2   4
ATOM      4  C   UNL     1       2.598   5.616  18.929  0.00  0.00    +0.000 A 
ATOM      5  C   UNL     1       2.011   5.723  20.198  0.00  0.00    +0.000 A 
ATOM      6  C   UNL     1       1.535   4.585  20.860  0.00  0.00    +0.000 A 
ATOM      7  C   UNL     1       1.618   3.332  20.255  0.00  0.00    +0.000 A 
ATOM      8  C   UNL     1       2.208   3.201  18.990  0.00  0.00    +0.000 A 
ATOM      9  C   UNL     1       2.252   1.880  18.288  0.00  0.00    +0.000 C 
ATOM     10  C   UNL     1       2.721   4.342  18.360  0.00  0.00    +0.000 A 
ENDBRANCH   2   4
BRANCH   1  11
ATOM     11  O   UNL     1       5.075   5.915  17.786  0.00  0.00    +0.000 OA
BRANCH  11  12
ATOM     12  P   UNL     1       6.239   5.667  16.531  0.00  0.00    +0.000 P 
ATOM     13  O   UNL     1       7.045   4.768  17.481  0.00  0.00    +0.000 OA
BRANCH  12  14
ATOM     14  O   UNL     1       7.404   5.418  15.276  0.00  0.00    +0.000 OA
BRANCH  14  16
ATOM     15  C   UNL     1       7.936   5.373  12.872  0.00  0.00    +0.000 C 
ATOM     16  C   UNL     1       7.145   4.803  14.036  0.00  0.00    +0.000 C 
ENDBRANCH  14  16
ENDBRANCH  12  14
BRANCH  12  17
ATOM     17  O   UNL     1       6.817   7.203  16.721  0.00  0.00    +0.000 OA
BRANCH  17  18
ATOM     18  C   UNL     1       7.643   7.502  17.831  0.00  0.00    +0.000 C 
ATOM     19  C   UNL     1       8.100   8.952  17.825  0.00  0.00    +0.000 C 
ENDBRANCH  17  18
ENDBRANCH  12  17
ENDBRANCH  11  12
ENDBRANCH   1  11
TORSDOF 7
ENDMDL
