MODEL 1
REMARK VINA RESULT:      -7.0      0.000      0.000
REMARK  Name = 
REMARK  5 active torsions:
REMARK  status: ('A' for Active; 'I' for Inactive)
REMARK    1  A    between atoms: C_2  and  C_3
REMARK    2  A    between atoms: C_2  and  C_4
REMARK    3  A    between atoms: C_4  and  N_5
REMARK    4  A    between atoms: C_10  and  O_11
REMARK    5  A    between atoms: O_11  and  C_12
REMARK                            x       y       z     vdW  Elec       q    Type
REMARK                         _______ _______ _______ _____ _____    ______ ____
ROOT
ATOM      1  N   UNL     1       3.748   3.212  18.438  0.00  0.00    +0.000 N 
ATOM      2  C   UNL     1       3.282   3.913  17.338  0.00  0.00    +0.000 A 
ATOM      3  C   UNL     1       3.875   5.031  16.893  0.00  0.00    +0.000 A 
ATOM      4  C   UNL     1       5.109   5.493  17.528  0.00  0.00    +0.000 A 
ATOM      5  C   UNL     1       5.829   6.586  17.027  0.00  0.00    +0.000 A 
ATOM      6  C   UNL     1       7.067   6.944  17.585  0.00  0.00    +0.000 A 
ATOM      7  C   UNL     1       7.561   6.204  18.663  0.00  0.00    +0.000 A 
ATOM      8  F   UNL     1       8.757   6.468  19.209  0.00  0.00    +0.000 F 
ATOM      9  C   UNL     1       6.835   5.149  19.201  0.00  0.00    +0.000 A 
ATOM     10  C   UNL     1       5.610   4.797  18.634  0.00  0.00    +0.000 A 
ATOM     11  C   UNL     1       4.855   3.642  19.176  0.00  0.00    +0.000 A 
ATOM     12  O   UNL     1       5.241   3.110  20.216  0.00  0.00    +0.000 OA
ENDROOT
BRANCH   6  13
ATOM     13  O   UNL     1       7.672   8.010  16.975  0.00  0.00    +0.000 OA
ATOM     14  C   UNL     1       8.026   9.112  17.804  0.00  0.00    +0.000 C 
ENDBRANCH   6  13
BRANCH   1  15
ATOM     15  C   UNL     1       3.041   2.012  18.887  0.00  0.00    +0.000 C 
BRANCH  15  17
ATOM     16  C   UNL     1       1.713   2.606  20.923  0.00  0.00    +0.000 C 
ATOM     17  C   UNL     1       1.751   2.367  19.601  0.00  0.00    +0.000 C 
ATOM     18  C   UNL     1       0.484   2.355  18.786  0.00  0.00    +0.000 C 
ENDBRANCH  15  17
ENDBRANCH   1  15
TORSDOF 3
ENDMDL
MODEL 2
REMARK VINA RESULT:      -6.8      2.753      6.174
REMARK  Name = 
REMARK  5 active torsions:
REMARK  status: ('A' for Active; 'I' for Inactive)
REMARK    1  A    between atoms: C_2  and  C_3
REMARK    2  A    between atoms: C_2  and  C_4
REMARK    3  A    between atoms: C_4  and  N_5
REMARK    4  A    between atoms: C_10  and  O_11
REMARK    5  A    between atoms: O_11  and  C_12
REMARK                            x       y       z     vdW  Elec       q    Type
REMARK                         _______ _______ _______ _____ _____    ______ ____
ROOT
ATOM      1  N   UNL     1       5.726   6.332  16.963  0.00  0.00    +0.000 N 
ATOM      2  C   UNL     1       4.657   7.133  17.328  0.00  0.00    +0.000 A 
ATOM      3  C   UNL     1       3.461   6.628  17.666  0.00  0.00    +0.000 A 
ATOM      4  C   UNL     1       3.287   5.178  17.738  0.00  0.00    +0.000 A 
ATOM      5  C   UNL     1       2.094   4.604  18.197  0.00  0.00    +0.000 A 
ATOM      6  C   UNL     1       1.986   3.213  18.362  0.00  0.00    +0.000 A 
ATOM      7  C   UNL     1       3.083   2.408  18.040  0.00  0.00    +0.000 A 
ATOM      8  F   UNL     1       3.058   1.080  18.219  0.00  0.00    +0.000 F 
ATOM      9  C   UNL     1       4.255   2.961  17.537  0.00  0.00    +0.000 A 
ATOM     10  C   UNL     1       4.353   4.344  17.385  0.00  0.00    +0.000 A 
ATOM     11  C   UNL     1       5.618   4.940  16.893  0.00  0.00    +0.000 A 
ATOM     12  O   UNL     1       6.506   4.198  16.476  0.00  0.00    +0.000 OA
ENDROOT
BRANCH   6  13
ATOM     13  O   UNL     1       0.776   2.796  18.849  0.00  0.00    +0.000 OA
ATOM     14  C   UNL     1       0.548   2.968  20.244  0.00  0.00    +0.000 C 
ENDBRANCH   6  13
BRANCH   1  15
ATOM     15  C   UNL     1       6.998   6.947  16.582  0.00  0.00    +0.000 C 
BRANCH  15  17
ATOM     16  C   UNL     1       8.097   8.802  17.852  0.00  0.00    +0.000 C 
ATOM     17  C   UNL     1       7.721   7.513  17.790  0.00  0.00    +0.000 C 
ATOM     18  C   UNL     1       8.086   6.551  18.890  0.00  0.00    +0.000 C 
ENDBRANCH  15  17
ENDBRANCH   1  15
TORSDOF 3
ENDMDL
MODEL 3
REMARK VINA RESULT:      -6.7      2.003      2.380
REMARK  Name = 
REMARK  5 active torsions:
REMARK  status: ('A' for Active; 'I' for Inactive)
REMARK    1  A    between atoms: C_2  and  C_3
REMARK    2  A    between atoms: C_2  and  C_4
REMARK    3  A    between atoms: C_4  and  N_5
REMARK    4  A    between atoms: C_10  and  O_11
REMARK    5  A    between atoms: O_11  and  C_12
REMARK                            x       y       z     vdW  Elec       q    Type
REMARK                         _______ _______ _______ _____ _____    ______ ____
ROOT
ATOM      1  N   UNL     1       3.663   3.343  18.935  0.00  0.00    +0.000 N 
ATOM      2  C   UNL     1       3.669   2.535  17.811  0.00  0.00    +0.000 A 
ATOM      3  C   UNL     1       4.371   2.839  16.709  0.00  0.00    +0.000 A 
ATOM      4  C   UNL     1       5.236   4.018  16.710  0.00  0.00    +0.000 A 
ATOM      5  C   UNL     1       6.077   4.313  15.628  0.00  0.00    +0.000 A 
ATOM      6  C   UNL     1       6.978   5.388  15.695  0.00  0.00    +0.000 A 
ATOM      7  C   UNL     1       7.008   6.174  16.851  0.00  0.00    +0.000 A 
ATOM      8  F   UNL     1       7.877   7.184  16.994  0.00  0.00    +0.000 F 
ATOM      9  C   UNL     1       6.145   5.923  17.911  0.00  0.00    +0.000 A 
ATOM     10  C   UNL     1       5.260   4.846  17.837  0.00  0.00    +0.000 A 
ATOM     11  C   UNL     1       4.371   4.548  18.985  0.00  0.00    +0.000 A 
ATOM     12  O   UNL     1       4.313   5.345  19.920  0.00  0.00    +0.000 OA
ENDROOT
BRANCH   6  13
ATOM     13  O   UNL     1       7.759   5.537  14.581  0.00  0.00    +0.000 OA
ATOM     14  C   UNL     1       7.344   4.849  13.405  0.00  0.00    +0.000 C 
ENDBRANCH   6  13
BRANCH   1  15
ATOM     15  C   UNL     1       2.856   2.967  20.097  0.00  0.00    +0.000 C 
BRANCH  15  17
ATOM     16  C   UNL     1       0.902   4.475  20.505  0.00  0.00    +0.000 C 
ATOM     17  C   UNL     1       1.407   3.376  19.918  0.00  0.00    +0.000 C 
ATOM     18  C   UNL     1       0.520   2.453  19.124  0.00  0.00    +0.000 C 
ENDBRANCH  15  17
ENDBRANCH   1  15
TORSDOF 3
ENDMDL
MODEL 4
REMARK VINA RESULT:      -6.6      2.014      2.625
REMARK  Name = 
REMARK  5 active torsions:
REMARK  status: ('A' for Active; 'I' for Inactive)
REMARK    1  A    between atoms: C_2  and  C_3
REMARK    2  A    between atoms: C_2  and  C_4
REMARK    3  A    between atoms: C_4  and  N_5
REMARK    4  A    between atoms: C_10  and  O_11
REMARK    5  A    between atoms: O_11  and  C_12
REMARK                            x       y       z     vdW  Elec       q    Type
REMARK                         _______ _______ _______ _____ _____    ______ ____
ROOT
ATOM      1  N   UNL     1       2.652   4.165  18.688  0.00  0.00    +0.000 N 
ATOM      2  C   UNL     1       2.662   3.281  17.622  0.00  0.00    +0.000 A 
ATOM      3  C   UNL     1       3.547   3.373  16.618  0.00  0.00    +0.000 A 
ATOM      4  C   UNL     1       4.600   4.386  16.678  0.00  0.00    +0.000 A 
ATOM      5  C   UNL     1       5.616   4.447  15.715  0.00  0.00    +0.000 A 
ATOM      6  C   UNL     1       6.678   5.356  15.852  0.00  0.00    +0.000 A 
ATOM      7  C   UNL     1       6.695   6.214  16.955  0.00  0.00    +0.000 A 
ATOM      8  F   UNL     1       7.704   7.072  17.165  0.00  0.00    +0.000 F 
ATOM      9  C   UNL     1       5.668   6.198  17.891  0.00  0.00    +0.000 A 
ATOM     10  C   UNL     1       4.622   5.285  17.750  0.00  0.00    +0.000 A 
ATOM     11  C   UNL     1       3.551   5.233  18.773  0.00  0.00    +0.000 A 
ATOM     12  O   UNL     1       3.513   6.100  19.645  0.00  0.00    +0.000 OA
ENDROOT
BRANCH   6  13
ATOM     13  O   UNL     1       7.613   5.282  14.855  0.00  0.00    +0.000 OA
ATOM     14  C   UNL     1       7.174   4.791  13.592  0.00  0.00    +0.000 C 
ENDBRANCH   6  13
BRANCH   1  15
ATOM     15  C   UNL     1       1.644   4.024  19.740  0.00  0.00    +0.000 C 
BRANCH  15  17
ATOM     16  C   UNL     1       1.299   2.704  21.836  0.00  0.00    +0.000 C 
ATOM     17  C   UNL     1       2.092   3.042  20.805  0.00  0.00    +0.000 C 
ATOM     18  C   UNL     1       3.502   2.520  20.716  0.00  0.00    +0.000 C 
ENDBRANCH  15  17
ENDBRANCH   1  15
TORSDOF 3
ENDMDL
MODEL 5
REMARK VINA RESULT:      -6.6      2.009      2.354
REMARK  Name = 
REMARK  5 active torsions:
REMARK  status: ('A' for Active; 'I' for Inactive)
REMARK    1  A    between atoms: C_2  and  C_3
REMARK    2  A    between atoms: C_2  and  C_4
REMARK    3  A    between atoms: C_4  and  N_5
REMARK    4  A    between atoms: C_10  and  O_11
REMARK    5  A    between atoms: O_11  and  C_12
REMARK                            x       y       z     vdW  Elec       q    Type
REMARK                         _______ _______ _______ _____ _____    ______ ____
ROOT
ATOM      1  N   UNL     1       2.674   5.447  19.514  0.00  0.00    +0.000 N 
ATOM      2  C   UNL     1       2.315   6.267  18.458  0.00  0.00    +0.000 A 
ATOM      3  C   UNL     1       3.175   6.607  17.486  0.00  0.00    +0.000 A 
ATOM      4  C   UNL     1       4.518   6.031  17.480  0.00  0.00    +0.000 A 
ATOM      5  C   UNL     1       5.413   6.262  16.425  0.00  0.00    +0.000 A 
ATOM      6  C   UNL     1       6.656   5.611  16.386  0.00  0.00    +0.000 A 
ATOM      7  C   UNL     1       6.998   4.744  17.427  0.00  0.00    +0.000 A 
ATOM      8  F   UNL     1       8.150   4.058  17.424  0.00  0.00    +0.000 F 
ATOM      9  C   UNL     1       6.142   4.544  18.504  0.00  0.00    +0.000 A 
ATOM     10  C   UNL     1       4.905   5.189  18.528  0.00  0.00    +0.000 A 
ATOM     11  C   UNL     1       3.970   4.940  19.651  0.00  0.00    +0.000 A 
ATOM     12  O   UNL     1       4.360   4.295  20.623  0.00  0.00    +0.000 OA
ENDROOT
BRANCH   6  13
ATOM     13  O   UNL     1       7.411   5.907  15.283  0.00  0.00    +0.000 OA
ATOM     14  C   UNL     1       7.285   5.037  14.162  0.00  0.00    +0.000 C 
ENDBRANCH   6  13
BRANCH   1  15
ATOM     15  C   UNL     1       1.695   5.133  20.555  0.00  0.00    +0.000 C 
BRANCH  15  17
ATOM     16  C   UNL     1       1.358   2.858  21.541  0.00  0.00    +0.000 C 
ATOM     17  C   UNL     1       1.259   3.682  20.484  0.00  0.00    +0.000 C 
ATOM     18  C   UNL     1       0.788   3.167  19.148  0.00  0.00    +0.000 C 
ENDBRANCH  15  17
ENDBRANCH   1  15
TORSDOF 3
ENDMDL
MODEL 6
REMARK VINA RESULT:      -6.6      1.926      2.600
REMARK  Name = 
REMARK  5 active torsions:
REMARK  status: ('A' for Active; 'I' for Inactive)
REMARK    1  A    between atoms: C_2  and  C_3
REMARK    2  A    between atoms: C_2  and  C_4
REMARK    3  A    between atoms: C_4  and  N_5
REMARK    4  A    between atoms: C_10  and  O_11
REMARK    5  A    between atoms: O_11  and  C_12
REMARK                            x       y       z     vdW  Elec       q    Type
REMARK                         _______ _______ _______ _____ _____    ______ ____
ROOT
ATOM      1  N   UNL     1       3.311   3.012  19.057  0.00  0.00    +0.000 N 
ATOM      2  C   UNL     1       4.444   3.061  19.852  0.00  0.00    +0.000 A 
ATOM      3  C   UNL     1       5.540   3.749  19.500  0.00  0.00    +0.000 A 
ATOM      4  C   UNL     1       5.525   4.551  18.277  0.00  0.00    +0.000 A 
ATOM      5  C   UNL     1       6.602   5.378  17.928  0.00  0.00    +0.000 A 
ATOM      6  C   UNL     1       6.521   6.222  16.808  0.00  0.00    +0.000 A 
ATOM      7  C   UNL     1       5.357   6.209  16.035  0.00  0.00    +0.000 A 
ATOM      8  F   UNL     1       5.201   7.024  14.982  0.00  0.00    +0.000 F 
ATOM      9  C   UNL     1       4.302   5.358  16.341  0.00  0.00    +0.000 A 
ATOM     10  C   UNL     1       4.389   4.530  17.461  0.00  0.00    +0.000 A 
ATOM     11  C   UNL     1       3.246   3.656  17.818  0.00  0.00    +0.000 A 
ATOM     12  O   UNL     1       2.303   3.555  17.035  0.00  0.00    +0.000 OA
ENDROOT
BRANCH   6  13
ATOM     13  O   UNL     1       7.632   6.996  16.607  0.00  0.00    +0.000 OA
ATOM     14  C   UNL     1       7.852   8.061  17.526  0.00  0.00    +0.000 C 
ENDBRANCH   6  13
BRANCH   1  15
ATOM     15  C   UNL     1       2.155   2.223  19.487  0.00  0.00    +0.000 C 
BRANCH  15  17
ATOM     16  C   UNL     1       1.348   2.321  21.853  0.00  0.00    +0.000 C 
ATOM     17  C   UNL     1       1.428   2.891  20.638  0.00  0.00    +0.000 C 
ATOM     18  C   UNL     1       0.716   4.186  20.348  0.00  0.00    +0.000 C 
ENDBRANCH  15  17
ENDBRANCH   1  15
TORSDOF 3
ENDMDL
MODEL 7
REMARK VINA RESULT:      -6.5      3.704      5.351
REMARK  Name = 
REMARK  5 active torsions:
REMARK  status: ('A' for Active; 'I' for Inactive)
REMARK    1  A    between atoms: C_2  and  C_3
REMARK    2  A    between atoms: C_2  and  C_4
REMARK    3  A    between atoms: C_4  and  N_5
REMARK    4  A    between atoms: C_10  and  O_11
REMARK    5  A    between atoms: O_11  and  C_12
REMARK                            x       y       z     vdW  Elec       q    Type
REMARK                         _______ _______ _______ _____ _____    ______ ____
ROOT
ATOM      1  N   UNL     1       5.273   4.675  16.233  0.00  0.00    +0.000 N 
ATOM      2  C   UNL     1       5.367   6.032  15.974  0.00  0.00    +0.000 A 
ATOM      3  C   UNL     1       4.617   6.941  16.617  0.00  0.00    +0.000 A 
ATOM      4  C   UNL     1       3.726   6.507  17.692  0.00  0.00    +0.000 A 
ATOM      5  C   UNL     1       3.011   7.428  18.470  0.00  0.00    +0.000 A 
ATOM      6  C   UNL     1       2.247   6.998  19.567  0.00  0.00    +0.000 A 
ATOM      7  C   UNL     1       2.193   5.631  19.858  0.00  0.00    +0.000 A 
ATOM      8  F   UNL     1       1.519   5.162  20.918  0.00  0.00    +0.000 F 
ATOM      9  C   UNL     1       2.857   4.703  19.065  0.00  0.00    +0.000 A 
ATOM     10  C   UNL     1       3.620   5.143  17.983  0.00  0.00    +0.000 A 
ATOM     11  C   UNL     1       4.367   4.159  17.164  0.00  0.00    +0.000 A 
ATOM     12  O   UNL     1       4.177   2.958  17.350  0.00  0.00    +0.000 OA
ENDROOT
BRANCH   6  13
ATOM     13  O   UNL     1       1.631   8.008  20.255  0.00  0.00    +0.000 OA
ATOM     14  C   UNL     1       1.240   9.154  19.505  0.00  0.00    +0.000 C 
ENDBRANCH   6  13
BRANCH   1  15
ATOM     15  C   UNL     1       6.102   3.733  15.479  0.00  0.00    +0.000 C 
BRANCH  15  17
ATOM     16  C   UNL     1       5.164   3.699  13.159  0.00  0.00    +0.000 C 
ATOM     17  C   UNL     1       6.136   4.086  14.004  0.00  0.00    +0.000 C 
ATOM     18  C   UNL     1       7.352   4.814  13.495  0.00  0.00    +0.000 C 
ENDBRANCH  15  17
ENDBRANCH   1  15
TORSDOF 3
ENDMDL
MODEL 8
REMARK VINA RESULT:      -6.4      3.038      3.656
REMARK  Name = 
REMARK  5 active torsions:
REMARK  status: ('A' for Active; 'I' for Inactive)
REMARK    1  A    between atoms: C_2  and  C_3
REMARK    2  A    between atoms: C_2  and  C_4
REMARK    3  A    between atoms: C_4  and  N_5
REMARK    4  A    between atoms: C_10  and  O_11
REMARK    5  A    between atoms: O_11  and  C_12
REMARK                            x       y       z     vdW  Elec       q    Type
REMARK                         _______ _______ _______ _____ _____    ______ ____
ROOT
ATOM      1  N   UNL     1       4.442   4.195  19.077  0.00  0.00    +0.000 N 
ATOM      2  C   UNL     1       5.469   5.070  19.389  0.00  0.00    +0.000 A 
ATOM      3  C   UNL     1       6.409   5.424  18.499  0.00  0.00    +0.000 A 
ATOM      4  C   UNL     1       6.312   4.943  17.122  0.00  0.00    +0.000 A 
ATOM      5  C   UNL     1       7.201   5.377  16.128  0.00  0.00    +0.000 A 
ATOM      6  C   UNL     1       7.024   4.989  14.790  0.00  0.00    +0.000 A 
ATOM      7  C   UNL     1       5.957   4.146  14.467  0.00  0.00    +0.000 A 
ATOM      8  F   UNL     1       5.707   3.778  13.202  0.00  0.00    +0.000 F 
ATOM      9  C   UNL     1       5.097   3.669  15.450  0.00  0.00    +0.000 A 
ATOM     10  C   UNL     1       5.278   4.068  16.775  0.00  0.00    +0.000 A 
ATOM     11  C   UNL     1       4.334   3.598  17.817  0.00  0.00    +0.000 A 
ATOM     12  O   UNL     1       3.502   2.740  17.528  0.00  0.00    +0.000 OA
ENDROOT
BRANCH   6  13
ATOM     13  O   UNL     1       7.947   5.513  13.926  0.00  0.00    +0.000 OA
ATOM     14  C   UNL     1       7.749   5.258  12.538  0.00  0.00    +0.000 C 
ENDBRANCH   6  13
BRANCH   1  15
ATOM     15  C   UNL     1       3.461   3.832  20.100  0.00  0.00    +0.000 C 
BRANCH  15  17
ATOM     16  C   UNL     1       2.344   6.048  19.784  0.00  0.00    +0.000 C 
ATOM     17  C   UNL     1       2.242   4.733  20.042  0.00  0.00    +0.000 C 
ATOM     18  C   UNL     1       0.909   4.116  20.376  0.00  0.00    +0.000 C 
ENDBRANCH  15  17
ENDBRANCH   1  15
TORSDOF 3
ENDMDL
MODEL 9
REMARK VINA RESULT:      -6.4      5.027      6.464
REMARK  Name = 
REMARK  5 active torsions:
REMARK  status: ('A' for Active; 'I' for Inactive)
REMARK    1  A    between atoms: C_2  and  C_3
REMARK    2  A    between atoms: C_2  and  C_4
REMARK    3  A    between atoms: C_4  and  N_5
REMARK    4  A    between atoms: C_10  and  O_11
REMARK    5  A    between atoms: O_11  and  C_12
REMARK                            x       y       z     vdW  Elec       q    Type
REMARK                         _______ _______ _______ _____ _____    ______ ____
ROOT
ATOM      1  N   UNL     1       1.356   9.314  19.361  0.00  0.00    +0.000 N 
ATOM      2  C   UNL     1       1.075   8.708  20.574  0.00  0.00    +0.000 A 
ATOM      3  C   UNL     1       1.438   7.447  20.850  0.00  0.00    +0.000 A 
ATOM      4  C   UNL     1       2.235   6.698  19.879  0.00  0.00    +0.000 A 
ATOM      5  C   UNL     1       2.737   5.422  20.167  0.00  0.00    +0.000 A 
ATOM      6  C   UNL     1       3.590   4.767  19.264  0.00  0.00    +0.000 A 
ATOM      7  C   UNL     1       3.914   5.401  18.061  0.00  0.00    +0.000 A 
ATOM      8  F   UNL     1       4.759   4.848  17.179  0.00  0.00    +0.000 F 
ATOM      9  C   UNL     1       3.383   6.645  17.740  0.00  0.00    +0.000 A 
ATOM     10  C   UNL     1       2.544   7.290  18.649  0.00  0.00    +0.000 A 
ATOM     11  C   UNL     1       2.015   8.637  18.330  0.00  0.00    +0.000 A 
ATOM     12  O   UNL     1       2.193   9.099  17.204  0.00  0.00    +0.000 OA
ENDROOT
BRANCH   6  13
ATOM     13  O   UNL     1       4.029   3.543  19.691  0.00  0.00    +0.000 OA
ATOM     14  C   UNL     1       3.420   2.398  19.103  0.00  0.00    +0.000 C 
ENDBRANCH   6  13
BRANCH   1  15
ATOM     15  C   UNL     1       0.911  10.686  19.114  0.00  0.00    +0.000 C 
BRANCH  15  17
ATOM     16  C   UNL     1      -1.265  10.225  17.969  0.00  0.00    +0.000 C 
ATOM     17  C   UNL     1      -0.599  10.765  19.004  0.00  0.00    +0.000 C 
ATOM     18  C   UNL     1      -1.329  11.555  20.059  0.00  0.00    +0.000 C 
ENDBRANCH  15  17
ENDBRANCH   1  15
TORSDOF 3
ENDMDL
