MODEL 1
REMARK VINA RESULT:      -7.7      0.000      0.000
REMARK  Name = 
REMARK  3 active torsions:
REMARK  status: ('A' for Active; 'I' for Inactive)
REMARK    1  A    between atoms: C_4  and  C_5
REMARK    2  A    between atoms: C_8  and  N_9
REMARK    3  A    between atoms: C_10  and  C_12
REMARK                            x       y       z     vdW  Elec       q    Type
REMARK                         _______ _______ _______ _____ _____    ______ ____
ROOT
ATOM      1  C   UNL     1       4.159   6.131  17.525  0.00  0.00    +0.000 A 
ATOM      2  C   UNL     1       3.724   7.416  17.192  0.00  0.00    +0.000 A 
ATOM      3  C   UNL     1       2.845   8.111  18.025  0.00  0.00    +0.000 A 
ATOM      4  C   UNL     1       2.377   7.539  19.209  0.00  0.00    +0.000 A 
ATOM      5  C   UNL     1       2.835   6.268  19.566  0.00  0.00    +0.000 A 
ATOM      6  C   UNL     1       3.712   5.565  18.725  0.00  0.00    +0.000 A 
ENDROOT
BRANCH   1  10
ATOM      7  N   UNL     1       7.573   5.181  14.289  0.00  0.00    +0.000 N 
ATOM      8  C   UNL     1       6.615   5.068  15.214  0.00  0.00    +0.000 A 
ATOM      9  N   UNL     1       6.046   6.028  15.895  0.00  0.00    +0.000 NA
ATOM     10  C   UNL     1       5.084   5.413  16.663  0.00  0.00    +0.000 A 
ATOM     11  C   UNL     1       5.115   4.048  16.471  0.00  0.00    +0.000 A 
ATOM     12  N   UNL     1       6.093   3.848  15.537  0.00  0.00    +0.000 N 
ATOM     13  H   UNL     1       8.021   6.091  14.221  0.00  0.00    +0.000 HD
ATOM     14  H   UNL     1       8.171   4.408  14.031  0.00  0.00    +0.000 HD
ATOM     15  H   UNL     1       6.364   2.968  15.127  0.00  0.00    +0.000 HD
ENDBRANCH   1  10
BRANCH   4  16
ATOM     16  N   UNL     1       1.481   8.207  20.073  0.00  0.00    +0.000 N 
ATOM     17  C   UNL     1       0.894   9.438  19.820  0.00  0.00    +0.000 C 
ATOM     18  O   UNL     1       0.983  10.075  18.774  0.00  0.00    +0.000 OA
ATOM     19  H   UNL     1       1.251   7.722  20.928  0.00  0.00    +0.000 HD
BRANCH  17  20
ATOM     20  C   UNL     1       0.084  10.047  20.913  0.00  0.00    +0.000 A 
ATOM     21  C   UNL     1      -0.633  11.216  20.601  0.00  0.00    +0.000 A 
ATOM     22  C   UNL     1      -1.416  11.849  21.563  0.00  0.00    +0.000 A 
ATOM     23  C   UNL     1      -1.488  11.308  22.840  0.00  0.00    +0.000 A 
ATOM     24  F   UNL     1      -2.236  11.915  23.770  0.00  0.00    +0.000 F 
ATOM     25  C   UNL     1      -0.801  10.142  23.165  0.00  0.00    +0.000 A 
ATOM     26  C   UNL     1      -0.014   9.502  22.200  0.00  0.00    +0.000 A 
ENDBRANCH  17  20
ENDBRANCH   4  16
TORSDOF 3
ENDMDL
MODEL 2
REMARK VINA RESULT:      -7.7      6.670      8.282
REMARK  Name = 
REMARK  3 active torsions:
REMARK  status: ('A' for Active; 'I' for Inactive)
REMARK    1  A    between atoms: C_4  and  C_5
REMARK    2  A    between atoms: C_8  and  N_9
REMARK    3  A    between atoms: C_10  and  C_12
REMARK                            x       y       z     vdW  Elec       q    Type
REMARK                         _______ _______ _______ _____ _____    ______ ____
ROOT
ATOM      1  C   UNL     1       6.336   5.845  18.119  0.00  0.00    +0.000 A 
ATOM      2  C   UNL     1       7.548   6.031  18.788  0.00  0.00    +0.000 A 
ATOM      3  C   UNL     1       8.283   7.207  18.620  0.00  0.00    +0.000 A 
ATOM      4  C   UNL     1       7.827   8.223  17.780  0.00  0.00    +0.000 A 
ATOM      5  C   UNL     1       6.599   8.059  17.133  0.00  0.00    +0.000 A 
ATOM      6  C   UNL     1       5.863   6.873  17.294  0.00  0.00    +0.000 A 
ENDROOT
BRANCH   1  10
ATOM      7  N   UNL     1       4.617   1.779  19.999  0.00  0.00    +0.000 N 
ATOM      8  C   UNL     1       4.847   2.827  19.203  0.00  0.00    +0.000 A 
ATOM      9  N   UNL     1       5.602   3.866  19.449  0.00  0.00    +0.000 NA
ATOM     10  C   UNL     1       5.566   4.626  18.303  0.00  0.00    +0.000 A 
ATOM     11  C   UNL     1       4.729   4.051  17.370  0.00  0.00    +0.000 A 
ATOM     12  N   UNL     1       4.285   2.900  17.961  0.00  0.00    +0.000 N 
ATOM     13  H   UNL     1       4.933   1.873  20.961  0.00  0.00    +0.000 HD
ATOM     14  H   UNL     1       3.809   1.181  19.889  0.00  0.00    +0.000 HD
ATOM     15  H   UNL     1       3.682   2.205  17.548  0.00  0.00    +0.000 HD
ENDBRANCH   1  10
BRANCH   4  16
ATOM     16  N   UNL     1       8.546   9.423  17.578  0.00  0.00    +0.000 N 
ATOM     17  C   UNL     1       9.071  10.219  18.585  0.00  0.00    +0.000 C 
ATOM     18  O   UNL     1       9.080   9.949  19.783  0.00  0.00    +0.000 OA
ATOM     19  H   UNL     1       8.691   9.692  16.616  0.00  0.00    +0.000 HD
BRANCH  17  20
ATOM     20  C   UNL     1       9.677  11.519  18.183  0.00  0.00    +0.000 A 
ATOM     21  C   UNL     1       8.854  12.657  18.255  0.00  0.00    +0.000 A 
ATOM     22  C   UNL     1       9.341  13.912  17.899  0.00  0.00    +0.000 A 
ATOM     23  C   UNL     1      10.658  14.032  17.475  0.00  0.00    +0.000 A 
ATOM     24  F   UNL     1      11.131  15.235  17.128  0.00  0.00    +0.000 F 
ATOM     25  C   UNL     1      11.495  12.921  17.413  0.00  0.00    +0.000 A 
ATOM     26  C   UNL     1      11.009  11.659  17.772  0.00  0.00    +0.000 A 
ENDBRANCH  17  20
ENDBRANCH   4  16
TORSDOF 3
ENDMDL
MODEL 3
REMARK VINA RESULT:      -7.7      6.662      8.330
REMARK  Name = 
REMARK  3 active torsions:
REMARK  status: ('A' for Active; 'I' for Inactive)
REMARK    1  A    between atoms: C_4  and  C_5
REMARK    2  A    between atoms: C_8  and  N_9
REMARK    3  A    between atoms: C_10  and  C_12
REMARK                            x       y       z     vdW  Elec       q    Type
REMARK                         _______ _______ _______ _____ _____    ______ ____
ROOT
ATOM      1  C   UNL     1       6.280   5.807  18.125  0.00  0.00    +0.000 A 
ATOM      2  C   UNL     1       7.513   6.005  18.752  0.00  0.00    +0.000 A 
ATOM      3  C   UNL     1       8.221   7.195  18.572  0.00  0.00    +0.000 A 
ATOM      4  C   UNL     1       7.717   8.214  17.762  0.00  0.00    +0.000 A 
ATOM      5  C   UNL     1       6.469   8.036  17.159  0.00  0.00    +0.000 A 
ATOM      6  C   UNL     1       5.760   6.835  17.332  0.00  0.00    +0.000 A 
ENDROOT
BRANCH   1  10
ATOM      7  N   UNL     1       4.670   1.710  20.038  0.00  0.00    +0.000 N 
ATOM      8  C   UNL     1       4.868   2.761  19.236  0.00  0.00    +0.000 A 
ATOM      9  N   UNL     1       5.605   3.816  19.470  0.00  0.00    +0.000 NA
ATOM     10  C   UNL     1       5.538   4.572  18.322  0.00  0.00    +0.000 A 
ATOM     11  C   UNL     1       4.701   3.977  17.401  0.00  0.00    +0.000 A 
ATOM     12  N   UNL     1       4.289   2.819  18.001  0.00  0.00    +0.000 N 
ATOM     13  H   UNL     1       4.996   1.814  20.995  0.00  0.00    +0.000 HD
ATOM     14  H   UNL     1       3.873   1.095  19.939  0.00  0.00    +0.000 HD
ATOM     15  H   UNL     1       3.696   2.110  17.598  0.00  0.00    +0.000 HD
ENDBRANCH   1  10
BRANCH   4  16
ATOM     16  N   UNL     1       8.408   9.428  17.549  0.00  0.00    +0.000 N 
ATOM     17  C   UNL     1       9.018  10.184  18.538  0.00  0.00    +0.000 C 
ATOM     18  O   UNL     1       9.138   9.862  19.718  0.00  0.00    +0.000 OA
ATOM     19  H   UNL     1       8.463   9.740  16.590  0.00  0.00    +0.000 HD
BRANCH  17  20
ATOM     20  C   UNL     1       9.578  11.506  18.141  0.00  0.00    +0.000 A 
ATOM     21  C   UNL     1      10.951  11.554  17.840  0.00  0.00    +0.000 A 
ATOM     22  C   UNL     1      11.555  12.750  17.458  0.00  0.00    +0.000 A 
ATOM     23  C   UNL     1      10.783  13.901  17.372  0.00  0.00    +0.000 A 
ATOM     24  F   UNL     1      11.359  15.054  17.009  0.00  0.00    +0.000 F 
ATOM     25  C   UNL     1       9.419  13.872  17.648  0.00  0.00    +0.000 A 
ATOM     26  C   UNL     1       8.808  12.672  18.030  0.00  0.00    +0.000 A 
ENDBRANCH  17  20
ENDBRANCH   4  16
TORSDOF 3
ENDMDL
MODEL 4
REMARK VINA RESULT:      -7.6      0.144      1.032
REMARK  Name = 
REMARK  3 active torsions:
REMARK  status: ('A' for Active; 'I' for Inactive)
REMARK    1  A    between atoms: C_4  and  C_5
REMARK    2  A    between atoms: C_8  and  N_9
REMARK    3  A    between atoms: C_10  and  C_12
REMARK                            x       y       z     vdW  Elec       q    Type
REMARK                         _______ _______ _______ _____ _____    ______ ____
ROOT
ATOM      1  C   UNL     1       4.124   6.095  17.607  0.00  0.00    +0.000 A 
ATOM      2  C   UNL     1       3.591   5.453  18.727  0.00  0.00    +0.000 A 
ATOM      3  C   UNL     1       2.713   6.121  19.583  0.00  0.00    +0.000 A 
ATOM      4  C   UNL     1       2.348   7.446  19.344  0.00  0.00    +0.000 A 
ATOM      5  C   UNL     1       2.850   8.085  18.206  0.00  0.00    +0.000 A 
ATOM      6  C   UNL     1       3.741   7.417  17.349  0.00  0.00    +0.000 A 
ENDROOT
BRANCH   1  10
ATOM      7  N   UNL     1       7.503   5.211  14.317  0.00  0.00    +0.000 N 
ATOM      8  C   UNL     1       6.546   5.079  15.240  0.00  0.00    +0.000 A 
ATOM      9  N   UNL     1       6.002   6.021  15.966  0.00  0.00    +0.000 NA
ATOM     10  C   UNL     1       5.029   5.395  16.710  0.00  0.00    +0.000 A 
ATOM     11  C   UNL     1       5.026   4.039  16.457  0.00  0.00    +0.000 A 
ATOM     12  N   UNL     1       5.997   3.859  15.511  0.00  0.00    +0.000 N 
ATOM     13  H   UNL     1       7.973   6.112  14.289  0.00  0.00    +0.000 HD
ATOM     14  H   UNL     1       8.083   4.436  14.022  0.00  0.00    +0.000 HD
ATOM     15  H   UNL     1       6.245   2.991  15.061  0.00  0.00    +0.000 HD
ENDBRANCH   1  10
BRANCH   4  16
ATOM     16  N   UNL     1       1.469   8.159  20.191  0.00  0.00    +0.000 N 
ATOM     17  C   UNL     1       0.777   9.308  19.839  0.00  0.00    +0.000 C 
ATOM     18  O   UNL     1       0.744   9.813  18.720  0.00  0.00    +0.000 OA
ATOM     19  H   UNL     1       1.338   7.771  21.113  0.00  0.00    +0.000 HD
BRANCH  17  20
ATOM     20  C   UNL     1       0.005   9.996  20.911  0.00  0.00    +0.000 A 
ATOM     21  C   UNL     1      -0.681  11.170  20.551  0.00  0.00    +0.000 A 
ATOM     22  C   UNL     1      -1.428  11.875  21.493  0.00  0.00    +0.000 A 
ATOM     23  C   UNL     1      -1.495  11.401  22.796  0.00  0.00    +0.000 A 
ATOM     24  F   UNL     1      -2.209  12.077  23.705  0.00  0.00    +0.000 F 
ATOM     25  C   UNL     1      -0.839  10.232  23.169  0.00  0.00    +0.000 A 
ATOM     26  C   UNL     1      -0.089   9.520  22.226  0.00  0.00    +0.000 A 
ENDBRANCH  17  20
ENDBRANCH   4  16
TORSDOF 3
ENDMDL
MODEL 5
REMARK VINA RESULT:      -7.6      0.216      1.470
REMARK  Name = 
REMARK  3 active torsions:
REMARK  status: ('A' for Active; 'I' for Inactive)
REMARK    1  A    between atoms: C_4  and  C_5
REMARK    2  A    between atoms: C_8  and  N_9
REMARK    3  A    between atoms: C_10  and  C_12
REMARK                            x       y       z     vdW  Elec       q    Type
REMARK                         _______ _______ _______ _____ _____    ______ ____
ROOT
ATOM      1  C   UNL     1       4.131   6.165  17.750  0.00  0.00    +0.000 A 
ATOM      2  C   UNL     1       3.656   5.615  18.943  0.00  0.00    +0.000 A 
ATOM      3  C   UNL     1       2.733   6.307  19.730  0.00  0.00    +0.000 A 
ATOM      4  C   UNL     1       2.263   7.564  19.346  0.00  0.00    +0.000 A 
ATOM      5  C   UNL     1       2.707   8.105  18.136  0.00  0.00    +0.000 A 
ATOM      6  C   UNL     1       3.643   7.414  17.348  0.00  0.00    +0.000 A 
ENDROOT
BRANCH   1  10
ATOM      7  N   UNL     1       7.538   5.172  14.519  0.00  0.00    +0.000 N 
ATOM      8  C   UNL     1       6.606   5.074  15.472  0.00  0.00    +0.000 A 
ATOM      9  N   UNL     1       5.990   6.049  16.089  0.00  0.00    +0.000 NA
ATOM     10  C   UNL     1       5.083   5.439  16.925  0.00  0.00    +0.000 A 
ATOM     11  C   UNL     1       5.196   4.067  16.840  0.00  0.00    +0.000 A 
ATOM     12  N   UNL     1       6.168   3.854  15.902  0.00  0.00    +0.000 N 
ATOM     13  H   UNL     1       7.926   6.100  14.370  0.00  0.00    +0.000 HD
ATOM     14  H   UNL     1       8.179   4.419  14.309  0.00  0.00    +0.000 HD
ATOM     15  H   UNL     1       6.486   2.962  15.555  0.00  0.00    +0.000 HD
ENDBRANCH   1  10
BRANCH   4  16
ATOM     16  N   UNL     1       1.335   8.298  20.118  0.00  0.00    +0.000 N 
ATOM     17  C   UNL     1       0.886   9.577  19.825  0.00  0.00    +0.000 C 
ATOM     18  O   UNL     1       1.145  10.214  18.808  0.00  0.00    +0.000 OA
ATOM     19  H   UNL     1       0.971   7.826  20.933  0.00  0.00    +0.000 HD
BRANCH  17  20
ATOM     20  C   UNL     1       0.013  10.243  20.833  0.00  0.00    +0.000 A 
ATOM     21  C   UNL     1      -0.034   9.667  22.116  0.00  0.00    +0.000 A 
ATOM     22  C   UNL     1      -0.824  10.227  23.118  0.00  0.00    +0.000 A 
ATOM     23  C   UNL     1      -1.563  11.368  22.839  0.00  0.00    +0.000 A 
ATOM     24  F   UNL     1      -2.327  11.908  23.797  0.00  0.00    +0.000 F 
ATOM     25  C   UNL     1      -1.516  11.964  21.581  0.00  0.00    +0.000 A 
ATOM     26  C   UNL     1      -0.723  11.406  20.573  0.00  0.00    +0.000 A 
ENDBRANCH  17  20
ENDBRANCH   4  16
TORSDOF 3
ENDMDL
MODEL 6
REMARK VINA RESULT:      -7.6      0.369      1.096
REMARK  Name = 
REMARK  3 active torsions:
REMARK  status: ('A' for Active; 'I' for Inactive)
REMARK    1  A    between atoms: C_4  and  C_5
REMARK    2  A    between atoms: C_8  and  N_9
REMARK    3  A    between atoms: C_10  and  C_12
REMARK                            x       y       z     vdW  Elec       q    Type
REMARK                         _______ _______ _______ _____ _____    ______ ____
ROOT
ATOM      1  C   UNL     1       4.055   6.273  17.750  0.00  0.00    +0.000 A 
ATOM      2  C   UNL     1       3.582   7.501  17.281  0.00  0.00    +0.000 A 
ATOM      3  C   UNL     1       2.649   8.234  18.016  0.00  0.00    +0.000 A 
ATOM      4  C   UNL     1       2.164   7.761  19.236  0.00  0.00    +0.000 A 
ATOM      5  C   UNL     1       2.659   6.550  19.729  0.00  0.00    +0.000 A 
ATOM      6  C   UNL     1       3.590   5.806  18.986  0.00  0.00    +0.000 A 
ENDROOT
BRANCH   1  10
ATOM      7  N   UNL     1       7.578   5.154  14.691  0.00  0.00    +0.000 N 
ATOM      8  C   UNL     1       6.610   5.094  15.610  0.00  0.00    +0.000 A 
ATOM      9  N   UNL     1       5.976   6.092  16.168  0.00  0.00    +0.000 NA
ATOM     10  C   UNL     1       5.034   5.515  16.990  0.00  0.00    +0.000 A 
ATOM     11  C   UNL     1       5.145   4.140  16.958  0.00  0.00    +0.000 A 
ATOM     12  N   UNL     1       6.151   3.891  16.066  0.00  0.00    +0.000 N 
ATOM     13  H   UNL     1       7.976   6.075  14.524  0.00  0.00    +0.000 HD
ATOM     14  H   UNL     1       8.224   4.392  14.532  0.00  0.00    +0.000 HD
ATOM     15  H   UNL     1       6.478   2.986  15.765  0.00  0.00    +0.000 HD
ENDBRANCH   1  10
BRANCH   4  16
ATOM     16  N   UNL     1       1.215   8.470  20.005  0.00  0.00    +0.000 N 
ATOM     17  C   UNL     1       0.924   9.819  19.869  0.00  0.00    +0.000 C 
ATOM     18  O   UNL     1       1.368  10.566  19.001  0.00  0.00    +0.000 OA
ATOM     19  H   UNL     1       0.708   7.927  20.688  0.00  0.00    +0.000 HD
BRANCH  17  20
ATOM     20  C   UNL     1      -0.008  10.421  20.864  0.00  0.00    +0.000 A 
ATOM     21  C   UNL     1      -0.038   9.839  22.144  0.00  0.00    +0.000 A 
ATOM     22  C   UNL     1      -0.880  10.341  23.134  0.00  0.00    +0.000 A 
ATOM     23  C   UNL     1      -1.689  11.432  22.846  0.00  0.00    +0.000 A 
ATOM     24  F   UNL     1      -2.502  11.916  23.793  0.00  0.00    +0.000 F 
ATOM     25  C   UNL     1      -1.661  12.034  21.592  0.00  0.00    +0.000 A 
ATOM     26  C   UNL     1      -0.815  11.534  20.595  0.00  0.00    +0.000 A 
ENDBRANCH  17  20
ENDBRANCH   4  16
TORSDOF 3
ENDMDL
MODEL 7
REMARK VINA RESULT:      -7.6      0.882      1.666
REMARK  Name = 
REMARK  3 active torsions:
REMARK  status: ('A' for Active; 'I' for Inactive)
REMARK    1  A    between atoms: C_4  and  C_5
REMARK    2  A    between atoms: C_8  and  N_9
REMARK    3  A    between atoms: C_10  and  C_12
REMARK                            x       y       z     vdW  Elec       q    Type
REMARK                         _______ _______ _______ _____ _____    ______ ____
ROOT
ATOM      1  C   UNL     1       4.496   5.787  16.851  0.00  0.00    +0.000 A 
ATOM      2  C   UNL     1       3.523   5.058  17.538  0.00  0.00    +0.000 A 
ATOM      3  C   UNL     1       2.654   5.691  18.429  0.00  0.00    +0.000 A 
ATOM      4  C   UNL     1       2.737   7.065  18.658  0.00  0.00    +0.000 A 
ATOM      5  C   UNL     1       3.685   7.807  17.947  0.00  0.00    +0.000 A 
ATOM      6  C   UNL     1       4.566   7.170  17.057  0.00  0.00    +0.000 A 
ENDROOT
BRANCH   1  10
ATOM      7  N   UNL     1       7.601   5.044  13.268  0.00  0.00    +0.000 N 
ATOM      8  C   UNL     1       6.776   4.877  14.306  0.00  0.00    +0.000 A 
ATOM      9  N   UNL     1       6.182   5.804  15.010  0.00  0.00    +0.000 NA
ATOM     10  C   UNL     1       5.393   5.130  15.914  0.00  0.00    +0.000 A 
ATOM     11  C   UNL     1       5.559   3.767  15.776  0.00  0.00    +0.000 A 
ATOM     12  N   UNL     1       6.441   3.627  14.740  0.00  0.00    +0.000 N 
ATOM     13  H   UNL     1       7.930   5.993  13.109  0.00  0.00    +0.000 HD
ATOM     14  H   UNL     1       8.252   4.329  12.972  0.00  0.00    +0.000 HD
ATOM     15  H   UNL     1       6.763   2.760  14.337  0.00  0.00    +0.000 HD
ENDBRANCH   1  10
BRANCH   4  16
ATOM     16  N   UNL     1       1.881   7.740  19.557  0.00  0.00    +0.000 N 
ATOM     17  C   UNL     1       1.216   8.927  19.289  0.00  0.00    +0.000 C 
ATOM     18  O   UNL     1       1.189   9.507  18.208  0.00  0.00    +0.000 OA
ATOM     19  H   UNL     1       1.745   7.294  20.453  0.00  0.00    +0.000 HD
BRANCH  17  20
ATOM     20  C   UNL     1       0.468   9.559  20.412  0.00  0.00    +0.000 A 
ATOM     21  C   UNL     1       0.487   8.890  21.649  0.00  0.00    +0.000 A 
ATOM     22  C   UNL     1      -0.186   9.413  22.751  0.00  0.00    +0.000 A 
ATOM     23  C   UNL     1      -0.875  10.611  22.618  0.00  0.00    +0.000 A 
ATOM     24  F   UNL     1      -1.526  11.116  23.674  0.00  0.00    +0.000 F 
ATOM     25  C   UNL     1      -0.892  11.298  21.408  0.00  0.00    +0.000 A 
ATOM     26  C   UNL     1      -0.216  10.777  20.299  0.00  0.00    +0.000 A 
ENDBRANCH  17  20
ENDBRANCH   4  16
TORSDOF 3
ENDMDL
MODEL 8
REMARK VINA RESULT:      -7.5      1.120      1.682
REMARK  Name = 
REMARK  3 active torsions:
REMARK  status: ('A' for Active; 'I' for Inactive)
REMARK    1  A    between atoms: C_4  and  C_5
REMARK    2  A    between atoms: C_8  and  N_9
REMARK    3  A    between atoms: C_10  and  C_12
REMARK                            x       y       z     vdW  Elec       q    Type
REMARK                         _______ _______ _______ _____ _____    ______ ____
ROOT
ATOM      1  C   UNL     1       4.673   5.768  16.689  0.00  0.00    +0.000 A 
ATOM      2  C   UNL     1       3.727   4.997  17.370  0.00  0.00    +0.000 A 
ATOM      3  C   UNL     1       2.868   5.580  18.302  0.00  0.00    +0.000 A 
ATOM      4  C   UNL     1       2.932   6.947  18.580  0.00  0.00    +0.000 A 
ATOM      5  C   UNL     1       3.852   7.731  17.878  0.00  0.00    +0.000 A 
ATOM      6  C   UNL     1       4.723   7.143  16.946  0.00  0.00    +0.000 A 
ENDROOT
BRANCH   1  10
ATOM      7  N   UNL     1       6.283   3.186  12.978  0.00  0.00    +0.000 N 
ATOM      8  C   UNL     1       6.202   3.992  14.042  0.00  0.00    +0.000 A 
ATOM      9  N   UNL     1       5.119   4.424  14.634  0.00  0.00    +0.000 NA
ATOM     10  C   UNL     1       5.559   5.162  15.710  0.00  0.00    +0.000 A 
ATOM     11  C   UNL     1       6.938   5.210  15.729  0.00  0.00    +0.000 A 
ATOM     12  N   UNL     1       7.328   4.452  14.660  0.00  0.00    +0.000 N 
ATOM     13  H   UNL     1       5.413   3.020  12.479  0.00  0.00    +0.000 HD
ATOM     14  H   UNL     1       7.108   3.140  12.395  0.00  0.00    +0.000 HD
ATOM     15  H   UNL     1       8.276   4.234  14.390  0.00  0.00    +0.000 HD
ENDBRANCH   1  10
BRANCH   4  16
ATOM     16  N   UNL     1       2.085   7.572  19.522  0.00  0.00    +0.000 N 
ATOM     17  C   UNL     1       1.396   8.757  19.314  0.00  0.00    +0.000 C 
ATOM     18  O   UNL     1       1.337   9.378  18.256  0.00  0.00    +0.000 OA
ATOM     19  H   UNL     1       1.975   7.090  20.402  0.00  0.00    +0.000 HD
BRANCH  17  20
ATOM     20  C   UNL     1       0.661   9.334  20.475  0.00  0.00    +0.000 A 
ATOM     21  C   UNL     1      -0.053  10.525  20.251  0.00  0.00    +0.000 A 
ATOM     22  C   UNL     1      -0.768  11.131  21.282  0.00  0.00    +0.000 A 
ATOM     23  C   UNL     1      -0.774  10.541  22.539  0.00  0.00    +0.000 A 
ATOM     24  F   UNL     1      -1.457  11.121  23.534  0.00  0.00    +0.000 F 
ATOM     25  C   UNL     1      -0.089   9.353  22.777  0.00  0.00    +0.000 A 
ATOM     26  C   UNL     1       0.629   8.741  21.744  0.00  0.00    +0.000 A 
ENDBRANCH  17  20
ENDBRANCH   4  16
TORSDOF 3
ENDMDL
MODEL 9
REMARK VINA RESULT:      -7.5      1.515      2.190
REMARK  Name = 
REMARK  3 active torsions:
REMARK  status: ('A' for Active; 'I' for Inactive)
REMARK    1  A    between atoms: C_4  and  C_5
REMARK    2  A    between atoms: C_8  and  N_9
REMARK    3  A    between atoms: C_10  and  C_12
REMARK                            x       y       z     vdW  Elec       q    Type
REMARK                         _______ _______ _______ _____ _____    ______ ____
ROOT
ATOM      1  C   UNL     1       3.353   6.541  18.651  0.00  0.00    +0.000 A 
ATOM      2  C   UNL     1       3.103   7.654  17.845  0.00  0.00    +0.000 A 
ATOM      3  C   UNL     1       2.180   8.626  18.237  0.00  0.00    +0.000 A 
ATOM      4  C   UNL     1       1.483   8.509  19.440  0.00  0.00    +0.000 A 
ATOM      5  C   UNL     1       1.752   7.415  20.267  0.00  0.00    +0.000 A 
ATOM      6  C   UNL     1       2.674   6.432  19.870  0.00  0.00    +0.000 A 
ENDROOT
BRANCH   1  10
ATOM      7  N   UNL     1       5.889   3.464  15.980  0.00  0.00    +0.000 N 
ATOM      8  C   UNL     1       5.411   4.190  16.996  0.00  0.00    +0.000 A 
ATOM      9  N   UNL     1       4.531   5.155  16.942  0.00  0.00    +0.000 NA
ATOM     10  C   UNL     1       4.322   5.535  18.248  0.00  0.00    +0.000 A 
ATOM     11  C   UNL     1       5.136   4.812  19.095  0.00  0.00    +0.000 A 
ATOM     12  N   UNL     1       5.817   3.954  18.278  0.00  0.00    +0.000 N 
ATOM     13  H   UNL     1       5.666   3.803  15.048  0.00  0.00    +0.000 HD
ATOM     14  H   UNL     1       6.765   2.963  16.037  0.00  0.00    +0.000 HD
ATOM     15  H   UNL     1       6.476   3.246  18.563  0.00  0.00    +0.000 HD
ENDBRANCH   1  10
BRANCH   4  16
ATOM     16  N   UNL     1       0.536   9.467  19.866  0.00  0.00    +0.000 N 
ATOM     17  C   UNL     1       0.537  10.096  21.102  0.00  0.00    +0.000 C 
ATOM     18  O   UNL     1       1.409   9.993  21.960  0.00  0.00    +0.000 OA
ATOM     19  H   UNL     1      -0.178   9.709  19.194  0.00  0.00    +0.000 HD
BRANCH  17  20
ATOM     20  C   UNL     1      -0.623  10.974  21.423  0.00  0.00    +0.000 A 
ATOM     21  C   UNL     1      -1.039  11.018  22.766  0.00  0.00    +0.000 A 
ATOM     22  C   UNL     1      -2.114  11.814  23.153  0.00  0.00    +0.000 A 
ATOM     23  C   UNL     1      -2.773  12.574  22.196  0.00  0.00    +0.000 A 
ATOM     24  F   UNL     1      -3.810  13.338  22.562  0.00  0.00    +0.000 F 
ATOM     25  C   UNL     1      -2.367  12.559  20.865  0.00  0.00    +0.000 A 
ATOM     26  C   UNL     1      -1.285  11.762  20.472  0.00  0.00    +0.000 A 
ENDBRANCH  17  20
ENDBRANCH   4  16
TORSDOF 3
ENDMDL
