MODEL 1
REMARK VINA RESULT:      -8.2      0.000      0.000
REMARK  Name = 
REMARK  7 active torsions:
REMARK  status: ('A' for Active; 'I' for Inactive)
REMARK    1  A    between atoms: C_1  and  C_2
REMARK    2  A    between atoms: C_6  and  N_7
REMARK    3  A    between atoms: C_8  and  C_10
REMARK    4  A    between atoms: C_10  and  N_11
REMARK    5  A    between atoms: N_19  and  C_20
REMARK    6  A    between atoms: C_20  and  C_21
REMARK    7  A    between atoms: C_21  and  O_23
REMARK                            x       y       z     vdW  Elec       q    Type
REMARK                         _______ _______ _______ _____ _____    ______ ____
ROOT
ATOM      1  N   UNL     1      -0.292  10.695  19.143  0.00  0.00    +0.000 N 
ATOM      2  C   UNL     1      -0.638  11.256  20.363  0.00  0.00    +0.000 C 
ATOM      3  O   UNL     1       0.104  11.381  21.320  0.00  0.00    +0.000 OA
ATOM      4  C   UNL     1      -2.079  11.678  20.231  0.00  0.00    +0.000 C 
ATOM      5  C   UNL     1      -2.753  12.356  21.172  0.00  0.00    +0.000 C 
ATOM      6  S   UNL     1      -2.268  12.584  22.814  0.00  0.00    +0.000 S 
ATOM      7  C   UNL     1      -3.927  12.747  23.363  0.00  0.00    +0.000 C 
ATOM      8  S   UNL     1      -4.363  12.626  24.962  0.00  0.00    +0.000 S 
ATOM      9  N   UNL     1      -4.755  12.921  22.275  0.00  0.00    +0.000 N 
ATOM     10  C   UNL     1      -4.127  12.915  21.042  0.00  0.00    +0.000 C 
ATOM     11  O   UNL     1      -4.594  13.381  20.015  0.00  0.00    +0.000 OA
ATOM     12  C   UNL     1      -2.534  11.188  18.920  0.00  0.00    +0.000 A 
ATOM     13  C   UNL     1      -3.786  11.103  18.331  0.00  0.00    +0.000 A 
ATOM     14  C   UNL     1      -3.907  10.496  17.082  0.00  0.00    +0.000 A 
ATOM     15  C   UNL     1      -2.778   9.975  16.437  0.00  0.00    +0.000 A 
ATOM     16  C   UNL     1      -1.513  10.036  17.039  0.00  0.00    +0.000 A 
ATOM     17  C   UNL     1      -1.413  10.620  18.291  0.00  0.00    +0.000 A 
ENDROOT
BRANCH   1  18
ATOM     18  C   UNL     1       1.085  10.456  18.767  0.00  0.00    +0.000 C 
BRANCH  18  20
ATOM     19  N   UNL     1       2.301   8.474  17.880  0.00  0.00    +0.000 N 
ATOM     20  C   UNL     1       1.685   9.058  18.981  0.00  0.00    +0.000 C 
ATOM     21  O   UNL     1       1.464   8.495  20.054  0.00  0.00    +0.000 OA
ATOM     22  H   UNL     1       2.313   9.013  17.017  0.00  0.00    +0.000 HD
BRANCH  19  28
ATOM     23  C   UNL     1       1.572   3.570  18.243  0.00  0.00    +0.000 C 
ATOM     24  C   UNL     1       2.490   4.736  18.005  0.00  0.00    +0.000 A 
ATOM     25  C   UNL     1       3.839   4.510  17.719  0.00  0.00    +0.000 A 
ATOM     26  C   UNL     1       4.690   5.588  17.491  0.00  0.00    +0.000 A 
ATOM     27  C   UNL     1       4.197   6.894  17.536  0.00  0.00    +0.000 A 
ATOM     28  C   UNL     1       2.852   7.159  17.820  0.00  0.00    +0.000 A 
ATOM     29  C   UNL     1       2.005   6.061  18.058  0.00  0.00    +0.000 A 
ENDBRANCH  19  28
ENDBRANCH  18  20
ENDBRANCH   1  18
BRANCH   9  30
ATOM     30  C   UNL     1      -6.146  13.387  22.367  0.00  0.00    +0.000 C 
BRANCH  30  31
ATOM     31  C   UNL     1      -7.189  12.301  22.595  0.00  0.00    +0.000 C 
ATOM     32  O   UNL     1      -7.350  11.370  21.815  0.00  0.00    +0.000 OA
BRANCH  31  33
ATOM     33  O   UNL     1      -7.916  12.404  23.726  0.00  0.00    +0.000 OA
ATOM     34  H   UNL     1      -8.396  13.242  23.833  0.00  0.00    +0.000 HD
ENDBRANCH  31  33
ENDBRANCH  30  31
ENDBRANCH   9  30
TORSDOF 6
ENDMDL
MODEL 2
REMARK VINA RESULT:      -8.0      1.178      1.223
REMARK  Name = 
REMARK  7 active torsions:
REMARK  status: ('A' for Active; 'I' for Inactive)
REMARK    1  A    between atoms: C_1  and  C_2
REMARK    2  A    between atoms: C_6  and  N_7
REMARK    3  A    between atoms: C_8  and  C_10
REMARK    4  A    between atoms: C_10  and  N_11
REMARK    5  A    between atoms: N_19  and  C_20
REMARK    6  A    between atoms: C_20  and  C_21
REMARK    7  A    between atoms: C_21  and  O_23
REMARK                            x       y       z     vdW  Elec       q    Type
REMARK                         _______ _______ _______ _____ _____    ______ ____
ROOT
ATOM      1  N   UNL     1      -0.118  10.742  19.245  0.00  0.00    +0.000 N 
ATOM      2  C   UNL     1      -0.513  11.306  20.448  0.00  0.00    +0.000 C 
ATOM      3  O   UNL     1       0.195  11.451  21.427  0.00  0.00    +0.000 OA
ATOM      4  C   UNL     1      -1.957  11.700  20.267  0.00  0.00    +0.000 C 
ATOM      5  C   UNL     1      -2.673  12.373  21.179  0.00  0.00    +0.000 C 
ATOM      6  S   UNL     1      -2.245  12.621  22.834  0.00  0.00    +0.000 S 
ATOM      7  C   UNL     1      -3.924  12.758  23.328  0.00  0.00    +0.000 C 
ATOM      8  S   UNL     1      -4.409  12.641  24.914  0.00  0.00    +0.000 S 
ATOM      9  N   UNL     1      -4.719  12.909  22.213  0.00  0.00    +0.000 N 
ATOM     10  C   UNL     1      -4.052  12.906  21.001  0.00  0.00    +0.000 C 
ATOM     11  O   UNL     1      -4.493  13.355  19.956  0.00  0.00    +0.000 OA
ATOM     12  C   UNL     1      -2.360  11.192  18.946  0.00  0.00    +0.000 A 
ATOM     13  C   UNL     1      -3.591  11.080  18.317  0.00  0.00    +0.000 A 
ATOM     14  C   UNL     1      -3.660  10.461  17.070  0.00  0.00    +0.000 A 
ATOM     15  C   UNL     1      -2.501   9.957  16.465  0.00  0.00    +0.000 A 
ATOM     16  C   UNL     1      -1.259  10.045  17.107  0.00  0.00    +0.000 A 
ATOM     17  C   UNL     1      -1.209  10.640  18.357  0.00  0.00    +0.000 A 
ENDROOT
BRANCH   1  18
ATOM     18  C   UNL     1       1.274  10.526  18.914  0.00  0.00    +0.000 C 
BRANCH  18  20
ATOM     19  N   UNL     1       1.832   8.191  19.573  0.00  0.00    +0.000 N 
ATOM     20  C   UNL     1       1.740   9.111  18.536  0.00  0.00    +0.000 C 
ATOM     21  O   UNL     1       2.129   8.923  17.382  0.00  0.00    +0.000 OA
ATOM     22  H   UNL     1       1.583   8.519  20.504  0.00  0.00    +0.000 HD
BRANCH  19  28
ATOM     23  C   UNL     1       1.962   3.596  21.465  0.00  0.00    +0.000 C 
ATOM     24  C   UNL     1       2.384   4.584  20.414  0.00  0.00    +0.000 A 
ATOM     25  C   UNL     1       3.218   4.174  19.370  0.00  0.00    +0.000 A 
ATOM     26  C   UNL     1       3.604   5.084  18.392  0.00  0.00    +0.000 A 
ATOM     27  C   UNL     1       3.152   6.406  18.444  0.00  0.00    +0.000 A 
ATOM     28  C   UNL     1       2.317   6.852  19.475  0.00  0.00    +0.000 A 
ATOM     29  C   UNL     1       1.942   5.924  20.463  0.00  0.00    +0.000 A 
ENDBRANCH  19  28
ENDBRANCH  18  20
ENDBRANCH   1  18
BRANCH   9  30
ATOM     30  C   UNL     1      -6.120  13.350  22.256  0.00  0.00    +0.000 C 
BRANCH  30  31
ATOM     31  C   UNL     1      -7.159  12.268  21.993  0.00  0.00    +0.000 C 
ATOM     32  O   UNL     1      -7.640  12.074  20.882  0.00  0.00    +0.000 OA
BRANCH  31  33
ATOM     33  O   UNL     1      -7.505  11.507  23.051  0.00  0.00    +0.000 OA
ATOM     34  H   UNL     1      -6.827  11.430  23.743  0.00  0.00    +0.000 HD
ENDBRANCH  31  33
ENDBRANCH  30  31
ENDBRANCH   9  30
TORSDOF 6
ENDMDL
MODEL 3
REMARK VINA RESULT:      -7.9      0.453      1.308
REMARK  Name = 
REMARK  7 active torsions:
REMARK  status: ('A' for Active; 'I' for Inactive)
REMARK    1  A    between atoms: C_1  and  C_2
REMARK    2  A    between atoms: C_6  and  N_7
REMARK    3  A    between atoms: C_8  and  C_10
REMARK    4  A    between atoms: C_10  and  N_11
REMARK    5  A    between atoms: N_19  and  C_20
REMARK    6  A    between atoms: C_20  and  C_21
REMARK    7  A    between atoms: C_21  and  O_23
REMARK                            x       y       z     vdW  Elec       q    Type
REMARK                         _______ _______ _______ _____ _____    ______ ____
ROOT
ATOM      1  N   UNL     1      -0.297  10.715  19.003  0.00  0.00    +0.000 N 
ATOM      2  C   UNL     1      -0.643  11.282  20.220  0.00  0.00    +0.000 C 
ATOM      3  O   UNL     1       0.100  11.414  21.175  0.00  0.00    +0.000 OA
ATOM      4  C   UNL     1      -2.085  11.699  20.088  0.00  0.00    +0.000 C 
ATOM      5  C   UNL     1      -2.760  12.381  21.025  0.00  0.00    +0.000 C 
ATOM      6  S   UNL     1      -2.273  12.619  22.665  0.00  0.00    +0.000 S 
ATOM      7  C   UNL     1      -3.932  12.780  23.215  0.00  0.00    +0.000 C 
ATOM      8  S   UNL     1      -4.366  12.667  24.816  0.00  0.00    +0.000 S 
ATOM      9  N   UNL     1      -4.762  12.946  22.127  0.00  0.00    +0.000 N 
ATOM     10  C   UNL     1      -4.135  12.936  20.894  0.00  0.00    +0.000 C 
ATOM     11  O   UNL     1      -4.604  13.394  19.865  0.00  0.00    +0.000 OA
ATOM     12  C   UNL     1      -2.540  11.201  18.780  0.00  0.00    +0.000 A 
ATOM     13  C   UNL     1      -3.793  11.109  18.192  0.00  0.00    +0.000 A 
ATOM     14  C   UNL     1      -3.913  10.495  16.947  0.00  0.00    +0.000 A 
ATOM     15  C   UNL     1      -2.783   9.974  16.303  0.00  0.00    +0.000 A 
ATOM     16  C   UNL     1      -1.519  10.041  16.903  0.00  0.00    +0.000 A 
ATOM     17  C   UNL     1      -1.418  10.633  18.152  0.00  0.00    +0.000 A 
ENDROOT
BRANCH   1  18
ATOM     18  C   UNL     1       1.081  10.478  18.626  0.00  0.00    +0.000 C 
BRANCH  18  20
ATOM     19  N   UNL     1       2.325   8.492  17.786  0.00  0.00    +0.000 N 
ATOM     20  C   UNL     1       1.692   9.089  18.870  0.00  0.00    +0.000 C 
ATOM     21  O   UNL     1       1.466   8.542  19.950  0.00  0.00    +0.000 OA
ATOM     22  H   UNL     1       2.340   9.017  16.914  0.00  0.00    +0.000 HD
BRANCH  19  28
ATOM     23  C   UNL     1       6.272   5.614  16.865  0.00  0.00    +0.000 C 
ATOM     24  C   UNL     1       4.838   5.761  17.292  0.00  0.00    +0.000 A 
ATOM     25  C   UNL     1       4.104   4.630  17.658  0.00  0.00    +0.000 A 
ATOM     26  C   UNL     1       2.779   4.764  18.062  0.00  0.00    +0.000 A 
ATOM     27  C   UNL     1       2.184   6.027  18.113  0.00  0.00    +0.000 A 
ATOM     28  C   UNL     1       2.889   7.182  17.753  0.00  0.00    +0.000 A 
ATOM     29  C   UNL     1       4.224   7.032  17.338  0.00  0.00    +0.000 A 
ENDBRANCH  19  28
ENDBRANCH  18  20
ENDBRANCH   1  18
BRANCH   9  30
ATOM     30  C   UNL     1      -6.154  13.409  22.218  0.00  0.00    +0.000 C 
BRANCH  30  31
ATOM     31  C   UNL     1      -7.217  12.328  22.077  0.00  0.00    +0.000 C 
ATOM     32  O   UNL     1      -7.806  12.118  21.023  0.00  0.00    +0.000 OA
BRANCH  31  33
ATOM     33  O   UNL     1      -7.458  11.586  23.177  0.00  0.00    +0.000 OA
ATOM     34  H   UNL     1      -7.088  10.687  23.157  0.00  0.00    +0.000 HD
ENDBRANCH  31  33
ENDBRANCH  30  31
ENDBRANCH   9  30
TORSDOF 6
ENDMDL
MODEL 4
REMARK VINA RESULT:      -7.8      1.068      1.452
REMARK  Name = 
REMARK  7 active torsions:
REMARK  status: ('A' for Active; 'I' for Inactive)
REMARK    1  A    between atoms: C_1  and  C_2
REMARK    2  A    between atoms: C_6  and  N_7
REMARK    3  A    between atoms: C_8  and  C_10
REMARK    4  A    between atoms: C_10  and  N_11
REMARK    5  A    between atoms: N_19  and  C_20
REMARK    6  A    between atoms: C_20  and  C_21
REMARK    7  A    between atoms: C_21  and  O_23
REMARK                            x       y       z     vdW  Elec       q    Type
REMARK                         _______ _______ _______ _____ _____    ______ ____
ROOT
ATOM      1  N   UNL     1      -0.193  10.759  18.987  0.00  0.00    +0.000 N 
ATOM      2  C   UNL     1      -0.554  11.332  20.197  0.00  0.00    +0.000 C 
ATOM      3  O   UNL     1       0.187  11.501  21.148  0.00  0.00    +0.000 OA
ATOM      4  C   UNL     1      -2.010  11.699  20.063  0.00  0.00    +0.000 C 
ATOM      5  C   UNL     1      -2.704  12.371  20.993  0.00  0.00    +0.000 C 
ATOM      6  S   UNL     1      -2.221  12.648  22.629  0.00  0.00    +0.000 S 
ATOM      7  C   UNL     1      -3.882  12.763  23.181  0.00  0.00    +0.000 C 
ATOM      8  S   UNL     1      -4.307  12.658  24.785  0.00  0.00    +0.000 S 
ATOM      9  N   UNL     1      -4.720  12.885  22.094  0.00  0.00    +0.000 N 
ATOM     10  C   UNL     1      -4.098  12.878  20.859  0.00  0.00    +0.000 C 
ATOM     11  O   UNL     1      -4.584  13.306  19.825  0.00  0.00    +0.000 OA
ATOM     12  C   UNL     1      -2.452  11.167  18.764  0.00  0.00    +0.000 A 
ATOM     13  C   UNL     1      -3.702  11.026  18.182  0.00  0.00    +0.000 A 
ATOM     14  C   UNL     1      -3.806  10.390  16.946  0.00  0.00    +0.000 A 
ATOM     15  C   UNL     1      -2.661   9.897  16.306  0.00  0.00    +0.000 A 
ATOM     16  C   UNL     1      -1.398  10.015  16.901  0.00  0.00    +0.000 A 
ATOM     17  C   UNL     1      -1.314  10.627  18.141  0.00  0.00    +0.000 A 
ENDROOT
BRANCH   1  18
ATOM     18  C   UNL     1       1.191  10.562  18.609  0.00  0.00    +0.000 C 
BRANCH  18  20
ATOM     19  N   UNL     1       1.712   8.299  19.505  0.00  0.00    +0.000 N 
ATOM     20  C   UNL     1       1.709   9.131  18.392  0.00  0.00    +0.000 C 
ATOM     21  O   UNL     1       2.209   8.860  17.299  0.00  0.00    +0.000 OA
ATOM     22  H   UNL     1       1.370   8.695  20.378  0.00  0.00    +0.000 HD
BRANCH  19  28
ATOM     23  C   UNL     1       4.640   4.808  17.517  0.00  0.00    +0.000 C 
ATOM     24  C   UNL     1       3.663   5.242  18.574  0.00  0.00    +0.000 A 
ATOM     25  C   UNL     1       3.292   4.350  19.584  0.00  0.00    +0.000 A 
ATOM     26  C   UNL     1       2.394   4.751  20.568  0.00  0.00    +0.000 A 
ATOM     27  C   UNL     1       1.871   6.047  20.557  0.00  0.00    +0.000 A 
ATOM     28  C   UNL     1       2.220   6.967  19.561  0.00  0.00    +0.000 A 
ATOM     29  C   UNL     1       3.121   6.546  18.567  0.00  0.00    +0.000 A 
ENDBRANCH  19  28
ENDBRANCH  18  20
ENDBRANCH   1  18
BRANCH   9  30
ATOM     30  C   UNL     1      -6.127  13.303  22.184  0.00  0.00    +0.000 C 
BRANCH  30  31
ATOM     31  C   UNL     1      -7.153  12.181  22.091  0.00  0.00    +0.000 C 
ATOM     32  O   UNL     1      -7.557  11.746  21.019  0.00  0.00    +0.000 OA
BRANCH  31  33
ATOM     33  O   UNL     1      -7.577  11.667  23.263  0.00  0.00    +0.000 OA
ATOM     34  H   UNL     1      -8.511  11.836  23.474  0.00  0.00    +0.000 HD
ENDBRANCH  31  33
ENDBRANCH  30  31
ENDBRANCH   9  30
TORSDOF 6
ENDMDL
MODEL 5
REMARK VINA RESULT:      -7.6      1.408      1.666
REMARK  Name = 
REMARK  7 active torsions:
REMARK  status: ('A' for Active; 'I' for Inactive)
REMARK    1  A    between atoms: C_1  and  C_2
REMARK    2  A    between atoms: C_6  and  N_7
REMARK    3  A    between atoms: C_8  and  C_10
REMARK    4  A    between atoms: C_10  and  N_11
REMARK    5  A    between atoms: N_19  and  C_20
REMARK    6  A    between atoms: C_20  and  C_21
REMARK    7  A    between atoms: C_21  and  O_23
REMARK                            x       y       z     vdW  Elec       q    Type
REMARK                         _______ _______ _______ _____ _____    ______ ____
ROOT
ATOM      1  N   UNL     1      -0.155  10.687  19.134  0.00  0.00    +0.000 N 
ATOM      2  C   UNL     1      -0.528  11.253  20.344  0.00  0.00    +0.000 C 
ATOM      3  O   UNL     1       0.197  11.394  21.311  0.00  0.00    +0.000 OA
ATOM      4  C   UNL     1      -1.971  11.657  20.185  0.00  0.00    +0.000 C 
ATOM      5  C   UNL     1      -2.669  12.334  21.109  0.00  0.00    +0.000 C 
ATOM      6  S   UNL     1      -2.213  12.580  22.757  0.00  0.00    +0.000 S 
ATOM      7  C   UNL     1      -3.883  12.728  23.277  0.00  0.00    +0.000 C 
ATOM      8  S   UNL     1      -4.343  12.614  24.870  0.00  0.00    +0.000 S 
ATOM      9  N   UNL     1      -4.695  12.884  22.174  0.00  0.00    +0.000 N 
ATOM     10  C   UNL     1      -4.047  12.876  20.953  0.00  0.00    +0.000 C 
ATOM     11  O   UNL     1      -4.501  13.329  19.914  0.00  0.00    +0.000 OA
ATOM     12  C   UNL     1      -2.398  11.152  18.871  0.00  0.00    +0.000 A 
ATOM     13  C   UNL     1      -3.640  11.048  18.261  0.00  0.00    +0.000 A 
ATOM     14  C   UNL     1      -3.732  10.430  17.015  0.00  0.00    +0.000 A 
ATOM     15  C   UNL     1      -2.587   9.917  16.393  0.00  0.00    +0.000 A 
ATOM     16  C   UNL     1      -1.333   9.997  17.015  0.00  0.00    +0.000 A 
ATOM     17  C   UNL     1      -1.261  10.593  18.264  0.00  0.00    +0.000 A 
ENDROOT
BRANCH   1  18
ATOM     18  C   UNL     1       1.231  10.462  18.782  0.00  0.00    +0.000 C 
BRANCH  18  20
ATOM     19  N   UNL     1       1.909   8.204  19.582  0.00  0.00    +0.000 N 
ATOM     20  C   UNL     1       1.701   9.029  18.483  0.00  0.00    +0.000 C 
ATOM     21  O   UNL     1       1.993   8.751  17.319  0.00  0.00    +0.000 OA
ATOM     22  H   UNL     1       1.732   8.605  20.500  0.00  0.00    +0.000 HD
BRANCH  19  28
ATOM     23  C   UNL     1       1.636   3.537  21.272  0.00  0.00    +0.000 C 
ATOM     24  C   UNL     1       2.287   4.568  20.393  0.00  0.00    +0.000 A 
ATOM     25  C   UNL     1       3.353   4.202  19.567  0.00  0.00    +0.000 A 
ATOM     26  C   UNL     1       3.952   5.152  18.746  0.00  0.00    +0.000 A 
ATOM     27  C   UNL     1       3.485   6.469  18.738  0.00  0.00    +0.000 A 
ATOM     28  C   UNL     1       2.420   6.872  19.552  0.00  0.00    +0.000 A 
ATOM     29  C   UNL     1       1.829   5.904  20.384  0.00  0.00    +0.000 A 
ENDBRANCH  19  28
ENDBRANCH  18  20
ENDBRANCH   1  18
BRANCH   9  30
ATOM     30  C   UNL     1      -6.092  13.334  22.240  0.00  0.00    +0.000 C 
BRANCH  30  31
ATOM     31  C   UNL     1      -6.292  14.830  22.450  0.00  0.00    +0.000 C 
ATOM     32  O   UNL     1      -6.531  15.314  23.550  0.00  0.00    +0.000 OA
BRANCH  31  33
ATOM     33  O   UNL     1      -6.162  15.605  21.354  0.00  0.00    +0.000 OA
ATOM     34  H   UNL     1      -6.199  15.131  20.506  0.00  0.00    +0.000 HD
ENDBRANCH  31  33
ENDBRANCH  30  31
ENDBRANCH   9  30
TORSDOF 6
ENDMDL
MODEL 6
REMARK VINA RESULT:      -7.6      2.945      3.360
REMARK  Name = 
REMARK  7 active torsions:
REMARK  status: ('A' for Active; 'I' for Inactive)
REMARK    1  A    between atoms: C_1  and  C_2
REMARK    2  A    between atoms: C_6  and  N_7
REMARK    3  A    between atoms: C_8  and  C_10
REMARK    4  A    between atoms: C_10  and  N_11
REMARK    5  A    between atoms: N_19  and  C_20
REMARK    6  A    between atoms: C_20  and  C_21
REMARK    7  A    between atoms: C_21  and  O_23
REMARK                            x       y       z     vdW  Elec       q    Type
REMARK                         _______ _______ _______ _____ _____    ______ ____
ROOT
ATOM      1  N   UNL     1       0.198  10.801  21.579  0.00  0.00    +0.000 N 
ATOM      2  C   UNL     1      -0.884  11.064  22.405  0.00  0.00    +0.000 C 
ATOM      3  O   UNL     1      -1.291  10.335  23.290  0.00  0.00    +0.000 OA
ATOM      4  C   UNL     1      -1.407  12.414  21.985  0.00  0.00    +0.000 C 
ATOM      5  C   UNL     1      -2.395  13.067  22.615  0.00  0.00    +0.000 C 
ATOM      6  S   UNL     1      -3.485  12.397  23.775  0.00  0.00    +0.000 S 
ATOM      7  C   UNL     1      -4.743  13.554  23.374  0.00  0.00    +0.000 C 
ATOM      8  S   UNL     1      -6.331  13.349  23.821  0.00  0.00    +0.000 S 
ATOM      9  N   UNL     1      -4.207  14.570  22.612  0.00  0.00    +0.000 N 
ATOM     10  C   UNL     1      -2.857  14.453  22.331  0.00  0.00    +0.000 C 
ATOM     11  O   UNL     1      -2.131  15.371  21.986  0.00  0.00    +0.000 OA
ATOM     12  C   UNL     1      -0.633  12.803  20.795  0.00  0.00    +0.000 A 
ATOM     13  C   UNL     1      -0.782  13.826  19.871  0.00  0.00    +0.000 A 
ATOM     14  C   UNL     1       0.082  13.882  18.778  0.00  0.00    +0.000 A 
ATOM     15  C   UNL     1       1.082  12.914  18.617  0.00  0.00    +0.000 A 
ATOM     16  C   UNL     1       1.221  11.864  19.535  0.00  0.00    +0.000 A 
ATOM     17  C   UNL     1       0.339  11.808  20.602  0.00  0.00    +0.000 A 
ENDROOT
BRANCH   1  18
ATOM     18  C   UNL     1       1.155   9.754  21.871  0.00  0.00    +0.000 C 
BRANCH  18  20
ATOM     19  N   UNL     1       2.018   7.755  20.664  0.00  0.00    +0.000 N 
ATOM     20  C   UNL     1       0.927   8.351  21.286  0.00  0.00    +0.000 C 
ATOM     21  O   UNL     1      -0.223   7.909  21.281  0.00  0.00    +0.000 OA
ATOM     22  H   UNL     1       2.885   8.287  20.644  0.00  0.00    +0.000 HD
BRANCH  19  28
ATOM     23  C   UNL     1       1.334   2.836  20.867  0.00  0.00    +0.000 C 
ATOM     24  C   UNL     1       1.687   4.070  20.086  0.00  0.00    +0.000 A 
ATOM     25  C   UNL     1       1.991   3.968  18.726  0.00  0.00    +0.000 A 
ATOM     26  C   UNL     1       2.310   5.110  17.998  0.00  0.00    +0.000 A 
ATOM     27  C   UNL     1       2.318   6.361  18.622  0.00  0.00    +0.000 A 
ATOM     28  C   UNL     1       2.020   6.502  19.982  0.00  0.00    +0.000 A 
ATOM     29  C   UNL     1       1.708   5.338  20.708  0.00  0.00    +0.000 A 
ENDBRANCH  19  28
ENDBRANCH  18  20
ENDBRANCH   1  18
BRANCH   9  30
ATOM     30  C   UNL     1      -4.883  15.848  22.353  0.00  0.00    +0.000 C 
BRANCH  30  31
ATOM     31  C   UNL     1      -4.845  16.856  23.495  0.00  0.00    +0.000 C 
ATOM     32  O   UNL     1      -5.792  17.027  24.253  0.00  0.00    +0.000 OA
BRANCH  31  33
ATOM     33  O   UNL     1      -3.691  17.536  23.646  0.00  0.00    +0.000 OA
ATOM     34  H   UNL     1      -3.762  18.360  24.157  0.00  0.00    +0.000 HD
ENDBRANCH  31  33
ENDBRANCH  30  31
ENDBRANCH   9  30
TORSDOF 6
ENDMDL
MODEL 7
REMARK VINA RESULT:      -7.6      0.953      1.211
REMARK  Name = 
REMARK  7 active torsions:
REMARK  status: ('A' for Active; 'I' for Inactive)
REMARK    1  A    between atoms: C_1  and  C_2
REMARK    2  A    between atoms: C_6  and  N_7
REMARK    3  A    between atoms: C_8  and  C_10
REMARK    4  A    between atoms: C_10  and  N_11
REMARK    5  A    between atoms: N_19  and  C_20
REMARK    6  A    between atoms: C_20  and  C_21
REMARK    7  A    between atoms: C_21  and  O_23
REMARK                            x       y       z     vdW  Elec       q    Type
REMARK                         _______ _______ _______ _____ _____    ______ ____
ROOT
ATOM      1  N   UNL     1      -0.254  10.732  19.098  0.00  0.00    +0.000 N 
ATOM      2  C   UNL     1      -0.613  11.292  20.314  0.00  0.00    +0.000 C 
ATOM      3  O   UNL     1       0.118  11.418  21.279  0.00  0.00    +0.000 OA
ATOM      4  C   UNL     1      -2.054  11.712  20.168  0.00  0.00    +0.000 C 
ATOM      5  C   UNL     1      -2.739  12.388  21.102  0.00  0.00    +0.000 C 
ATOM      6  S   UNL     1      -2.271  12.616  22.749  0.00  0.00    +0.000 S 
ATOM      7  C   UNL     1      -3.936  12.776  23.280  0.00  0.00    +0.000 C 
ATOM      8  S   UNL     1      -4.388  12.654  24.875  0.00  0.00    +0.000 S 
ATOM      9  N   UNL     1      -4.753  12.949  22.184  0.00  0.00    +0.000 N 
ATOM     10  C   UNL     1      -4.112  12.945  20.958  0.00  0.00    +0.000 C 
ATOM     11  O   UNL     1      -4.569  13.410  19.926  0.00  0.00    +0.000 OA
ATOM     12  C   UNL     1      -2.494  11.221  18.852  0.00  0.00    +0.000 A 
ATOM     13  C   UNL     1      -3.740  11.134  18.250  0.00  0.00    +0.000 A 
ATOM     14  C   UNL     1      -3.847  10.527  17.000  0.00  0.00    +0.000 A 
ATOM     15  C   UNL     1      -2.710  10.009  16.366  0.00  0.00    +0.000 A 
ATOM     16  C   UNL     1      -1.452  10.071  16.981  0.00  0.00    +0.000 A 
ATOM     17  C   UNL     1      -1.366  10.656  18.234  0.00  0.00    +0.000 A 
ENDROOT
BRANCH   1  18
ATOM     18  C   UNL     1       1.128  10.496  18.736  0.00  0.00    +0.000 C 
BRANCH  18  20
ATOM     19  N   UNL     1       2.333   8.519  17.822  0.00  0.00    +0.000 N 
ATOM     20  C   UNL     1       1.720   9.091  18.930  0.00  0.00    +0.000 C 
ATOM     21  O   UNL     1       1.497   8.515  19.996  0.00  0.00    +0.000 OA
ATOM     22  H   UNL     1       2.346   9.070  16.966  0.00  0.00    +0.000 HD
BRANCH  19  28
ATOM     23  C   UNL     1       1.584   3.616  18.153  0.00  0.00    +0.000 C 
ATOM     24  C   UNL     1       2.505   4.780  17.913  0.00  0.00    +0.000 A 
ATOM     25  C   UNL     1       3.849   4.550  17.608  0.00  0.00    +0.000 A 
ATOM     26  C   UNL     1       4.702   5.625  17.377  0.00  0.00    +0.000 A 
ATOM     27  C   UNL     1       4.215   6.934  17.440  0.00  0.00    +0.000 A 
ATOM     28  C   UNL     1       2.876   7.202  17.743  0.00  0.00    +0.000 A 
ATOM     29  C   UNL     1       2.027   6.106  17.984  0.00  0.00    +0.000 A 
ENDBRANCH  19  28
ENDBRANCH  18  20
ENDBRANCH   1  18
BRANCH   9  30
ATOM     30  C   UNL     1      -6.145  13.413  22.262  0.00  0.00    +0.000 C 
BRANCH  30  31
ATOM     31  C   UNL     1      -6.329  14.909  22.478  0.00  0.00    +0.000 C 
ATOM     32  O   UNL     1      -6.521  15.396  23.586  0.00  0.00    +0.000 OA
BRANCH  31  33
ATOM     33  O   UNL     1      -6.240  15.683  21.376  0.00  0.00    +0.000 OA
ATOM     34  H   UNL     1      -5.533  15.437  20.756  0.00  0.00    +0.000 HD
ENDBRANCH  31  33
ENDBRANCH  30  31
ENDBRANCH   9  30
TORSDOF 6
ENDMDL
MODEL 8
REMARK VINA RESULT:      -7.5      2.784      3.186
REMARK  Name = 
REMARK  7 active torsions:
REMARK  status: ('A' for Active; 'I' for Inactive)
REMARK    1  A    between atoms: C_1  and  C_2
REMARK    2  A    between atoms: C_6  and  N_7
REMARK    3  A    between atoms: C_8  and  C_10
REMARK    4  A    between atoms: C_10  and  N_11
REMARK    5  A    between atoms: N_19  and  C_20
REMARK    6  A    between atoms: C_20  and  C_21
REMARK    7  A    between atoms: C_21  and  O_23
REMARK                            x       y       z     vdW  Elec       q    Type
REMARK                         _______ _______ _______ _____ _____    ______ ____
ROOT
ATOM      1  N   UNL     1       0.310  10.624  21.534  0.00  0.00    +0.000 N 
ATOM      2  C   UNL     1      -0.763  10.898  22.368  0.00  0.00    +0.000 C 
ATOM      3  O   UNL     1      -1.168  10.176  23.260  0.00  0.00    +0.000 OA
ATOM      4  C   UNL     1      -1.281  12.250  21.947  0.00  0.00    +0.000 C 
ATOM      5  C   UNL     1      -2.258  12.912  22.583  0.00  0.00    +0.000 C 
ATOM      6  S   UNL     1      -3.343  12.255  23.756  0.00  0.00    +0.000 S 
ATOM      7  C   UNL     1      -4.596  13.419  23.361  0.00  0.00    +0.000 C 
ATOM      8  S   UNL     1      -6.182  13.227  23.822  0.00  0.00    +0.000 S 
ATOM      9  N   UNL     1      -4.060  14.427  22.589  0.00  0.00    +0.000 N 
ATOM     10  C   UNL     1      -2.714  14.300  22.296  0.00  0.00    +0.000 C 
ATOM     11  O   UNL     1      -1.985  15.211  21.941  0.00  0.00    +0.000 OA
ATOM     12  C   UNL     1      -0.515  12.629  20.749  0.00  0.00    +0.000 A 
ATOM     13  C   UNL     1      -0.665  13.648  19.821  0.00  0.00    +0.000 A 
ATOM     14  C   UNL     1       0.190  13.693  18.721  0.00  0.00    +0.000 A 
ATOM     15  C   UNL     1       1.181  12.718  18.555  0.00  0.00    +0.000 A 
ATOM     16  C   UNL     1       1.321  11.671  19.476  0.00  0.00    +0.000 A 
ATOM     17  C   UNL     1       0.449  11.625  20.552  0.00  0.00    +0.000 A 
ENDROOT
BRANCH   1  18
ATOM     18  C   UNL     1       1.262   9.572  21.822  0.00  0.00    +0.000 C 
BRANCH  18  20
ATOM     19  N   UNL     1       2.097   7.512  20.701  0.00  0.00    +0.000 N 
ATOM     20  C   UNL     1       1.006   8.162  21.266  0.00  0.00    +0.000 C 
ATOM     21  O   UNL     1      -0.158   7.759  21.232  0.00  0.00    +0.000 OA
ATOM     22  H   UNL     1       2.983   8.014  20.699  0.00  0.00    +0.000 HD
BRANCH  19  28
ATOM     23  C   UNL     1       1.476   2.594  21.066  0.00  0.00    +0.000 C 
ATOM     24  C   UNL     1       1.779   3.810  20.237  0.00  0.00    +0.000 A 
ATOM     25  C   UNL     1       2.017   3.675  18.867  0.00  0.00    +0.000 A 
ATOM     26  C   UNL     1       2.289   4.800  18.095  0.00  0.00    +0.000 A 
ATOM     27  C   UNL     1       2.314   6.067  18.684  0.00  0.00    +0.000 A 
ATOM     28  C   UNL     1       2.080   6.241  20.053  0.00  0.00    +0.000 A 
ATOM     29  C   UNL     1       1.816   5.094  20.824  0.00  0.00    +0.000 A 
ENDBRANCH  19  28
ENDBRANCH  18  20
ENDBRANCH   1  18
BRANCH   9  30
ATOM     30  C   UNL     1      -4.730  15.709  22.331  0.00  0.00    +0.000 C 
BRANCH  30  31
ATOM     31  C   UNL     1      -5.528  15.784  21.035  0.00  0.00    +0.000 C 
ATOM     32  O   UNL     1      -6.505  16.512  20.905  0.00  0.00    +0.000 OA
BRANCH  31  33
ATOM     33  O   UNL     1      -5.080  15.020  20.018  0.00  0.00    +0.000 OA
ATOM     34  H   UNL     1      -5.685  14.946  19.260  0.00  0.00    +0.000 HD
ENDBRANCH  31  33
ENDBRANCH  30  31
ENDBRANCH   9  30
TORSDOF 6
ENDMDL
MODEL 9
REMARK VINA RESULT:      -7.5      1.035      1.591
REMARK  Name = 
REMARK  7 active torsions:
REMARK  status: ('A' for Active; 'I' for Inactive)
REMARK    1  A    between atoms: C_1  and  C_2
REMARK    2  A    between atoms: C_6  and  N_7
REMARK    3  A    between atoms: C_8  and  C_10
REMARK    4  A    between atoms: C_10  and  N_11
REMARK    5  A    between atoms: N_19  and  C_20
REMARK    6  A    between atoms: C_20  and  C_21
REMARK    7  A    between atoms: C_21  and  O_23
REMARK                            x       y       z     vdW  Elec       q    Type
REMARK                         _______ _______ _______ _____ _____    ______ ____
ROOT
ATOM      1  N   UNL     1       0.352  10.001  19.912  0.00  0.00    +0.000 N 
ATOM      2  C   UNL     1      -0.116  10.598  21.073  0.00  0.00    +0.000 C 
ATOM      3  O   UNL     1       0.434  10.562  22.158  0.00  0.00    +0.000 OA
ATOM      4  C   UNL     1      -1.400  11.290  20.694  0.00  0.00    +0.000 C 
ATOM      5  C   UNL     1      -2.109  12.068  21.525  0.00  0.00    +0.000 C 
ATOM      6  S   UNL     1      -1.921  12.170  23.239  0.00  0.00    +0.000 S 
ATOM      7  C   UNL     1      -3.597  12.638  23.472  0.00  0.00    +0.000 C 
ATOM      8  S   UNL     1      -4.352  12.575  24.951  0.00  0.00    +0.000 S 
ATOM      9  N   UNL     1      -4.149  12.986  22.258  0.00  0.00    +0.000 N 
ATOM     10  C   UNL     1      -3.304  12.882  21.168  0.00  0.00    +0.000 C 
ATOM     11  O   UNL     1      -3.466  13.446  20.098  0.00  0.00    +0.000 OA
ATOM     12  C   UNL     1      -1.672  10.918  19.296  0.00  0.00    +0.000 A 
ATOM     13  C   UNL     1      -2.778  11.084  18.476  0.00  0.00    +0.000 A 
ATOM     14  C   UNL     1      -2.761  10.533  17.196  0.00  0.00    +0.000 A 
ATOM     15  C   UNL     1      -1.643   9.817  16.749  0.00  0.00    +0.000 A 
ATOM     16  C   UNL     1      -0.532   9.625  17.582  0.00  0.00    +0.000 A 
ATOM     17  C   UNL     1      -0.574  10.157  18.860  0.00  0.00    +0.000 A 
ENDROOT
BRANCH   1  18
ATOM     18  C   UNL     1       1.709   9.510  19.790  0.00  0.00    +0.000 C 
BRANCH  18  20
ATOM     19  N   UNL     1       2.386   7.539  18.429  0.00  0.00    +0.000 N 
ATOM     20  C   UNL     1       1.946   7.997  19.665  0.00  0.00    +0.000 C 
ATOM     21  O   UNL     1       1.604   7.281  20.608  0.00  0.00    +0.000 OA
ATOM     22  H   UNL     1       2.522   8.237  17.700  0.00  0.00    +0.000 HD
BRANCH  19  28
ATOM     23  C   UNL     1       5.465   4.068  16.646  0.00  0.00    +0.000 C 
ATOM     24  C   UNL     1       4.113   4.465  17.171  0.00  0.00    +0.000 A 
ATOM     25  C   UNL     1       3.108   3.503  17.296  0.00  0.00    +0.000 A 
ATOM     26  C   UNL     1       1.858   3.865  17.789  0.00  0.00    +0.000 A 
ATOM     27  C   UNL     1       1.609   5.187  18.169  0.00  0.00    +0.000 A 
ATOM     28  C   UNL     1       2.592   6.177  18.057  0.00  0.00    +0.000 A 
ATOM     29  C   UNL     1       3.848   5.799  17.549  0.00  0.00    +0.000 A 
ENDBRANCH  19  28
ENDBRANCH  18  20
ENDBRANCH   1  18
BRANCH   9  30
ATOM     30  C   UNL     1      -5.420  13.708  22.111  0.00  0.00    +0.000 C 
BRANCH  30  31
ATOM     31  C   UNL     1      -6.611  12.861  21.679  0.00  0.00    +0.000 C 
ATOM     32  O   UNL     1      -6.524  11.655  21.483  0.00  0.00    +0.000 OA
BRANCH  31  33
ATOM     33  O   UNL     1      -7.786  13.511  21.550  0.00  0.00    +0.000 OA
ATOM     34  H   UNL     1      -8.273  13.324  20.730  0.00  0.00    +0.000 HD
ENDBRANCH  31  33
ENDBRANCH  30  31
ENDBRANCH   9  30
TORSDOF 6
ENDMDL
