MODEL 1
REMARK VINA RESULT:      -8.7      0.000      0.000
REMARK  Name = 
REMARK  8 active torsions:
REMARK  status: ('A' for Active; 'I' for Inactive)
REMARK    1  A    between atoms: C_1  and  C_2
REMARK    2  A    between atoms: C_5  and  C_6
REMARK    3  A    between atoms: N_8  and  C_9
REMARK    4  A    between atoms: C_14  and  C_15
REMARK    5  A    between atoms: N_17  and  N_18
REMARK    6  A    between atoms: C_19  and  C_20
REMARK    7  A    between atoms: C_23  and  O_24
REMARK    8  A    between atoms: C_25  and  O_26
REMARK                            x       y       z     vdW  Elec       q    Type
REMARK                         _______ _______ _______ _____ _____    ______ ____
ROOT
ATOM      1  C   UNL     1       3.282   3.750  19.412  0.00  0.00    +0.000 A 
ATOM      2  C   UNL     1       3.389   2.489  20.019  0.00  0.00    +0.000 A 
ATOM      3  C   UNL     1       2.778   2.239  21.249  0.00  0.00    +0.000 A 
ATOM      4  C   UNL     1       2.057   3.245  21.887  0.00  0.00    +0.000 A 
ATOM      5  C   UNL     1       1.926   4.500  21.287  0.00  0.00    +0.000 A 
ATOM      6  C   UNL     1       2.526   4.757  20.043  0.00  0.00    +0.000 A 
ENDROOT
BRANCH   1   9
ATOM      7  C   UNL     1       5.300   4.252  18.113  0.00  0.00    +0.000 C 
ATOM      8  O   UNL     1       6.057   4.226  19.086  0.00  0.00    +0.000 OA
ATOM      9  N   UNL     1       3.945   4.001  18.184  0.00  0.00    +0.000 N 
ATOM     10  H   UNL     1       3.501   3.588  17.359  0.00  0.00    +0.000 HD
BRANCH   7  15
ATOM     11  C   UNL     1       7.430   5.038  12.764  0.00  0.00    +0.000 C 
ATOM     12  C   UNL     1       6.895   4.836  14.151  0.00  0.00    +0.000 A 
ATOM     13  C   UNL     1       5.620   4.299  14.351  0.00  0.00    +0.000 A 
ATOM     14  C   UNL     1       5.123   4.132  15.644  0.00  0.00    +0.000 A 
ATOM     15  C   UNL     1       5.887   4.497  16.762  0.00  0.00    +0.000 A 
ATOM     16  C   UNL     1       7.169   5.026  16.566  0.00  0.00    +0.000 A 
ATOM     17  C   UNL     1       7.665   5.194  15.266  0.00  0.00    +0.000 A 
ENDBRANCH   7  15
ENDBRANCH   1   9
BRANCH   6  18
ATOM     18  C   UNL     1       2.296   6.055  19.347  0.00  0.00    +0.000 C 
ATOM     19  O   UNL     1       2.205   6.059  18.118  0.00  0.00    +0.000 OA
ATOM     20  N   UNL     1       2.128   7.165  20.172  0.00  0.00    +0.000 N 
ATOM     21  H   UNL     1       2.086   7.064  21.180  0.00  0.00    +0.000 HD
BRANCH  20  22
ATOM     22  N   UNL     1       1.797   8.360  19.613  0.00  0.00    +0.000 NA
ATOM     23  C   UNL     1       0.980   9.124  20.268  0.00  0.00    +0.000 C 
BRANCH  23  24
ATOM     24  C   UNL     1       0.563  10.434  19.721  0.00  0.00    +0.000 A 
ATOM     25  C   UNL     1       1.086  11.618  20.271  0.00  0.00    +0.000 A 
ATOM     26  C   UNL     1       0.692  12.864  19.776  0.00  0.00    +0.000 A 
ATOM     27  C   UNL     1      -0.222  12.919  18.733  0.00  0.00    +0.000 A 
ATOM     28  C   UNL     1      -0.735  11.745  18.184  0.00  0.00    +0.000 A 
ATOM     29  C   UNL     1      -0.351  10.497  18.664  0.00  0.00    +0.000 A 
BRANCH  27  30
ATOM     30  O   UNL     1      -0.652  14.110  18.215  0.00  0.00    +0.000 OA
ATOM     31  H   UNL     1       0.131  14.636  17.974  0.00  0.00    +0.000 HD
ENDBRANCH  27  30
BRANCH  28  32
ATOM     32  O   UNL     1      -1.636  11.817  17.159  0.00  0.00    +0.000 OA
ATOM     33  H   UNL     1      -1.721  12.776  16.971  0.00  0.00    +0.000 HD
ENDBRANCH  28  32
ENDBRANCH  23  24
ENDBRANCH  20  22
ENDBRANCH   6  18
TORSDOF 7
ENDMDL
MODEL 2
REMARK VINA RESULT:      -8.5      0.706      1.053
REMARK  Name = 
REMARK  8 active torsions:
REMARK  status: ('A' for Active; 'I' for Inactive)
REMARK    1  A    between atoms: C_1  and  C_2
REMARK    2  A    between atoms: C_5  and  C_6
REMARK    3  A    between atoms: N_8  and  C_9
REMARK    4  A    between atoms: C_14  and  C_15
REMARK    5  A    between atoms: N_17  and  N_18
REMARK    6  A    between atoms: C_19  and  C_20
REMARK    7  A    between atoms: C_23  and  O_24
REMARK    8  A    between atoms: C_25  and  O_26
REMARK                            x       y       z     vdW  Elec       q    Type
REMARK                         _______ _______ _______ _____ _____    ______ ____
ROOT
ATOM      1  C   UNL     1       3.405   3.671  19.438  0.00  0.00    +0.000 A 
ATOM      2  C   UNL     1       3.577   2.434  20.078  0.00  0.00    +0.000 A 
ATOM      3  C   UNL     1       2.993   2.190  21.322  0.00  0.00    +0.000 A 
ATOM      4  C   UNL     1       2.233   3.179  21.942  0.00  0.00    +0.000 A 
ATOM      5  C   UNL     1       2.038   4.410  21.309  0.00  0.00    +0.000 A 
ATOM      6  C   UNL     1       2.611   4.660  20.052  0.00  0.00    +0.000 A 
ENDROOT
BRANCH   1   9
ATOM      7  C   UNL     1       5.376   4.255  18.102  0.00  0.00    +0.000 C 
ATOM      8  O   UNL     1       6.140   4.315  19.069  0.00  0.00    +0.000 OA
ATOM      9  N   UNL     1       4.042   3.918  18.196  0.00  0.00    +0.000 N 
ATOM     10  H   UNL     1       3.620   3.446  17.391  0.00  0.00    +0.000 HD
BRANCH   7  15
ATOM     11  C   UNL     1       7.402   4.984  12.705  0.00  0.00    +0.000 C 
ATOM     12  C   UNL     1       6.894   4.797  14.105  0.00  0.00    +0.000 A 
ATOM     13  C   UNL     1       5.632   4.243  14.335  0.00  0.00    +0.000 A 
ATOM     14  C   UNL     1       5.160   4.090  15.639  0.00  0.00    +0.000 A 
ATOM     15  C   UNL     1       5.937   4.486  16.738  0.00  0.00    +0.000 A 
ATOM     16  C   UNL     1       7.206   5.031  16.512  0.00  0.00    +0.000 A 
ATOM     17  C   UNL     1       7.677   5.185  15.201  0.00  0.00    +0.000 A 
ENDBRANCH   7  15
ENDBRANCH   1   9
BRANCH   6  18
ATOM     18  C   UNL     1       2.312   5.925  19.324  0.00  0.00    +0.000 C 
ATOM     19  O   UNL     1       2.089   5.874  18.113  0.00  0.00    +0.000 OA
ATOM     20  N   UNL     1       2.240   7.074  20.108  0.00  0.00    +0.000 N 
ATOM     21  H   UNL     1       2.307   7.022  21.119  0.00  0.00    +0.000 HD
BRANCH  20  22
ATOM     22  N   UNL     1       1.857   8.246  19.532  0.00  0.00    +0.000 NA
ATOM     23  C   UNL     1       1.046   9.006  20.198  0.00  0.00    +0.000 C 
BRANCH  23  24
ATOM     24  C   UNL     1       0.573  10.290  19.634  0.00  0.00    +0.000 A 
ATOM     25  C   UNL     1      -0.782  10.647  19.750  0.00  0.00    +0.000 A 
ATOM     26  C   UNL     1      -1.247  11.849  19.210  0.00  0.00    +0.000 A 
ATOM     27  C   UNL     1      -0.354  12.688  18.560  0.00  0.00    +0.000 A 
ATOM     28  C   UNL     1       0.991  12.336  18.450  0.00  0.00    +0.000 A 
ATOM     29  C   UNL     1       1.470  11.144  18.984  0.00  0.00    +0.000 A 
BRANCH  27  30
ATOM     30  O   UNL     1      -0.753  13.872  18.003  0.00  0.00    +0.000 OA
ATOM     31  H   UNL     1       0.038  14.334  17.674  0.00  0.00    +0.000 HD
ENDBRANCH  27  30
BRANCH  28  32
ATOM     32  O   UNL     1       1.857  13.173  17.804  0.00  0.00    +0.000 OA
ATOM     33  H   UNL     1       2.684  12.652  17.715  0.00  0.00    +0.000 HD
ENDBRANCH  28  32
ENDBRANCH  23  24
ENDBRANCH  20  22
ENDBRANCH   6  18
TORSDOF 7
ENDMDL
MODEL 3
REMARK VINA RESULT:      -8.5      5.179      7.934
REMARK  Name = 
REMARK  8 active torsions:
REMARK  status: ('A' for Active; 'I' for Inactive)
REMARK    1  A    between atoms: C_1  and  C_2
REMARK    2  A    between atoms: C_5  and  C_6
REMARK    3  A    between atoms: N_8  and  C_9
REMARK    4  A    between atoms: C_14  and  C_15
REMARK    5  A    between atoms: N_17  and  N_18
REMARK    6  A    between atoms: C_19  and  C_20
REMARK    7  A    between atoms: C_23  and  O_24
REMARK    8  A    between atoms: C_25  and  O_26
REMARK                            x       y       z     vdW  Elec       q    Type
REMARK                         _______ _______ _______ _____ _____    ______ ____
ROOT
ATOM      1  C   UNL     1       5.248   5.726  16.742  0.00  0.00    +0.000 A 
ATOM      2  C   UNL     1       4.649   4.743  15.939  0.00  0.00    +0.000 A 
ATOM      3  C   UNL     1       5.432   3.822  15.241  0.00  0.00    +0.000 A 
ATOM      4  C   UNL     1       6.821   3.875  15.334  0.00  0.00    +0.000 A 
ATOM      5  C   UNL     1       7.431   4.837  16.143  0.00  0.00    +0.000 A 
ATOM      6  C   UNL     1       6.651   5.759  16.860  0.00  0.00    +0.000 A 
ENDROOT
BRANCH   1   9
ATOM      7  C   UNL     1       3.203   6.365  17.936  0.00  0.00    +0.000 C 
ATOM      8  O   UNL     1       2.721   5.230  17.927  0.00  0.00    +0.000 OA
ATOM      9  N   UNL     1       4.439   6.681  17.410  0.00  0.00    +0.000 N 
ATOM     10  H   UNL     1       4.950   7.454  17.844  0.00  0.00    +0.000 HD
BRANCH   7  15
ATOM     11  C   UNL     1       0.186  10.440  20.774  0.00  0.00    +0.000 C 
ATOM     12  C   UNL     1       0.960   9.393  20.027  0.00  0.00    +0.000 A 
ATOM     13  C   UNL     1       1.394   8.233  20.674  0.00  0.00    +0.000 A 
ATOM     14  C   UNL     1       2.130   7.274  19.976  0.00  0.00    +0.000 A 
ATOM     15  C   UNL     1       2.446   7.454  18.622  0.00  0.00    +0.000 A 
ATOM     16  C   UNL     1       2.004   8.610  17.968  0.00  0.00    +0.000 A 
ATOM     17  C   UNL     1       1.267   9.572  18.671  0.00  0.00    +0.000 A 
ENDBRANCH   7  15
ENDBRANCH   1   9
BRANCH   6  18
ATOM     18  C   UNL     1       7.290   6.712  17.811  0.00  0.00    +0.000 C 
ATOM     19  O   UNL     1       7.580   6.316  18.941  0.00  0.00    +0.000 OA
ATOM     20  N   UNL     1       7.577   7.977  17.302  0.00  0.00    +0.000 N 
ATOM     21  H   UNL     1       7.428   8.191  16.321  0.00  0.00    +0.000 HD
BRANCH  20  22
ATOM     22  N   UNL     1       8.266   8.861  18.073  0.00  0.00    +0.000 NA
ATOM     23  C   UNL     1       8.387  10.074  17.635  0.00  0.00    +0.000 C 
BRANCH  23  24
ATOM     24  C   UNL     1       9.132  11.090  18.410  0.00  0.00    +0.000 A 
ATOM     25  C   UNL     1       9.614  10.774  19.693  0.00  0.00    +0.000 A 
ATOM     26  C   UNL     1      10.307  11.727  20.445  0.00  0.00    +0.000 A 
ATOM     27  C   UNL     1      10.515  12.990  19.910  0.00  0.00    +0.000 A 
ATOM     28  C   UNL     1      10.042  13.301  18.635  0.00  0.00    +0.000 A 
ATOM     29  C   UNL     1       9.352  12.363  17.873  0.00  0.00    +0.000 A 
BRANCH  27  30
ATOM     30  O   UNL     1      11.177  13.966  20.602  0.00  0.00    +0.000 OA
ATOM     31  H   UNL     1      11.999  14.173  20.123  0.00  0.00    +0.000 HD
ENDBRANCH  27  30
BRANCH  28  32
ATOM     32  O   UNL     1      10.253  14.550  18.123  0.00  0.00    +0.000 OA
ATOM     33  H   UNL     1      10.898  14.414  17.397  0.00  0.00    +0.000 HD
ENDBRANCH  28  32
ENDBRANCH  23  24
ENDBRANCH  20  22
ENDBRANCH   6  18
TORSDOF 7
ENDMDL
MODEL 4
REMARK VINA RESULT:      -8.5      4.969      7.862
REMARK  Name = 
REMARK  8 active torsions:
REMARK  status: ('A' for Active; 'I' for Inactive)
REMARK    1  A    between atoms: C_1  and  C_2
REMARK    2  A    between atoms: C_5  and  C_6
REMARK    3  A    between atoms: N_8  and  C_9
REMARK    4  A    between atoms: C_14  and  C_15
REMARK    5  A    between atoms: N_17  and  N_18
REMARK    6  A    between atoms: C_19  and  C_20
REMARK    7  A    between atoms: C_23  and  O_24
REMARK    8  A    between atoms: C_25  and  O_26
REMARK                            x       y       z     vdW  Elec       q    Type
REMARK                         _______ _______ _______ _____ _____    ______ ____
ROOT
ATOM      1  C   UNL     1       5.132   5.635  16.524  0.00  0.00    +0.000 A 
ATOM      2  C   UNL     1       4.613   4.641  15.679  0.00  0.00    +0.000 A 
ATOM      3  C   UNL     1       5.465   3.759  15.013  0.00  0.00    +0.000 A 
ATOM      4  C   UNL     1       6.844   3.861  15.180  0.00  0.00    +0.000 A 
ATOM      5  C   UNL     1       7.375   4.833  16.032  0.00  0.00    +0.000 A 
ATOM      6  C   UNL     1       6.525   5.717  16.717  0.00  0.00    +0.000 A 
ENDROOT
BRANCH   1   9
ATOM      7  C   UNL     1       3.491   6.205  18.255  0.00  0.00    +0.000 C 
ATOM      8  O   UNL     1       3.542   5.105  18.809  0.00  0.00    +0.000 OA
ATOM      9  N   UNL     1       4.255   6.551  17.159  0.00  0.00    +0.000 N 
ATOM     10  H   UNL     1       4.510   7.537  17.057  0.00  0.00    +0.000 HD
BRANCH   7  15
ATOM     11  C   UNL     1       0.141  10.458  20.366  0.00  0.00    +0.000 C 
ATOM     12  C   UNL     1       1.010   9.355  19.836  0.00  0.00    +0.000 A 
ATOM     13  C   UNL     1       1.504   9.404  18.529  0.00  0.00    +0.000 A 
ATOM     14  C   UNL     1       2.295   8.364  18.038  0.00  0.00    +0.000 A 
ATOM     15  C   UNL     1       2.608   7.257  18.840  0.00  0.00    +0.000 A 
ATOM     16  C   UNL     1       2.125   7.210  20.153  0.00  0.00    +0.000 A 
ATOM     17  C   UNL     1       1.329   8.254  20.643  0.00  0.00    +0.000 A 
ENDBRANCH   7  15
ENDBRANCH   1   9
BRANCH   6  18
ATOM     18  C   UNL     1       7.078   6.679  17.711  0.00  0.00    +0.000 C 
ATOM     19  O   UNL     1       7.130   6.343  18.895  0.00  0.00    +0.000 OA
ATOM     20  N   UNL     1       7.567   7.876  17.191  0.00  0.00    +0.000 N 
ATOM     21  H   UNL     1       7.610   8.030  16.189  0.00  0.00    +0.000 HD
BRANCH  20  22
ATOM     22  N   UNL     1       8.192   8.752  18.022  0.00  0.00    +0.000 NA
ATOM     23  C   UNL     1       8.388   9.957  17.587  0.00  0.00    +0.000 C 
BRANCH  23  24
ATOM     24  C   UNL     1       9.073  10.965  18.427  0.00  0.00    +0.000 A 
ATOM     25  C   UNL     1       9.697  12.070  17.822  0.00  0.00    +0.000 A 
ATOM     26  C   UNL     1      10.361  13.024  18.599  0.00  0.00    +0.000 A 
ATOM     27  C   UNL     1      10.395  12.867  19.977  0.00  0.00    +0.000 A 
ATOM     28  C   UNL     1       9.771  11.774  20.577  0.00  0.00    +0.000 A 
ATOM     29  C   UNL     1       9.105  10.817  19.818  0.00  0.00    +0.000 A 
BRANCH  27  30
ATOM     30  O   UNL     1      11.037  13.762  20.788  0.00  0.00    +0.000 OA
ATOM     31  H   UNL     1      11.224  13.322  21.636  0.00  0.00    +0.000 HD
ENDBRANCH  27  30
BRANCH  28  32
ATOM     32  O   UNL     1       9.816  11.633  21.936  0.00  0.00    +0.000 OA
ATOM     33  H   UNL     1      10.457  12.314  22.233  0.00  0.00    +0.000 HD
ENDBRANCH  28  32
ENDBRANCH  23  24
ENDBRANCH  20  22
ENDBRANCH   6  18
TORSDOF 7
ENDMDL
MODEL 5
REMARK VINA RESULT:      -8.0      7.401     11.608
REMARK  Name = 
REMARK  8 active torsions:
REMARK  status: ('A' for Active; 'I' for Inactive)
REMARK    1  A    between atoms: C_1  and  C_2
REMARK    2  A    between atoms: C_5  and  C_6
REMARK    3  A    between atoms: N_8  and  C_9
REMARK    4  A    between atoms: C_14  and  C_15
REMARK    5  A    between atoms: N_17  and  N_18
REMARK    6  A    between atoms: C_19  and  C_20
REMARK    7  A    between atoms: C_23  and  O_24
REMARK    8  A    between atoms: C_25  and  O_26
REMARK                            x       y       z     vdW  Elec       q    Type
REMARK                         _______ _______ _______ _____ _____    ______ ____
ROOT
ATOM      1  C   UNL     1      10.095  14.208  19.633  0.00  0.00    +0.000 A 
ATOM      2  C   UNL     1      10.173  15.577  19.334  0.00  0.00    +0.000 A 
ATOM      3  C   UNL     1      10.608  16.007  18.079  0.00  0.00    +0.000 A 
ATOM      4  C   UNL     1      10.972  15.075  17.111  0.00  0.00    +0.000 A 
ATOM      5  C   UNL     1      10.883  13.708  17.387  0.00  0.00    +0.000 A 
ATOM      6  C   UNL     1      10.434  13.266  18.642  0.00  0.00    +0.000 A 
ENDROOT
BRANCH   1   9
ATOM      7  C   UNL     1       8.377  13.825  21.340  0.00  0.00    +0.000 C 
ATOM      8  O   UNL     1       7.438  14.164  20.617  0.00  0.00    +0.000 OA
ATOM      9  N   UNL     1       9.693  13.790  20.926  0.00  0.00    +0.000 N 
ATOM     10  H   UNL     1      10.305  13.097  21.368  0.00  0.00    +0.000 HD
BRANCH   7  15
ATOM     11  C   UNL     1       7.305  12.196  26.814  0.00  0.00    +0.000 C 
ATOM     12  C   UNL     1       7.586  12.602  25.397  0.00  0.00    +0.000 A 
ATOM     13  C   UNL     1       7.793  13.944  25.069  0.00  0.00    +0.000 A 
ATOM     14  C   UNL     1       8.035  14.315  23.745  0.00  0.00    +0.000 A 
ATOM     15  C   UNL     1       8.075  13.354  22.724  0.00  0.00    +0.000 A 
ATOM     16  C   UNL     1       7.880  12.006  23.051  0.00  0.00    +0.000 A 
ATOM     17  C   UNL     1       7.635  11.638  24.380  0.00  0.00    +0.000 A 
ENDBRANCH   7  15
ENDBRANCH   1   9
BRANCH   6  18
ATOM     18  C   UNL     1      10.229  11.813  18.902  0.00  0.00    +0.000 C 
ATOM     19  O   UNL     1      10.927  11.261  19.754  0.00  0.00    +0.000 OA
ATOM     20  N   UNL     1       9.194  11.209  18.193  0.00  0.00    +0.000 N 
ATOM     21  H   UNL     1       8.576  11.756  17.603  0.00  0.00    +0.000 HD
BRANCH  20  22
ATOM     22  N   UNL     1       8.873   9.915  18.464  0.00  0.00    +0.000 NA
ATOM     23  C   UNL     1       8.083   9.306  17.637  0.00  0.00    +0.000 C 
BRANCH  23  24
ATOM     24  C   UNL     1       7.677   7.902  17.869  0.00  0.00    +0.000 A 
ATOM     25  C   UNL     1       6.671   7.325  17.074  0.00  0.00    +0.000 A 
ATOM     26  C   UNL     1       6.266   6.005  17.289  0.00  0.00    +0.000 A 
ATOM     27  C   UNL     1       6.870   5.270  18.298  0.00  0.00    +0.000 A 
ATOM     28  C   UNL     1       7.872   5.840  19.083  0.00  0.00    +0.000 A 
ATOM     29  C   UNL     1       8.287   7.152  18.879  0.00  0.00    +0.000 A 
BRANCH  27  30
ATOM     30  O   UNL     1       6.508   3.977  18.562  0.00  0.00    +0.000 OA
ATOM     31  H   UNL     1       6.593   3.828  19.521  0.00  0.00    +0.000 HD
ENDBRANCH  27  30
BRANCH  28  32
ATOM     32  O   UNL     1       8.455   5.102  20.074  0.00  0.00    +0.000 OA
ATOM     33  H   UNL     1       8.826   4.319  19.614  0.00  0.00    +0.000 HD
ENDBRANCH  28  32
ENDBRANCH  23  24
ENDBRANCH  20  22
ENDBRANCH   6  18
TORSDOF 7
ENDMDL
MODEL 6
REMARK VINA RESULT:      -7.8      1.073      1.524
REMARK  Name = 
REMARK  8 active torsions:
REMARK  status: ('A' for Active; 'I' for Inactive)
REMARK    1  A    between atoms: C_1  and  C_2
REMARK    2  A    between atoms: C_5  and  C_6
REMARK    3  A    between atoms: N_8  and  C_9
REMARK    4  A    between atoms: C_14  and  C_15
REMARK    5  A    between atoms: N_17  and  N_18
REMARK    6  A    between atoms: C_19  and  C_20
REMARK    7  A    between atoms: C_23  and  O_24
REMARK    8  A    between atoms: C_25  and  O_26
REMARK                            x       y       z     vdW  Elec       q    Type
REMARK                         _______ _______ _______ _____ _____    ______ ____
ROOT
ATOM      1  C   UNL     1       2.682   3.598  19.015  0.00  0.00    +0.000 A 
ATOM      2  C   UNL     1       2.510   2.251  19.372  0.00  0.00    +0.000 A 
ATOM      3  C   UNL     1       1.759   1.904  20.496  0.00  0.00    +0.000 A 
ATOM      4  C   UNL     1       1.175   2.898  21.278  0.00  0.00    +0.000 A 
ATOM      5  C   UNL     1       1.322   4.242  20.927  0.00  0.00    +0.000 A 
ATOM      6  C   UNL     1       2.064   4.600  19.789  0.00  0.00    +0.000 A 
ENDROOT
BRANCH   1   9
ATOM      7  C   UNL     1       4.859   4.020  17.970  0.00  0.00    +0.000 C 
ATOM      8  O   UNL     1       5.511   3.760  18.984  0.00  0.00    +0.000 OA
ATOM      9  N   UNL     1       3.484   3.935  17.896  0.00  0.00    +0.000 N 
ATOM     10  H   UNL     1       3.077   3.704  16.985  0.00  0.00    +0.000 HD
BRANCH   7  15
ATOM     11  C   UNL     1       7.636   5.215  13.007  0.00  0.00    +0.000 C 
ATOM     12  C   UNL     1       6.932   4.911  14.297  0.00  0.00    +0.000 A 
ATOM     13  C   UNL     1       5.800   4.091  14.314  0.00  0.00    +0.000 A 
ATOM     14  C   UNL     1       5.141   3.829  15.515  0.00  0.00    +0.000 A 
ATOM     15  C   UNL     1       5.597   4.379  16.722  0.00  0.00    +0.000 A 
ATOM     16  C   UNL     1       6.737   5.192  16.711  0.00  0.00    +0.000 A 
ATOM     17  C   UNL     1       7.396   5.455  15.503  0.00  0.00    +0.000 A 
ENDBRANCH   7  15
ENDBRANCH   1   9
BRANCH   6  18
ATOM     18  C   UNL     1       2.130   6.021  19.347  0.00  0.00    +0.000 C 
ATOM     19  O   UNL     1       2.252   6.262  18.145  0.00  0.00    +0.000 OA
ATOM     20  N   UNL     1       1.971   6.977  20.348  0.00  0.00    +0.000 N 
ATOM     21  H   UNL     1       1.744   6.705  21.298  0.00  0.00    +0.000 HD
BRANCH  20  22
ATOM     22  N   UNL     1       1.902   8.291  20.003  0.00  0.00    +0.000 NA
ATOM     23  C   UNL     1       0.987   9.013  20.569  0.00  0.00    +0.000 C 
BRANCH  23  24
ATOM     24  C   UNL     1       0.840  10.448  20.238  0.00  0.00    +0.000 A 
ATOM     25  C   UNL     1       0.758  10.849  18.893  0.00  0.00    +0.000 A 
ATOM     26  C   UNL     1       0.634  12.202  18.563  0.00  0.00    +0.000 A 
ATOM     27  C   UNL     1       0.591  13.144  19.579  0.00  0.00    +0.000 A 
ATOM     28  C   UNL     1       0.666  12.746  20.914  0.00  0.00    +0.000 A 
ATOM     29  C   UNL     1       0.788  11.404  21.259  0.00  0.00    +0.000 A 
BRANCH  27  30
ATOM     30  O   UNL     1       0.481  14.482  19.317  0.00  0.00    +0.000 OA
ATOM     31  H   UNL     1      -0.245  14.607  18.679  0.00  0.00    +0.000 HD
ENDBRANCH  27  30
BRANCH  28  32
ATOM     32  O   UNL     1       0.625  13.687  21.903  0.00  0.00    +0.000 OA
ATOM     33  H   UNL     1       0.055  14.400  21.542  0.00  0.00    +0.000 HD
ENDBRANCH  28  32
ENDBRANCH  23  24
ENDBRANCH  20  22
ENDBRANCH   6  18
TORSDOF 7
ENDMDL
MODEL 7
REMARK VINA RESULT:      -7.7      6.176     10.869
REMARK  Name = 
REMARK  8 active torsions:
REMARK  status: ('A' for Active; 'I' for Inactive)
REMARK    1  A    between atoms: C_1  and  C_2
REMARK    2  A    between atoms: C_5  and  C_6
REMARK    3  A    between atoms: N_8  and  C_9
REMARK    4  A    between atoms: C_14  and  C_15
REMARK    5  A    between atoms: N_17  and  N_18
REMARK    6  A    between atoms: C_19  and  C_20
REMARK    7  A    between atoms: C_23  and  O_24
REMARK    8  A    between atoms: C_25  and  O_26
REMARK                            x       y       z     vdW  Elec       q    Type
REMARK                         _______ _______ _______ _____ _____    ______ ____
ROOT
ATOM      1  C   UNL     1       9.609  13.325  19.316  0.00  0.00    +0.000 A 
ATOM      2  C   UNL     1      10.592  14.249  19.701  0.00  0.00    +0.000 A 
ATOM      3  C   UNL     1      11.946  13.919  19.628  0.00  0.00    +0.000 A 
ATOM      4  C   UNL     1      12.333  12.661  19.173  0.00  0.00    +0.000 A 
ATOM      5  C   UNL     1      11.367  11.736  18.769  0.00  0.00    +0.000 A 
ATOM      6  C   UNL     1      10.003  12.064  18.827  0.00  0.00    +0.000 A 
ENDROOT
BRANCH   1   9
ATOM      7  C   UNL     1       7.649  14.657  18.685  0.00  0.00    +0.000 C 
ATOM      8  O   UNL     1       8.239  15.296  17.811  0.00  0.00    +0.000 OA
ATOM      9  N   UNL     1       8.237  13.661  19.438  0.00  0.00    +0.000 N 
ATOM     10  H   UNL     1       7.632  12.902  19.766  0.00  0.00    +0.000 HD
BRANCH   7  15
ATOM     11  C   UNL     1       1.966  15.714  19.274  0.00  0.00    +0.000 C 
ATOM     12  C   UNL     1       3.437  15.449  19.136  0.00  0.00    +0.000 A 
ATOM     13  C   UNL     1       3.982  15.091  17.900  0.00  0.00    +0.000 A 
ATOM     14  C   UNL     1       5.347  14.828  17.784  0.00  0.00    +0.000 A 
ATOM     15  C   UNL     1       6.195  14.916  18.898  0.00  0.00    +0.000 A 
ATOM     16  C   UNL     1       5.654  15.285  20.136  0.00  0.00    +0.000 A 
ATOM     17  C   UNL     1       4.282  15.547  20.250  0.00  0.00    +0.000 A 
ENDBRANCH   7  15
ENDBRANCH   1   9
BRANCH   6  18
ATOM     18  C   UNL     1       8.977  11.125  18.292  0.00  0.00    +0.000 C 
ATOM     19  O   UNL     1       8.203  11.526  17.422  0.00  0.00    +0.000 OA
ATOM     20  N   UNL     1       9.031   9.822  18.784  0.00  0.00    +0.000 N 
ATOM     21  H   UNL     1       9.779   9.529  19.403  0.00  0.00    +0.000 HD
BRANCH  20  22
ATOM     22  N   UNL     1       8.203   8.881  18.256  0.00  0.00    +0.000 NA
ATOM     23  C   UNL     1       8.391   7.649  18.611  0.00  0.00    +0.000 C 
BRANCH  23  24
ATOM     24  C   UNL     1       7.540   6.565  18.071  0.00  0.00    +0.000 A 
ATOM     25  C   UNL     1       7.257   6.520  16.694  0.00  0.00    +0.000 A 
ATOM     26  C   UNL     1       6.442   5.512  16.170  0.00  0.00    +0.000 A 
ATOM     27  C   UNL     1       5.917   4.555  17.026  0.00  0.00    +0.000 A 
ATOM     28  C   UNL     1       6.203   4.597  18.391  0.00  0.00    +0.000 A 
ATOM     29  C   UNL     1       7.013   5.592  18.927  0.00  0.00    +0.000 A 
BRANCH  27  30
ATOM     30  O   UNL     1       5.106   3.551  16.573  0.00  0.00    +0.000 OA
ATOM     31  H   UNL     1       5.257   2.765  17.127  0.00  0.00    +0.000 HD
ENDBRANCH  27  30
BRANCH  28  32
ATOM     32  O   UNL     1       5.675   3.648  19.220  0.00  0.00    +0.000 OA
ATOM     33  H   UNL     1       4.740   3.920  19.344  0.00  0.00    +0.000 HD
ENDBRANCH  28  32
ENDBRANCH  23  24
ENDBRANCH  20  22
ENDBRANCH   6  18
TORSDOF 7
ENDMDL
MODEL 8
REMARK VINA RESULT:      -7.6      4.738      7.910
REMARK  Name = 
REMARK  8 active torsions:
REMARK  status: ('A' for Active; 'I' for Inactive)
REMARK    1  A    between atoms: C_1  and  C_2
REMARK    2  A    between atoms: C_5  and  C_6
REMARK    3  A    between atoms: N_8  and  C_9
REMARK    4  A    between atoms: C_14  and  C_15
REMARK    5  A    between atoms: N_17  and  N_18
REMARK    6  A    between atoms: C_19  and  C_20
REMARK    7  A    between atoms: C_23  and  O_24
REMARK    8  A    between atoms: C_25  and  O_26
REMARK                            x       y       z     vdW  Elec       q    Type
REMARK                         _______ _______ _______ _____ _____    ______ ____
ROOT
ATOM      1  C   UNL     1       4.037   5.579  17.433  0.00  0.00    +0.000 A 
ATOM      2  C   UNL     1       3.562   4.259  17.417  0.00  0.00    +0.000 A 
ATOM      3  C   UNL     1       4.335   3.232  16.874  0.00  0.00    +0.000 A 
ATOM      4  C   UNL     1       5.589   3.513  16.336  0.00  0.00    +0.000 A 
ATOM      5  C   UNL     1       6.083   4.820  16.360  0.00  0.00    +0.000 A 
ATOM      6  C   UNL     1       5.318   5.857  16.918  0.00  0.00    +0.000 A 
ENDROOT
BRANCH   1   9
ATOM      7  C   UNL     1       2.777   6.629  19.256  0.00  0.00    +0.000 C 
ATOM      8  O   UNL     1       3.091   5.783  20.097  0.00  0.00    +0.000 OA
ATOM      9  N   UNL     1       3.220   6.617  17.949  0.00  0.00    +0.000 N 
ATOM     10  H   UNL     1       3.319   7.522  17.480  0.00  0.00    +0.000 HD
BRANCH   7  15
ATOM     11  C   UNL     1      -0.633  10.956  21.104  0.00  0.00    +0.000 C 
ATOM     12  C   UNL     1       0.245   9.843  20.611  0.00  0.00    +0.000 A 
ATOM     13  C   UNL     1       0.554   8.761  21.440  0.00  0.00    +0.000 A 
ATOM     14  C   UNL     1       1.386   7.740  20.980  0.00  0.00    +0.000 A 
ATOM     15  C   UNL     1       1.926   7.778  19.686  0.00  0.00    +0.000 A 
ATOM     16  C   UNL     1       1.610   8.855  18.849  0.00  0.00    +0.000 A 
ATOM     17  C   UNL     1       0.775   9.880  19.314  0.00  0.00    +0.000 A 
ENDBRANCH   7  15
ENDBRANCH   1   9
BRANCH   6  18
ATOM     18  C   UNL     1       5.886   7.229  17.048  0.00  0.00    +0.000 C 
ATOM     19  O   UNL     1       5.112   8.182  17.157  0.00  0.00    +0.000 OA
ATOM     20  N   UNL     1       7.275   7.308  17.109  0.00  0.00    +0.000 N 
ATOM     21  H   UNL     1       7.845   6.469  17.143  0.00  0.00    +0.000 HD
BRANCH  20  22
ATOM     22  N   UNL     1       7.860   8.513  17.345  0.00  0.00    +0.000 NA
ATOM     23  C   UNL     1       8.438   8.686  18.492  0.00  0.00    +0.000 C 
BRANCH  23  24
ATOM     24  C   UNL     1       9.086   9.973  18.829  0.00  0.00    +0.000 A 
ATOM     25  C   UNL     1       9.564  10.804  17.800  0.00  0.00    +0.000 A 
ATOM     26  C   UNL     1      10.192  12.016  18.101  0.00  0.00    +0.000 A 
ATOM     27  C   UNL     1      10.337  12.390  19.429  0.00  0.00    +0.000 A 
ATOM     28  C   UNL     1       9.857  11.568  20.449  0.00  0.00    +0.000 A 
ATOM     29  C   UNL     1       9.228  10.360  20.165  0.00  0.00    +0.000 A 
BRANCH  27  30
ATOM     30  O   UNL     1      10.951  13.559  19.785  0.00  0.00    +0.000 OA
ATOM     31  H   UNL     1      11.645  13.352  20.435  0.00  0.00    +0.000 HD
ENDBRANCH  27  30
BRANCH  28  32
ATOM     32  O   UNL     1      10.010  11.951  21.752  0.00  0.00    +0.000 OA
ATOM     33  H   UNL     1       9.708  12.884  21.772  0.00  0.00    +0.000 HD
ENDBRANCH  28  32
ENDBRANCH  23  24
ENDBRANCH  20  22
ENDBRANCH   6  18
TORSDOF 7
ENDMDL
MODEL 9
REMARK VINA RESULT:      -7.5      4.744      7.719
REMARK  Name = 
REMARK  8 active torsions:
REMARK  status: ('A' for Active; 'I' for Inactive)
REMARK    1  A    between atoms: C_1  and  C_2
REMARK    2  A    between atoms: C_5  and  C_6
REMARK    3  A    between atoms: N_8  and  C_9
REMARK    4  A    between atoms: C_14  and  C_15
REMARK    5  A    between atoms: N_17  and  N_18
REMARK    6  A    between atoms: C_19  and  C_20
REMARK    7  A    between atoms: C_23  and  O_24
REMARK    8  A    between atoms: C_25  and  O_26
REMARK                            x       y       z     vdW  Elec       q    Type
REMARK                         _______ _______ _______ _____ _____    ______ ____
ROOT
ATOM      1  C   UNL     1       3.989   5.540  17.479  0.00  0.00    +0.000 A 
ATOM      2  C   UNL     1       3.489   4.229  17.518  0.00  0.00    +0.000 A 
ATOM      3  C   UNL     1       4.232   3.170  16.993  0.00  0.00    +0.000 A 
ATOM      4  C   UNL     1       5.479   3.409  16.421  0.00  0.00    +0.000 A 
ATOM      5  C   UNL     1       5.998   4.706  16.391  0.00  0.00    +0.000 A 
ATOM      6  C   UNL     1       5.264   5.776  16.929  0.00  0.00    +0.000 A 
ENDROOT
BRANCH   1   9
ATOM      7  C   UNL     1       2.723   6.636  19.270  0.00  0.00    +0.000 C 
ATOM      8  O   UNL     1       2.976   5.775  20.116  0.00  0.00    +0.000 OA
ATOM      9  N   UNL     1       3.203   6.610  17.977  0.00  0.00    +0.000 N 
ATOM     10  H   UNL     1       3.354   7.511  17.515  0.00  0.00    +0.000 HD
BRANCH   7  15
ATOM     11  C   UNL     1      -0.546  11.100  21.044  0.00  0.00    +0.000 C 
ATOM     12  C   UNL     1       0.295   9.952  20.570  0.00  0.00    +0.000 A 
ATOM     13  C   UNL     1       0.558   8.868  21.412  0.00  0.00    +0.000 A 
ATOM     14  C   UNL     1       1.357   7.813  20.970  0.00  0.00    +0.000 A 
ATOM     15  C   UNL     1       1.910   7.819  19.681  0.00  0.00    +0.000 A 
ATOM     16  C   UNL     1       1.640   8.898  18.831  0.00  0.00    +0.000 A 
ATOM     17  C   UNL     1       0.839   9.957  19.278  0.00  0.00    +0.000 A 
ENDBRANCH   7  15
ENDBRANCH   1   9
BRANCH   6  18
ATOM     18  C   UNL     1       5.860   7.140  17.002  0.00  0.00    +0.000 C 
ATOM     19  O   UNL     1       5.110   8.106  17.150  0.00  0.00    +0.000 OA
ATOM     20  N   UNL     1       7.251   7.197  16.967  0.00  0.00    +0.000 N 
ATOM     21  H   UNL     1       7.809   6.350  16.975  0.00  0.00    +0.000 HD
BRANCH  20  22
ATOM     22  N   UNL     1       7.869   8.396  17.147  0.00  0.00    +0.000 NA
ATOM     23  C   UNL     1       8.199   8.726  18.355  0.00  0.00    +0.000 C 
BRANCH  23  24
ATOM     24  C   UNL     1       8.863  10.019  18.634  0.00  0.00    +0.000 A 
ATOM     25  C   UNL     1       9.586  10.190  19.828  0.00  0.00    +0.000 A 
ATOM     26  C   UNL     1      10.207  11.409  20.113  0.00  0.00    +0.000 A 
ATOM     27  C   UNL     1      10.103  12.450  19.202  0.00  0.00    +0.000 A 
ATOM     28  C   UNL     1       9.391  12.278  18.015  0.00  0.00    +0.000 A 
ATOM     29  C   UNL     1       8.769  11.071  17.716  0.00  0.00    +0.000 A 
BRANCH  27  30
ATOM     30  O   UNL     1      10.681  13.668  19.431  0.00  0.00    +0.000 OA
ATOM     31  H   UNL     1      10.192  14.105  20.151  0.00  0.00    +0.000 HD
ENDBRANCH  27  30
BRANCH  28  32
ATOM     32  O   UNL     1       9.296  13.315  17.130  0.00  0.00    +0.000 OA
ATOM     33  H   UNL     1       9.997  13.138  16.466  0.00  0.00    +0.000 HD
ENDBRANCH  28  32
ENDBRANCH  23  24
ENDBRANCH  20  22
ENDBRANCH   6  18
TORSDOF 7
ENDMDL
