MODEL 1
REMARK VINA RESULT:      -6.4      0.000      0.000
REMARK  Name = 
REMARK  3 active torsions:
REMARK  status: ('A' for Active; 'I' for Inactive)
REMARK    1  A    between atoms: C_1  and  C_2
REMARK    2  A    between atoms: N_10  and  C_11
REMARK    3  A    between atoms: C_11  and  C_12
REMARK                            x       y       z     vdW  Elec       q    Type
REMARK                         _______ _______ _______ _____ _____    ______ ____
ROOT
ATOM      1  C   UNL     1       7.930   7.716  17.491  0.00  0.00    +0.000 C 
ATOM      2  C   UNL     1       7.265   6.421  17.071  0.00  0.00    +0.000 A 
ATOM      3  N   UNL     1       7.657   6.224  15.785  0.00  0.00    +0.000 NA
ATOM      4  C   UNL     1       7.158   5.205  15.110  0.00  0.00    +0.000 A 
ATOM      5  N   UNL     1       6.286   4.331  15.588  0.00  0.00    +0.000 NA
ATOM      6  C   UNL     1       5.899   4.499  16.874  0.00  0.00    +0.000 A 
ATOM      7  C   UNL     1       6.339   5.533  17.713  0.00  0.00    +0.000 A 
ATOM      8  C   UNL     1       5.791   5.406  19.151  0.00  0.00    +0.000 C 
ATOM      9  C   UNL     1       4.218   5.441  19.463  0.00  0.00    +0.000 C 
ATOM     10  N   UNL     1       3.259   4.413  18.956  0.00  0.00    +0.000 NA
ATOM     11  C   UNL     1       3.523   4.037  17.562  0.00  0.00    +0.000 C 
ATOM     12  C   UNL     1       4.923   3.455  17.345  0.00  0.00    +0.000 C 
ENDROOT
BRANCH  10  13
ATOM     13  C   UNL     1       1.827   4.850  19.167  0.00  0.00    +0.000 C 
BRANCH  13  14
ATOM     14  C   UNL     1       0.840   3.904  19.931  0.00  0.00    +0.000 C 
ATOM     15  C   UNL     1       1.288   3.544  21.347  0.00  0.00    +0.000 C 
ATOM     16  C   UNL     1       1.861   2.146  21.256  0.00  0.00    +0.000 C 
ATOM     17  O   UNL     1       1.399   1.566  20.038  0.00  0.00    +0.000 OA
ATOM     18  C   UNL     1       0.638   2.533  19.302  0.00  0.00    +0.000 C 
ENDBRANCH  13  14
ENDBRANCH  10  13
TORSDOF 2
ENDMDL
MODEL 2
REMARK VINA RESULT:      -6.3      1.504      2.798
REMARK  Name = 
REMARK  3 active torsions:
REMARK  status: ('A' for Active; 'I' for Inactive)
REMARK    1  A    between atoms: C_1  and  C_2
REMARK    2  A    between atoms: N_10  and  C_11
REMARK    3  A    between atoms: C_11  and  C_12
REMARK                            x       y       z     vdW  Elec       q    Type
REMARK                         _______ _______ _______ _____ _____    ______ ____
ROOT
ATOM      1  C   UNL     1       6.121   3.639  13.365  0.00  0.00    +0.000 C 
ATOM      2  C   UNL     1       6.260   4.538  14.577  0.00  0.00    +0.000 A 
ATOM      3  N   UNL     1       7.443   5.185  14.403  0.00  0.00    +0.000 NA
ATOM      4  C   UNL     1       7.885   5.983  15.358  0.00  0.00    +0.000 A 
ATOM      5  N   UNL     1       7.261   6.217  16.501  0.00  0.00    +0.000 NA
ATOM      6  C   UNL     1       6.072   5.597  16.684  0.00  0.00    +0.000 A 
ATOM      7  C   UNL     1       5.477   4.721  15.765  0.00  0.00    +0.000 A 
ATOM      8  C   UNL     1       4.080   4.244  16.217  0.00  0.00    +0.000 C 
ATOM      9  C   UNL     1       3.867   3.414  17.573  0.00  0.00    +0.000 C 
ATOM     10  N   UNL     1       4.168   3.968  18.928  0.00  0.00    +0.000 NA
ATOM     11  C   UNL     1       5.419   4.734  18.956  0.00  0.00    +0.000 C 
ATOM     12  C   UNL     1       5.421   5.930  18.000  0.00  0.00    +0.000 C 
ENDROOT
BRANCH  10  13
ATOM     13  C   UNL     1       4.141   2.883  19.980  0.00  0.00    +0.000 C 
BRANCH  13  14
ATOM     14  C   UNL     1       2.845   2.677  20.837  0.00  0.00    +0.000 C 
ATOM     15  C   UNL     1       1.645   2.163  20.042  0.00  0.00    +0.000 C 
ATOM     16  C   UNL     1       0.763   3.369  19.801  0.00  0.00    +0.000 C 
ATOM     17  O   UNL     1       1.153   4.384  20.723  0.00  0.00    +0.000 OA
ATOM     18  C   UNL     1       2.285   3.937  21.480  0.00  0.00    +0.000 C 
ENDBRANCH  13  14
ENDBRANCH  10  13
TORSDOF 2
ENDMDL
MODEL 3
REMARK VINA RESULT:      -6.1      1.555      1.978
REMARK  Name = 
REMARK  3 active torsions:
REMARK  status: ('A' for Active; 'I' for Inactive)
REMARK    1  A    between atoms: C_1  and  C_2
REMARK    2  A    between atoms: N_10  and  C_11
REMARK    3  A    between atoms: C_11  and  C_12
REMARK                            x       y       z     vdW  Elec       q    Type
REMARK                         _______ _______ _______ _____ _____    ______ ____
ROOT
ATOM      1  C   UNL     1       8.634   5.486  20.011  0.00  0.00    +0.000 C 
ATOM      2  C   UNL     1       7.669   5.963  18.944  0.00  0.00    +0.000 A 
ATOM      3  N   UNL     1       8.230   7.095  18.442  0.00  0.00    +0.000 NA
ATOM      4  C   UNL     1       7.566   7.797  17.543  0.00  0.00    +0.000 A 
ATOM      5  N   UNL     1       6.369   7.487  17.070  0.00  0.00    +0.000 NA
ATOM      6  C   UNL     1       5.803   6.352  17.544  0.00  0.00    +0.000 A 
ATOM      7  C   UNL     1       6.384   5.507  18.500  0.00  0.00    +0.000 A 
ATOM      8  C   UNL     1       5.538   4.245  18.771  0.00  0.00    +0.000 C 
ATOM      9  C   UNL     1       4.043   4.334  19.346  0.00  0.00    +0.000 C 
ATOM     10  N   UNL     1       2.919   4.987  18.608  0.00  0.00    +0.000 NA
ATOM     11  C   UNL     1       3.324   6.242  17.963  0.00  0.00    +0.000 C 
ATOM     12  C   UNL     1       4.453   6.063  16.944  0.00  0.00    +0.000 C 
ENDROOT
BRANCH  10  13
ATOM     13  C   UNL     1       1.713   5.170  19.501  0.00  0.00    +0.000 C 
BRANCH  13  14
ATOM     14  C   UNL     1       0.840   3.923  19.876  0.00  0.00    +0.000 C 
ATOM     15  C   UNL     1       1.241   3.252  21.189  0.00  0.00    +0.000 C 
ATOM     16  C   UNL     1       2.036   2.025  20.799  0.00  0.00    +0.000 C 
ATOM     17  O   UNL     1       1.760   1.746  19.428  0.00  0.00    +0.000 OA
ATOM     18  C   UNL     1       0.906   2.765  18.892  0.00  0.00    +0.000 C 
ENDBRANCH  13  14
ENDBRANCH  10  13
TORSDOF 2
ENDMDL
MODEL 4
REMARK VINA RESULT:      -6.1      1.426      2.596
REMARK  Name = 
REMARK  3 active torsions:
REMARK  status: ('A' for Active; 'I' for Inactive)
REMARK    1  A    between atoms: C_1  and  C_2
REMARK    2  A    between atoms: N_10  and  C_11
REMARK    3  A    between atoms: C_11  and  C_12
REMARK                            x       y       z     vdW  Elec       q    Type
REMARK                         _______ _______ _______ _____ _____    ______ ____
ROOT
ATOM      1  C   UNL     1       7.395   4.815  14.304  0.00  0.00    +0.000 C 
ATOM      2  C   UNL     1       6.765   5.407  15.548  0.00  0.00    +0.000 A 
ATOM      3  N   UNL     1       7.695   6.270  16.038  0.00  0.00    +0.000 NA
ATOM      4  C   UNL     1       7.465   6.879  17.186  0.00  0.00    +0.000 A 
ATOM      5  N   UNL     1       6.377   6.724  17.924  0.00  0.00    +0.000 NA
ATOM      6  C   UNL     1       5.430   5.884  17.442  0.00  0.00    +0.000 A 
ATOM      7  C   UNL     1       5.533   5.166  16.243  0.00  0.00    +0.000 A 
ATOM      8  C   UNL     1       4.256   4.363  15.918  0.00  0.00    +0.000 C 
ATOM      9  C   UNL     1       3.710   3.210  16.890  0.00  0.00    +0.000 C 
ATOM     10  N   UNL     1       3.251   3.466  18.289  0.00  0.00    +0.000 NA
ATOM     11  C   UNL     1       4.123   4.405  19.003  0.00  0.00    +0.000 C 
ATOM     12  C   UNL     1       4.219   5.777  18.330  0.00  0.00    +0.000 C 
ENDROOT
BRANCH  10  13
ATOM     13  C   UNL     1       3.063   2.173  19.048  0.00  0.00    +0.000 C 
BRANCH  13  14
ATOM     14  C   UNL     1       1.998   2.104  20.196  0.00  0.00    +0.000 C 
ATOM     15  C   UNL     1       0.780   3.000  19.973  0.00  0.00    +0.000 C 
ATOM     16  C   UNL     1       0.997   4.216  20.847  0.00  0.00    +0.000 C 
ATOM     17  O   UNL     1       1.990   3.885  21.814  0.00  0.00    +0.000 OA
ATOM     18  C   UNL     1       2.486   2.564  21.562  0.00  0.00    +0.000 C 
ENDBRANCH  13  14
ENDBRANCH  10  13
TORSDOF 2
ENDMDL
MODEL 5
REMARK VINA RESULT:      -5.9      4.315      5.618
REMARK  Name = 
REMARK  3 active torsions:
REMARK  status: ('A' for Active; 'I' for Inactive)
REMARK    1  A    between atoms: C_1  and  C_2
REMARK    2  A    between atoms: N_10  and  C_11
REMARK    3  A    between atoms: C_11  and  C_12
REMARK                            x       y       z     vdW  Elec       q    Type
REMARK                         _______ _______ _______ _____ _____    ______ ____
ROOT
ATOM      1  C   UNL     1       4.319   2.248  20.460  0.00  0.00    +0.000 C 
ATOM      2  C   UNL     1       4.192   3.459  19.558  0.00  0.00    +0.000 A 
ATOM      3  N   UNL     1       5.349   3.490  18.845  0.00  0.00    +0.000 NA
ATOM      4  C   UNL     1       5.572   4.501  18.025  0.00  0.00    +0.000 A 
ATOM      5  N   UNL     1       4.745   5.516  17.829  0.00  0.00    +0.000 NA
ATOM      6  C   UNL     1       3.579   5.492  18.516  0.00  0.00    +0.000 A 
ATOM      7  C   UNL     1       3.203   4.490  19.421  0.00  0.00    +0.000 A 
ATOM      8  C   UNL     1       1.778   4.693  19.978  0.00  0.00    +0.000 C 
ATOM      9  C   UNL     1       1.376   5.997  20.821  0.00  0.00    +0.000 C 
ATOM     10  N   UNL     1       1.404   7.379  20.254  0.00  0.00    +0.000 NA
ATOM     11  C   UNL     1       2.586   7.621  19.419  0.00  0.00    +0.000 C 
ATOM     12  C   UNL     1       2.689   6.670  18.223  0.00  0.00    +0.000 C 
ENDROOT
BRANCH  10  13
ATOM     13  C   UNL     1       1.253   8.419  21.342  0.00  0.00    +0.000 C 
BRANCH  13  14
ATOM     14  C   UNL     1      -0.162   9.029  21.629  0.00  0.00    +0.000 C 
ATOM     15  C   UNL     1      -0.480  10.282  20.814  0.00  0.00    +0.000 C 
ATOM     16  C   UNL     1      -0.272  11.450  21.754  0.00  0.00    +0.000 C 
ATOM     17  O   UNL     1      -0.273  10.941  23.085  0.00  0.00    +0.000 OA
ATOM     18  C   UNL     1      -0.382   9.512  23.055  0.00  0.00    +0.000 C 
ENDBRANCH  13  14
ENDBRANCH  10  13
TORSDOF 2
ENDMDL
MODEL 6
REMARK VINA RESULT:      -5.9      3.980      6.108
REMARK  Name = 
REMARK  3 active torsions:
REMARK  status: ('A' for Active; 'I' for Inactive)
REMARK    1  A    between atoms: C_1  and  C_2
REMARK    2  A    between atoms: N_10  and  C_11
REMARK    3  A    between atoms: C_11  and  C_12
REMARK                            x       y       z     vdW  Elec       q    Type
REMARK                         _______ _______ _______ _____ _____    ______ ____
ROOT
ATOM      1  C   UNL     1      -0.522   9.096  22.332  0.00  0.00    +0.000 C 
ATOM      2  C   UNL     1       0.189   9.268  21.005  0.00  0.00    +0.000 A 
ATOM      3  N   UNL     1      -0.413  10.336  20.418  0.00  0.00    +0.000 NA
ATOM      4  C   UNL     1      -0.061  10.677  19.192  0.00  0.00    +0.000 A 
ATOM      5  N   UNL     1       0.852  10.055  18.462  0.00  0.00    +0.000 NA
ATOM      6  C   UNL     1       1.476   9.001  19.038  0.00  0.00    +0.000 A 
ATOM      7  C   UNL     1       1.210   8.520  20.328  0.00  0.00    +0.000 A 
ATOM      8  C   UNL     1       2.146   7.364  20.737  0.00  0.00    +0.000 C 
ATOM      9  C   UNL     1       2.188   5.981  19.926  0.00  0.00    +0.000 C 
ATOM     10  N   UNL     1       2.612   5.882  18.496  0.00  0.00    +0.000 NA
ATOM     11  C   UNL     1       2.077   6.973  17.674  0.00  0.00    +0.000 C 
ATOM     12  C   UNL     1       2.511   8.362  18.151  0.00  0.00    +0.000 C 
ENDROOT
BRANCH  10  13
ATOM     13  C   UNL     1       2.286   4.522  17.922  0.00  0.00    +0.000 C 
BRANCH  13  14
ATOM     14  C   UNL     1       3.425   3.456  17.778  0.00  0.00    +0.000 C 
ATOM     15  C   UNL     1       3.287   2.262  18.722  0.00  0.00    +0.000 C 
ATOM     16  C   UNL     1       4.267   2.512  19.848  0.00  0.00    +0.000 C 
ATOM     17  O   UNL     1       5.198   3.496  19.404  0.00  0.00    +0.000 OA
ATOM     18  C   UNL     1       4.826   3.955  18.098  0.00  0.00    +0.000 C 
ENDBRANCH  13  14
ENDBRANCH  10  13
TORSDOF 2
ENDMDL
MODEL 7
REMARK VINA RESULT:      -5.8      4.905      6.979
REMARK  Name = 
REMARK  3 active torsions:
REMARK  status: ('A' for Active; 'I' for Inactive)
REMARK    1  A    between atoms: C_1  and  C_2
REMARK    2  A    between atoms: N_10  and  C_11
REMARK    3  A    between atoms: C_11  and  C_12
REMARK                            x       y       z     vdW  Elec       q    Type
REMARK                         _______ _______ _______ _____ _____    ______ ____
ROOT
ATOM      1  C   UNL     1       2.622   3.373  17.157  0.00  0.00    +0.000 C 
ATOM      2  C   UNL     1       2.336   4.173  18.412  0.00  0.00    +0.000 A 
ATOM      3  N   UNL     1       1.719   3.302  19.253  0.00  0.00    +0.000 NA
ATOM      4  C   UNL     1       1.262   3.741  20.411  0.00  0.00    +0.000 A 
ATOM      5  N   UNL     1       1.356   4.990  20.840  0.00  0.00    +0.000 NA
ATOM      6  C   UNL     1       1.986   5.868  20.025  0.00  0.00    +0.000 A 
ATOM      7  C   UNL     1       2.519   5.551  18.767  0.00  0.00    +0.000 A 
ATOM      8  C   UNL     1       3.255   6.741  18.116  0.00  0.00    +0.000 C 
ATOM      9  C   UNL     1       2.501   8.112  17.763  0.00  0.00    +0.000 C 
ATOM     10  N   UNL     1       1.884   8.997  18.797  0.00  0.00    +0.000 NA
ATOM     11  C   UNL     1       1.170   8.241  19.832  0.00  0.00    +0.000 C 
ATOM     12  C   UNL     1       2.066   7.259  20.593  0.00  0.00    +0.000 C 
ENDROOT
BRANCH  10  13
ATOM     13  C   UNL     1       1.012  10.056  18.161  0.00  0.00    +0.000 C 
BRANCH  13  14
ATOM     14  C   UNL     1      -0.323  10.476  18.865  0.00  0.00    +0.000 C 
ATOM     15  C   UNL     1      -1.582  10.169  18.054  0.00  0.00    +0.000 C 
ATOM     16  C   UNL     1      -2.007  11.485  17.440  0.00  0.00    +0.000 C 
ATOM     17  O   UNL     1      -1.356  12.530  18.157  0.00  0.00    +0.000 OA
ATOM     18  C   UNL     1      -0.473  11.965  19.135  0.00  0.00    +0.000 C 
ENDBRANCH  13  14
ENDBRANCH  10  13
TORSDOF 2
ENDMDL
MODEL 8
REMARK VINA RESULT:      -5.7      3.621      5.234
REMARK  Name = 
REMARK  3 active torsions:
REMARK  status: ('A' for Active; 'I' for Inactive)
REMARK    1  A    between atoms: C_1  and  C_2
REMARK    2  A    between atoms: N_10  and  C_11
REMARK    3  A    between atoms: C_11  and  C_12
REMARK                            x       y       z     vdW  Elec       q    Type
REMARK                         _______ _______ _______ _____ _____    ______ ____
ROOT
ATOM      1  C   UNL     1      -0.155  10.323  20.901  0.00  0.00    +0.000 C 
ATOM      2  C   UNL     1       0.795   9.696  19.901  0.00  0.00    +0.000 A 
ATOM      3  N   UNL     1       0.821  10.559  18.851  0.00  0.00    +0.000 NA
ATOM      4  C   UNL     1       1.504  10.234  17.769  0.00  0.00    +0.000 A 
ATOM      5  N   UNL     1       2.187   9.111  17.611  0.00  0.00    +0.000 NA
ATOM      6  C   UNL     1       2.189   8.248  18.654  0.00  0.00    +0.000 A 
ATOM      7  C   UNL     1       1.511   8.453  19.864  0.00  0.00    +0.000 A 
ATOM      8  C   UNL     1       1.777   7.335  20.893  0.00  0.00    +0.000 C 
ATOM      9  C   UNL     1       1.382   5.807  20.605  0.00  0.00    +0.000 C 
ATOM     10  N   UNL     1       1.982   5.000  19.501  0.00  0.00    +0.000 NA
ATOM     11  C   UNL     1       2.120   5.764  18.256  0.00  0.00    +0.000 C 
ATOM     12  C   UNL     1       3.002   7.007  18.401  0.00  0.00    +0.000 C 
ENDROOT
BRANCH  10  13
ATOM     13  C   UNL     1       1.225   3.707  19.295  0.00  0.00    +0.000 C 
BRANCH  13  14
ATOM     14  C   UNL     1       2.012   2.352  19.270  0.00  0.00    +0.000 C 
ATOM     15  C   UNL     1       3.214   2.310  20.212  0.00  0.00    +0.000 C 
ATOM     16  C   UNL     1       4.431   2.524  19.337  0.00  0.00    +0.000 C 
ATOM     17  O   UNL     1       4.046   2.271  17.988  0.00  0.00    +0.000 OA
ATOM     18  C   UNL     1       2.641   1.992  17.932  0.00  0.00    +0.000 C 
ENDBRANCH  13  14
ENDBRANCH  10  13
TORSDOF 2
ENDMDL
MODEL 9
REMARK VINA RESULT:      -5.7      2.804      3.500
REMARK  Name = 
REMARK  3 active torsions:
REMARK  status: ('A' for Active; 'I' for Inactive)
REMARK    1  A    between atoms: C_1  and  C_2
REMARK    2  A    between atoms: N_10  and  C_11
REMARK    3  A    between atoms: C_11  and  C_12
REMARK                            x       y       z     vdW  Elec       q    Type
REMARK                         _______ _______ _______ _____ _____    ______ ____
ROOT
ATOM      1  C   UNL     1       8.175   5.024  18.425  0.00  0.00    +0.000 C 
ATOM      2  C   UNL     1       6.915   4.625  17.684  0.00  0.00    +0.000 A 
ATOM      3  N   UNL     1       7.247   4.683  16.367  0.00  0.00    +0.000 NA
ATOM      4  C   UNL     1       6.313   4.472  15.459  0.00  0.00    +0.000 A 
ATOM      5  N   UNL     1       5.045   4.198  15.722  0.00  0.00    +0.000 NA
ATOM      6  C   UNL     1       4.700   4.116  17.028  0.00  0.00    +0.000 A 
ATOM      7  C   UNL     1       5.578   4.318  18.103  0.00  0.00    +0.000 A 
ATOM      8  C   UNL     1       4.911   4.067  19.472  0.00  0.00    +0.000 C 
ATOM      9  C   UNL     1       3.653   4.929  19.972  0.00  0.00    +0.000 C 
ATOM     10  N   UNL     1       2.332   4.929  19.274  0.00  0.00    +0.000 NA
ATOM     11  C   UNL     1       2.467   4.971  17.814  0.00  0.00    +0.000 C 
ATOM     12  C   UNL     1       3.247   3.784  17.242  0.00  0.00    +0.000 C 
ENDROOT
BRANCH  10  13
ATOM     13  C   UNL     1       1.440   6.033  19.796  0.00  0.00    +0.000 C 
BRANCH  13  14
ATOM     14  C   UNL     1       2.055   7.444  20.089  0.00  0.00    +0.000 C 
ATOM     15  C   UNL     1       1.337   8.222  21.191  0.00  0.00    +0.000 C 
ATOM     16  C   UNL     1       0.468   9.237  20.480  0.00  0.00    +0.000 C 
ATOM     17  O   UNL     1       0.948   9.359  19.143  0.00  0.00    +0.000 OA
ATOM     18  C   UNL     1       2.013   8.425  18.927  0.00  0.00    +0.000 C 
ENDBRANCH  13  14
ENDBRANCH  10  13
TORSDOF 2
ENDMDL
