MODEL 1
REMARK VINA RESULT:      -6.7      0.000      0.000
REMARK  Name = 
REMARK  4 active torsions:
REMARK  status: ('A' for Active; 'I' for Inactive)
REMARK    1  A    between atoms: C_1  and  C_2
REMARK    2  A    between atoms: N_4  and  N_5
REMARK    3  A    between atoms: C_9  and  C_10
REMARK    4  A    between atoms: C_13  and  C_14
REMARK                            x       y       z     vdW  Elec       q    Type
REMARK                         _______ _______ _______ _____ _____    ______ ____
ROOT
ATOM      1  N   UNL     1       3.099   6.046  19.641  0.00  0.00    +0.000 N 
ATOM      2  C   UNL     1       2.310   7.182  19.523  0.00  0.00    +0.000 C 
ATOM      3  O   UNL     1       1.390   7.465  20.278  0.00  0.00    +0.000 OA
ATOM      4  C   UNL     1       2.677   7.910  18.265  0.00  0.00    +0.000 C 
ATOM      5  C   UNL     1       2.115   9.013  17.751  0.00  0.00    +0.000 C 
ATOM      6  S   UNL     1       3.956   7.069  17.453  0.00  0.00    +0.000 S 
ATOM      7  C   UNL     1       3.921   5.713  18.582  0.00  0.00    +0.000 C 
ATOM      8  S   UNL     1       4.720   4.281  18.271  0.00  0.00    +0.000 S 
ENDROOT
BRANCH   5   9
ATOM      9  C   UNL     1       1.007   9.724  18.382  0.00  0.00    +0.000 A 
ATOM     10  C   UNL     1      -0.292   9.539  17.912  0.00  0.00    +0.000 A 
ATOM     11  C   UNL     1      -1.332  10.327  18.404  0.00  0.00    +0.000 A 
ATOM     12  C   UNL     1      -1.083  11.303  19.376  0.00  0.00    +0.000 A 
ATOM     13  C   UNL     1      -2.169  12.231  19.827  0.00  0.00    +0.000 C 
ATOM     14  C   UNL     1       0.212  11.438  19.893  0.00  0.00    +0.000 A 
ATOM     15  C   UNL     1       1.254  10.653  19.400  0.00  0.00    +0.000 A 
ENDBRANCH   5   9
BRANCH   1  19
ATOM     16  C   UNL     1       1.604   3.226  21.582  0.00  0.00    +0.000 C 
ATOM     17  C   UNL     1       1.833   4.148  20.411  0.00  0.00    +0.000 C 
ATOM     18  O   UNL     1       1.231   4.021  19.350  0.00  0.00    +0.000 OA
ATOM     19  N   UNL     1       2.769   5.132  20.673  0.00  0.00    +0.000 N 
ATOM     20  H   UNL     1       3.571   4.861  21.242  0.00  0.00    +0.000 HD
ENDBRANCH   1  19
TORSDOF 2
ENDMDL
MODEL 2
REMARK VINA RESULT:      -6.4      5.597      6.968
REMARK  Name = 
REMARK  4 active torsions:
REMARK  status: ('A' for Active; 'I' for Inactive)
REMARK    1  A    between atoms: C_1  and  C_2
REMARK    2  A    between atoms: N_4  and  N_5
REMARK    3  A    between atoms: C_9  and  C_10
REMARK    4  A    between atoms: C_13  and  C_14
REMARK                            x       y       z     vdW  Elec       q    Type
REMARK                         _______ _______ _______ _____ _____    ______ ____
ROOT
ATOM      1  N   UNL     1       5.836   5.858  16.102  0.00  0.00    +0.000 N 
ATOM      2  C   UNL     1       4.986   5.188  16.971  0.00  0.00    +0.000 C 
ATOM      3  O   UNL     1       4.636   5.616  18.061  0.00  0.00    +0.000 OA
ATOM      4  C   UNL     1       4.691   3.825  16.420  0.00  0.00    +0.000 C 
ATOM      5  C   UNL     1       3.968   2.843  16.977  0.00  0.00    +0.000 C 
ATOM      6  S   UNL     1       5.506   3.616  14.905  0.00  0.00    +0.000 S 
ATOM      7  C   UNL     1       6.358   5.156  15.033  0.00  0.00    +0.000 C 
ATOM      8  S   UNL     1       7.629   5.551  14.025  0.00  0.00    +0.000 S 
ENDROOT
BRANCH   5   9
ATOM      9  C   UNL     1       3.304   2.965  18.272  0.00  0.00    +0.000 A 
ATOM     10  C   UNL     1       3.984   2.607  19.434  0.00  0.00    +0.000 A 
ATOM     11  C   UNL     1       3.311   2.573  20.656  0.00  0.00    +0.000 A 
ATOM     12  C   UNL     1       1.952   2.903  20.725  0.00  0.00    +0.000 A 
ATOM     13  C   UNL     1       1.192   2.759  22.008  0.00  0.00    +0.000 C 
ATOM     14  C   UNL     1       1.291   3.327  19.565  0.00  0.00    +0.000 A 
ATOM     15  C   UNL     1       1.963   3.358  18.342  0.00  0.00    +0.000 A 
ENDBRANCH   5   9
BRANCH   1  19
ATOM     16  C   UNL     1       7.937   8.451  17.780  0.00  0.00    +0.000 C 
ATOM     17  C   UNL     1       7.446   7.072  17.419  0.00  0.00    +0.000 C 
ATOM     18  O   UNL     1       7.956   6.055  17.875  0.00  0.00    +0.000 OA
ATOM     19  N   UNL     1       6.374   7.092  16.545  0.00  0.00    +0.000 N 
ATOM     20  H   UNL     1       6.389   7.808  15.818  0.00  0.00    +0.000 HD
ENDBRANCH   1  19
TORSDOF 2
ENDMDL
MODEL 3
REMARK VINA RESULT:      -6.3      0.336      1.154
REMARK  Name = 
REMARK  4 active torsions:
REMARK  status: ('A' for Active; 'I' for Inactive)
REMARK    1  A    between atoms: C_1  and  C_2
REMARK    2  A    between atoms: N_4  and  N_5
REMARK    3  A    between atoms: C_9  and  C_10
REMARK    4  A    between atoms: C_13  and  C_14
REMARK                            x       y       z     vdW  Elec       q    Type
REMARK                         _______ _______ _______ _____ _____    ______ ____
ROOT
ATOM      1  N   UNL     1       3.097   6.085  19.577  0.00  0.00    +0.000 N 
ATOM      2  C   UNL     1       2.385   7.271  19.463  0.00  0.00    +0.000 C 
ATOM      3  O   UNL     1       1.509   7.627  20.238  0.00  0.00    +0.000 OA
ATOM      4  C   UNL     1       2.766   7.955  18.184  0.00  0.00    +0.000 C 
ATOM      5  C   UNL     1       2.267   9.087  17.668  0.00  0.00    +0.000 C 
ATOM      6  S   UNL     1       3.960   7.016  17.350  0.00  0.00    +0.000 S 
ATOM      7  C   UNL     1       3.864   5.682  18.500  0.00  0.00    +0.000 C 
ATOM      8  S   UNL     1       4.553   4.193  18.189  0.00  0.00    +0.000 S 
ENDROOT
BRANCH   5   9
ATOM      9  C   UNL     1       1.229   9.882  18.319  0.00  0.00    +0.000 A 
ATOM     10  C   UNL     1       1.582  10.824  19.283  0.00  0.00    +0.000 A 
ATOM     11  C   UNL     1       0.592  11.476  20.019  0.00  0.00    +0.000 A 
ATOM     12  C   UNL     1      -0.761  11.194  19.792  0.00  0.00    +0.000 A 
ATOM     13  C   UNL     1      -1.826  11.801  20.653  0.00  0.00    +0.000 C 
ATOM     14  C   UNL     1      -1.110  10.296  18.775  0.00  0.00    +0.000 A 
ATOM     15  C   UNL     1      -0.121   9.641  18.041  0.00  0.00    +0.000 A 
ENDBRANCH   5   9
BRANCH   1  19
ATOM     16  C   UNL     1       1.516   3.358  21.581  0.00  0.00    +0.000 C 
ATOM     17  C   UNL     1       1.780   4.239  20.386  0.00  0.00    +0.000 C 
ATOM     18  O   UNL     1       1.188   4.093  19.322  0.00  0.00    +0.000 OA
ATOM     19  N   UNL     1       2.734   5.210  20.631  0.00  0.00    +0.000 N 
ATOM     20  H   UNL     1       3.523   4.938  21.218  0.00  0.00    +0.000 HD
ENDBRANCH   1  19
TORSDOF 2
ENDMDL
MODEL 4
REMARK VINA RESULT:      -6.1      4.321      6.452
REMARK  Name = 
REMARK  4 active torsions:
REMARK  status: ('A' for Active; 'I' for Inactive)
REMARK    1  A    between atoms: C_1  and  C_2
REMARK    2  A    between atoms: N_4  and  N_5
REMARK    3  A    between atoms: C_9  and  C_10
REMARK    4  A    between atoms: C_13  and  C_14
REMARK                            x       y       z     vdW  Elec       q    Type
REMARK                         _______ _______ _______ _____ _____    ______ ____
ROOT
ATOM      1  N   UNL     1      -0.671  10.581  18.902  0.00  0.00    +0.000 N 
ATOM      2  C   UNL     1      -1.149  11.264  20.011  0.00  0.00    +0.000 C 
ATOM      3  O   UNL     1      -1.983  12.157  19.965  0.00  0.00    +0.000 OA
ATOM      4  C   UNL     1      -0.387  10.829  21.227  0.00  0.00    +0.000 C 
ATOM      5  C   UNL     1      -0.493  11.288  22.482  0.00  0.00    +0.000 C 
ATOM      6  S   UNL     1       0.783   9.628  20.786  0.00  0.00    +0.000 S 
ATOM      7  C   UNL     1       0.450   9.788  19.061  0.00  0.00    +0.000 C 
ATOM      8  S   UNL     1       1.447   9.121  17.901  0.00  0.00    +0.000 S 
ENDROOT
BRANCH   5   9
ATOM      9  C   UNL     1      -1.434  12.329  22.883  0.00  0.00    +0.000 A 
ATOM     10  C   UNL     1      -1.021  13.660  22.914  0.00  0.00    +0.000 A 
ATOM     11  C   UNL     1      -1.862  14.640  23.442  0.00  0.00    +0.000 A 
ATOM     12  C   UNL     1      -3.126  14.298  23.938  0.00  0.00    +0.000 A 
ATOM     13  C   UNL     1      -3.990  15.321  24.610  0.00  0.00    +0.000 C 
ATOM     14  C   UNL     1      -3.562  12.970  23.841  0.00  0.00    +0.000 A 
ATOM     15  C   UNL     1      -2.720  11.988  23.317  0.00  0.00    +0.000 A 
ENDBRANCH   5   9
BRANCH   1  19
ATOM     16  C   UNL     1      -2.686  10.944  15.778  0.00  0.00    +0.000 C 
ATOM     17  C   UNL     1      -2.274  10.385  17.116  0.00  0.00    +0.000 C 
ATOM     18  O   UNL     1      -2.890   9.478  17.664  0.00  0.00    +0.000 OA
ATOM     19  N   UNL     1      -1.144  10.994  17.632  0.00  0.00    +0.000 N 
ATOM     20  H   UNL     1      -1.055  11.998  17.476  0.00  0.00    +0.000 HD
ENDBRANCH   1  19
TORSDOF 2
ENDMDL
MODEL 5
REMARK VINA RESULT:      -6.1      4.409      6.450
REMARK  Name = 
REMARK  4 active torsions:
REMARK  status: ('A' for Active; 'I' for Inactive)
REMARK    1  A    between atoms: C_1  and  C_2
REMARK    2  A    between atoms: N_4  and  N_5
REMARK    3  A    between atoms: C_9  and  C_10
REMARK    4  A    between atoms: C_13  and  C_14
REMARK                            x       y       z     vdW  Elec       q    Type
REMARK                         _______ _______ _______ _____ _____    ______ ____
ROOT
ATOM      1  N   UNL     1      -0.746  10.716  19.013  0.00  0.00    +0.000 N 
ATOM      2  C   UNL     1      -1.238  11.359  20.139  0.00  0.00    +0.000 C 
ATOM      3  O   UNL     1      -2.090  12.236  20.117  0.00  0.00    +0.000 OA
ATOM      4  C   UNL     1      -0.468  10.905  21.344  0.00  0.00    +0.000 C 
ATOM      5  C   UNL     1      -0.584  11.328  22.610  0.00  0.00    +0.000 C 
ATOM      6  S   UNL     1       0.726   9.742  20.871  0.00  0.00    +0.000 S 
ATOM      7  C   UNL     1       0.391   9.942  19.151  0.00  0.00    +0.000 C 
ATOM      8  S   UNL     1       1.402   9.327  17.974  0.00  0.00    +0.000 S 
ENDROOT
BRANCH   5   9
ATOM      9  C   UNL     1      -1.547  12.339  23.039  0.00  0.00    +0.000 A 
ATOM     10  C   UNL     1      -2.848  11.961  23.364  0.00  0.00    +0.000 A 
ATOM     11  C   UNL     1      -3.814  12.934  23.625  0.00  0.00    +0.000 A 
ATOM     12  C   UNL     1      -3.484  14.293  23.566  0.00  0.00    +0.000 A 
ATOM     13  C   UNL     1      -4.538  15.346  23.730  0.00  0.00    +0.000 C 
ATOM     14  C   UNL     1      -2.159  14.664  23.305  0.00  0.00    +0.000 A 
ATOM     15  C   UNL     1      -1.193  13.693  23.041  0.00  0.00    +0.000 A 
ENDBRANCH   5   9
BRANCH   1  19
ATOM     16  C   UNL     1      -2.721  11.075  15.863  0.00  0.00    +0.000 C 
ATOM     17  C   UNL     1      -2.292  10.484  17.181  0.00  0.00    +0.000 C 
ATOM     18  O   UNL     1      -2.842   9.502  17.668  0.00  0.00    +0.000 OA
ATOM     19  N   UNL     1      -1.226  11.155  17.754  0.00  0.00    +0.000 N 
ATOM     20  H   UNL     1      -1.216  12.170  17.650  0.00  0.00    +0.000 HD
ENDBRANCH   1  19
TORSDOF 2
ENDMDL
MODEL 6
REMARK VINA RESULT:      -5.9      2.929      6.279
REMARK  Name = 
REMARK  4 active torsions:
REMARK  status: ('A' for Active; 'I' for Inactive)
REMARK    1  A    between atoms: C_1  and  C_2
REMARK    2  A    between atoms: N_4  and  N_5
REMARK    3  A    between atoms: C_9  and  C_10
REMARK    4  A    between atoms: C_13  and  C_14
REMARK                            x       y       z     vdW  Elec       q    Type
REMARK                         _______ _______ _______ _____ _____    ______ ____
ROOT
ATOM      1  N   UNL     1       0.720   9.296  20.050  0.00  0.00    +0.000 N 
ATOM      2  C   UNL     1       1.331   8.099  19.706  0.00  0.00    +0.000 C 
ATOM      3  O   UNL     1       1.258   7.072  20.366  0.00  0.00    +0.000 OA
ATOM      4  C   UNL     1       2.187   8.311  18.493  0.00  0.00    +0.000 C 
ATOM      5  C   UNL     1       2.990   7.430  17.880  0.00  0.00    +0.000 C 
ATOM      6  S   UNL     1       2.071   9.961  17.976  0.00  0.00    +0.000 S 
ATOM      7  C   UNL     1       1.095  10.437  19.366  0.00  0.00    +0.000 C 
ATOM      8  S   UNL     1       0.813  12.038  19.743  0.00  0.00    +0.000 S 
ENDROOT
BRANCH   5   9
ATOM      9  C   UNL     1       3.149   6.045  18.314  0.00  0.00    +0.000 A 
ATOM     10  C   UNL     1       4.262   5.680  19.069  0.00  0.00    +0.000 A 
ATOM     11  C   UNL     1       4.501   4.336  19.356  0.00  0.00    +0.000 A 
ATOM     12  C   UNL     1       3.626   3.346  18.892  0.00  0.00    +0.000 A 
ATOM     13  C   UNL     1       3.935   1.893  19.095  0.00  0.00    +0.000 C 
ATOM     14  C   UNL     1       2.474   3.725  18.192  0.00  0.00    +0.000 A 
ATOM     15  C   UNL     1       2.235   5.068  17.902  0.00  0.00    +0.000 A 
ENDBRANCH   5   9
BRANCH   1  19
ATOM     16  C   UNL     1      -0.136   9.546  23.677  0.00  0.00    +0.000 C 
ATOM     17  C   UNL     1       0.738   9.486  22.450  0.00  0.00    +0.000 C 
ATOM     18  O   UNL     1       1.961   9.556  22.513  0.00  0.00    +0.000 OA
ATOM     19  N   UNL     1       0.017   9.335  21.280  0.00  0.00    +0.000 N 
ATOM     20  H   UNL     1      -0.869   9.837  21.221  0.00  0.00    +0.000 HD
ENDBRANCH   1  19
TORSDOF 2
ENDMDL
MODEL 7
REMARK VINA RESULT:      -5.9      2.838      6.144
REMARK  Name = 
REMARK  4 active torsions:
REMARK  status: ('A' for Active; 'I' for Inactive)
REMARK    1  A    between atoms: C_1  and  C_2
REMARK    2  A    between atoms: N_4  and  N_5
REMARK    3  A    between atoms: C_9  and  C_10
REMARK    4  A    between atoms: C_13  and  C_14
REMARK                            x       y       z     vdW  Elec       q    Type
REMARK                         _______ _______ _______ _____ _____    ______ ____
ROOT
ATOM      1  N   UNL     1       0.816   9.076  19.986  0.00  0.00    +0.000 N 
ATOM      2  C   UNL     1       1.556   7.962  19.618  0.00  0.00    +0.000 C 
ATOM      3  O   UNL     1       1.635   6.936  20.279  0.00  0.00    +0.000 OA
ATOM      4  C   UNL     1       2.334   8.273  18.374  0.00  0.00    +0.000 C 
ATOM      5  C   UNL     1       3.216   7.495  17.731  0.00  0.00    +0.000 C 
ATOM      6  S   UNL     1       1.997   9.894  17.863  0.00  0.00    +0.000 S 
ATOM      7  C   UNL     1       1.022  10.252  19.289  0.00  0.00    +0.000 C 
ATOM      8  S   UNL     1       0.560  11.808  19.678  0.00  0.00    +0.000 S 
ENDROOT
BRANCH   5   9
ATOM      9  C   UNL     1       3.559   6.142  18.157  0.00  0.00    +0.000 A 
ATOM     10  C   UNL     1       2.705   5.083  17.853  0.00  0.00    +0.000 A 
ATOM     11  C   UNL     1       2.945   3.817  18.387  0.00  0.00    +0.000 A 
ATOM     12  C   UNL     1       4.046   3.597  19.224  0.00  0.00    +0.000 A 
ATOM     13  C   UNL     1       4.248   2.272  19.893  0.00  0.00    +0.000 C 
ATOM     14  C   UNL     1       4.938   4.648  19.470  0.00  0.00    +0.000 A 
ATOM     15  C   UNL     1       4.697   5.916  18.940  0.00  0.00    +0.000 A 
ENDBRANCH   5   9
BRANCH   1  19
ATOM     16  C   UNL     1       0.036   9.355  23.628  0.00  0.00    +0.000 C 
ATOM     17  C   UNL     1       0.863   9.416  22.369  0.00  0.00    +0.000 C 
ATOM     18  O   UNL     1       2.039   9.763  22.375  0.00  0.00    +0.000 OA
ATOM     19  N   UNL     1       0.159   9.033  21.241  0.00  0.00    +0.000 N 
ATOM     20  H   UNL     1      -0.819   9.318  21.194  0.00  0.00    +0.000 HD
ENDBRANCH   1  19
TORSDOF 2
ENDMDL
MODEL 8
REMARK VINA RESULT:      -5.9      5.914      7.572
REMARK  Name = 
REMARK  4 active torsions:
REMARK  status: ('A' for Active; 'I' for Inactive)
REMARK    1  A    between atoms: C_1  and  C_2
REMARK    2  A    between atoms: N_4  and  N_5
REMARK    3  A    between atoms: C_9  and  C_10
REMARK    4  A    between atoms: C_13  and  C_14
REMARK                            x       y       z     vdW  Elec       q    Type
REMARK                         _______ _______ _______ _____ _____    ______ ____
ROOT
ATOM      1  N   UNL     1      -3.412  11.482  17.678  0.00  0.00    +0.000 N 
ATOM      2  C   UNL     1      -2.768  11.794  18.866  0.00  0.00    +0.000 C 
ATOM      3  O   UNL     1      -3.132  12.667  19.641  0.00  0.00    +0.000 OA
ATOM      4  C   UNL     1      -1.502  10.995  18.967  0.00  0.00    +0.000 C 
ATOM      5  C   UNL     1      -0.563  11.044  19.922  0.00  0.00    +0.000 C 
ATOM      6  S   UNL     1      -1.340   9.977  17.573  0.00  0.00    +0.000 S 
ATOM      7  C   UNL     1      -2.755  10.667  16.776  0.00  0.00    +0.000 C 
ATOM      8  S   UNL     1      -3.092  10.380  15.167  0.00  0.00    +0.000 S 
ENDROOT
BRANCH   5   9
ATOM      9  C   UNL     1      -0.643  11.921  21.086  0.00  0.00    +0.000 A 
ATOM     10  C   UNL     1      -1.362  11.516  22.209  0.00  0.00    +0.000 A 
ATOM     11  C   UNL     1      -1.572  12.406  23.263  0.00  0.00    +0.000 A 
ATOM     12  C   UNL     1      -1.060  13.708  23.204  0.00  0.00    +0.000 A 
ATOM     13  C   UNL     1      -1.377  14.706  24.275  0.00  0.00    +0.000 C 
ATOM     14  C   UNL     1      -0.281  14.087  22.103  0.00  0.00    +0.000 A 
ATOM     15  C   UNL     1      -0.072  13.199  21.048  0.00  0.00    +0.000 A 
ENDBRANCH   5   9
BRANCH   1  19
ATOM     16  C   UNL     1      -6.891  12.765  17.228  0.00  0.00    +0.000 C 
ATOM     17  C   UNL     1      -5.797  11.810  17.633  0.00  0.00    +0.000 C 
ATOM     18  O   UNL     1      -6.034  10.736  18.174  0.00  0.00    +0.000 OA
ATOM     19  N   UNL     1      -4.532  12.274  17.320  0.00  0.00    +0.000 N 
ATOM     20  H   UNL     1      -4.371  13.275  17.435  0.00  0.00    +0.000 HD
ENDBRANCH   1  19
TORSDOF 2
ENDMDL
MODEL 9
REMARK VINA RESULT:      -5.9      3.626      6.716
REMARK  Name = 
REMARK  4 active torsions:
REMARK  status: ('A' for Active; 'I' for Inactive)
REMARK    1  A    between atoms: C_1  and  C_2
REMARK    2  A    between atoms: N_4  and  N_5
REMARK    3  A    between atoms: C_9  and  C_10
REMARK    4  A    between atoms: C_13  and  C_14
REMARK                            x       y       z     vdW  Elec       q    Type
REMARK                         _______ _______ _______ _____ _____    ______ ____
ROOT
ATOM      1  N   UNL     1      -0.261  10.653  18.635  0.00  0.00    +0.000 N 
ATOM      2  C   UNL     1       0.571   9.549  18.513  0.00  0.00    +0.000 C 
ATOM      3  O   UNL     1       0.758   8.937  17.470  0.00  0.00    +0.000 OA
ATOM      4  C   UNL     1       1.077   9.158  19.870  0.00  0.00    +0.000 C 
ATOM      5  C   UNL     1       1.850   8.114  20.198  0.00  0.00    +0.000 C 
ATOM      6  S   UNL     1       0.447  10.244  21.064  0.00  0.00    +0.000 S 
ATOM      7  C   UNL     1      -0.588  11.083  19.907  0.00  0.00    +0.000 C 
ATOM      8  S   UNL     1      -1.789  12.135  20.393  0.00  0.00    +0.000 S 
ENDROOT
BRANCH   5   9
ATOM      9  C   UNL     1       2.363   7.152  19.226  0.00  0.00    +0.000 A 
ATOM     10  C   UNL     1       1.918   5.832  19.259  0.00  0.00    +0.000 A 
ATOM     11  C   UNL     1       2.513   4.873  18.439  0.00  0.00    +0.000 A 
ATOM     12  C   UNL     1       3.556   5.229  17.575  0.00  0.00    +0.000 A 
ATOM     13  C   UNL     1       4.278   4.188  16.776  0.00  0.00    +0.000 C 
ATOM     14  C   UNL     1       3.952   6.570  17.498  0.00  0.00    +0.000 A 
ATOM     15  C   UNL     1       3.360   7.529  18.320  0.00  0.00    +0.000 A 
ENDBRANCH   5   9
BRANCH   1  19
ATOM     16  C   UNL     1      -2.862  10.982  15.974  0.00  0.00    +0.000 C 
ATOM     17  C   UNL     1      -2.189  10.437  17.208  0.00  0.00    +0.000 C 
ATOM     18  O   UNL     1      -2.680   9.534  17.877  0.00  0.00    +0.000 OA
ATOM     19  N   UNL     1      -0.980  11.053  17.481  0.00  0.00    +0.000 N 
ATOM     20  H   UNL     1      -0.927  12.056  17.301  0.00  0.00    +0.000 HD
ENDBRANCH   1  19
TORSDOF 2
ENDMDL
