MODEL 1
REMARK VINA RESULT:      -7.2      0.000      0.000
REMARK  Name = 
REMARK  5 active torsions:
REMARK  status: ('A' for Active; 'I' for Inactive)
REMARK    1  A    between atoms: C_1  and  C_2
REMARK    2  A    between atoms: N_5  and  O_6
REMARK    3  A    between atoms: O_6  and  C_7
REMARK    4  A    between atoms: C_7  and  C_8
REMARK    5  A    between atoms: C_8  and  O_10
REMARK                            x       y       z     vdW  Elec       q    Type
REMARK                         _______ _______ _______ _____ _____    ______ ____
ROOT
ATOM      1  C   UNL     1       4.819   6.579  16.292  0.00  0.00    +0.000 C 
ATOM      2  C   UNL     1       3.917   6.228  17.437  0.00  0.00    +0.000 C 
ATOM      3  C   UNL     1       3.417   7.124  18.294  0.00  0.00    +0.000 C 
ATOM      4  C   UNL     1       2.488   6.788  19.411  0.00  0.00    +0.000 C 
ATOM      5  N   UNL     1       2.054   7.828  20.080  0.00  0.00    +0.000 NA
ATOM      6  C   UNL     1       2.173   5.329  19.593  0.00  0.00    +0.000 A 
ATOM      7  C   UNL     1       1.382   4.829  20.646  0.00  0.00    +0.000 A 
ATOM      8  C   UNL     1       1.086   3.464  20.764  0.00  0.00    +0.000 A 
ATOM      9  C   UNL     1       1.594   2.560  19.849  0.00  0.00    +0.000 A 
ATOM     10  C   UNL     1       2.403   3.022  18.817  0.00  0.00    +0.000 A 
ATOM     11  C   UNL     1       2.695   4.394  18.690  0.00  0.00    +0.000 A 
ATOM     12  C   UNL     1       3.575   4.797  17.577  0.00  0.00    +0.000 C 
ATOM     13  O   UNL     1       4.014   3.967  16.789  0.00  0.00    +0.000 OA
ENDROOT
BRANCH   5  14
ATOM     14  O   UNL     1       1.123   7.520  21.060  0.00  0.00    +0.000 OA
BRANCH  14  15
ATOM     15  C   UNL     1       0.274   8.631  21.327  0.00  0.00    +0.000 C 
BRANCH  15  16
ATOM     16  C   UNL     1       0.862   9.274  22.565  0.00  0.00    +0.000 C 
ATOM     17  O   UNL     1       0.213   9.827  23.440  0.00  0.00    +0.000 OA
BRANCH  16  18
ATOM     18  O   UNL     1       2.215   9.160  22.631  0.00  0.00    +0.000 OA
ATOM     19  H   UNL     1       2.507   8.249  22.421  0.00  0.00    +0.000 HD
ENDBRANCH  16  18
ENDBRANCH  15  16
ENDBRANCH  14  15
ENDBRANCH   5  14
TORSDOF 4
ENDMDL
MODEL 2
REMARK VINA RESULT:      -7.2      2.293      5.787
REMARK  Name = 
REMARK  5 active torsions:
REMARK  status: ('A' for Active; 'I' for Inactive)
REMARK    1  A    between atoms: C_1  and  C_2
REMARK    2  A    between atoms: N_5  and  O_6
REMARK    3  A    between atoms: O_6  and  C_7
REMARK    4  A    between atoms: C_7  and  C_8
REMARK    5  A    between atoms: C_8  and  O_10
REMARK                            x       y       z     vdW  Elec       q    Type
REMARK                         _______ _______ _______ _____ _____    ______ ____
ROOT
ATOM      1  C   UNL     1       2.188   9.095  18.380  0.00  0.00    +0.000 C 
ATOM      2  C   UNL     1       2.630   7.665  18.449  0.00  0.00    +0.000 C 
ATOM      3  C   UNL     1       3.371   7.068  17.509  0.00  0.00    +0.000 C 
ATOM      4  C   UNL     1       3.848   5.657  17.589  0.00  0.00    +0.000 C 
ATOM      5  N   UNL     1       4.631   5.299  16.600  0.00  0.00    +0.000 NA
ATOM      6  C   UNL     1       3.386   4.870  18.784  0.00  0.00    +0.000 A 
ATOM      7  C   UNL     1       3.674   3.503  18.973  0.00  0.00    +0.000 A 
ATOM      8  C   UNL     1       3.251   2.811  20.116  0.00  0.00    +0.000 A 
ATOM      9  C   UNL     1       2.507   3.458  21.086  0.00  0.00    +0.000 A 
ATOM     10  C   UNL     1       2.181   4.798  20.910  0.00  0.00    +0.000 A 
ATOM     11  C   UNL     1       2.614   5.499  19.768  0.00  0.00    +0.000 A 
ATOM     12  C   UNL     1       2.211   6.913  19.651  0.00  0.00    +0.000 C 
ATOM     13  O   UNL     1       1.544   7.452  20.526  0.00  0.00    +0.000 OA
ENDROOT
BRANCH   5  14
ATOM     14  O   UNL     1       5.143   4.016  16.724  0.00  0.00    +0.000 OA
BRANCH  14  15
ATOM     15  C   UNL     1       5.988   3.694  15.625  0.00  0.00    +0.000 C 
BRANCH  15  16
ATOM     16  C   UNL     1       7.159   4.645  15.750  0.00  0.00    +0.000 C 
ATOM     17  O   UNL     1       7.577   5.360  14.851  0.00  0.00    +0.000 OA
BRANCH  16  18
ATOM     18  O   UNL     1       7.708   4.653  16.994  0.00  0.00    +0.000 OA
ATOM     19  H   UNL     1       8.608   4.269  16.989  0.00  0.00    +0.000 HD
ENDBRANCH  16  18
ENDBRANCH  15  16
ENDBRANCH  14  15
ENDBRANCH   5  14
TORSDOF 4
ENDMDL
MODEL 3
REMARK VINA RESULT:      -7.1      2.931      5.867
REMARK  Name = 
REMARK  5 active torsions:
REMARK  status: ('A' for Active; 'I' for Inactive)
REMARK    1  A    between atoms: C_1  and  C_2
REMARK    2  A    between atoms: N_5  and  O_6
REMARK    3  A    between atoms: O_6  and  C_7
REMARK    4  A    between atoms: C_7  and  C_8
REMARK    5  A    between atoms: C_8  and  O_10
REMARK                            x       y       z     vdW  Elec       q    Type
REMARK                         _______ _______ _______ _____ _____    ______ ____
ROOT
ATOM      1  C   UNL     1       1.944   2.600  21.485  0.00  0.00    +0.000 C 
ATOM      2  C   UNL     1       2.664   3.526  20.551  0.00  0.00    +0.000 C 
ATOM      3  C   UNL     1       3.894   3.300  20.079  0.00  0.00    +0.000 C 
ATOM      4  C   UNL     1       4.601   4.196  19.119  0.00  0.00    +0.000 C 
ATOM      5  N   UNL     1       5.765   3.743  18.721  0.00  0.00    +0.000 NA
ATOM      6  C   UNL     1       3.878   5.457  18.737  0.00  0.00    +0.000 A 
ATOM      7  C   UNL     1       4.434   6.452  17.909  0.00  0.00    +0.000 A 
ATOM      8  C   UNL     1       3.717   7.602  17.550  0.00  0.00    +0.000 A 
ATOM      9  C   UNL     1       2.435   7.800  18.031  0.00  0.00    +0.000 A 
ATOM     10  C   UNL     1       1.873   6.850  18.876  0.00  0.00    +0.000 A 
ATOM     11  C   UNL     1       2.588   5.689  19.230  0.00  0.00    +0.000 A 
ATOM     12  C   UNL     1       1.925   4.740  20.144  0.00  0.00    +0.000 C 
ATOM     13  O   UNL     1       0.791   4.952  20.558  0.00  0.00    +0.000 OA
ENDROOT
BRANCH   5  14
ATOM     14  O   UNL     1       6.379   4.535  17.762  0.00  0.00    +0.000 OA
BRANCH  14  15
ATOM     15  C   UNL     1       7.775   4.657  18.016  0.00  0.00    +0.000 C 
BRANCH  15  16
ATOM     16  C   UNL     1       7.893   5.845  18.947  0.00  0.00    +0.000 C 
ATOM     17  O   UNL     1       8.037   7.003  18.586  0.00  0.00    +0.000 OA
BRANCH  16  18
ATOM     18  O   UNL     1       7.799   5.503  20.260  0.00  0.00    +0.000 OA
ATOM     19  H   UNL     1       6.866   5.369  20.527  0.00  0.00    +0.000 HD
ENDBRANCH  16  18
ENDBRANCH  15  16
ENDBRANCH  14  15
ENDBRANCH   5  14
TORSDOF 4
ENDMDL
MODEL 4
REMARK VINA RESULT:      -7.0      3.396      4.803
REMARK  Name = 
REMARK  5 active torsions:
REMARK  status: ('A' for Active; 'I' for Inactive)
REMARK    1  A    between atoms: C_1  and  C_2
REMARK    2  A    between atoms: N_5  and  O_6
REMARK    3  A    between atoms: O_6  and  C_7
REMARK    4  A    between atoms: C_7  and  C_8
REMARK    5  A    between atoms: C_8  and  O_10
REMARK                            x       y       z     vdW  Elec       q    Type
REMARK                         _______ _______ _______ _____ _____    ______ ____
ROOT
ATOM      1  C   UNL     1       6.753   4.398  15.029  0.00  0.00    +0.000 C 
ATOM      2  C   UNL     1       5.585   4.585  15.950  0.00  0.00    +0.000 C 
ATOM      3  C   UNL     1       4.880   3.577  16.474  0.00  0.00    +0.000 C 
ATOM      4  C   UNL     1       3.742   3.754  17.421  0.00  0.00    +0.000 C 
ATOM      5  N   UNL     1       3.245   2.630  17.878  0.00  0.00    +0.000 NA
ATOM      6  C   UNL     1       3.350   5.173  17.727  0.00  0.00    +0.000 A 
ATOM      7  C   UNL     1       2.248   5.519  18.534  0.00  0.00    +0.000 A 
ATOM      8  C   UNL     1       1.933   6.854  18.820  0.00  0.00    +0.000 A 
ATOM      9  C   UNL     1       2.694   7.879  18.287  0.00  0.00    +0.000 A 
ATOM     10  C   UNL     1       3.768   7.567  17.461  0.00  0.00    +0.000 A 
ATOM     11  C   UNL     1       4.094   6.226  17.180  0.00  0.00    +0.000 A 
ATOM     12  C   UNL     1       5.238   5.984  16.282  0.00  0.00    +0.000 C 
ATOM     13  O   UNL     1       5.886   6.916  15.820  0.00  0.00    +0.000 OA
ENDROOT
BRANCH   5  14
ATOM     14  O   UNL     1       2.246   2.800  18.825  0.00  0.00    +0.000 OA
BRANCH  14  15
ATOM     15  C   UNL     1       2.679   2.361  20.109  0.00  0.00    +0.000 C 
BRANCH  15  16
ATOM     16  C   UNL     1       1.521   2.677  21.032  0.00  0.00    +0.000 C 
ATOM     17  O   UNL     1       1.540   2.544  22.247  0.00  0.00    +0.000 OA
BRANCH  16  18
ATOM     18  O   UNL     1       0.432   3.158  20.375  0.00  0.00    +0.000 OA
ATOM     19  H   UNL     1       0.664   3.450  19.469  0.00  0.00    +0.000 HD
ENDBRANCH  16  18
ENDBRANCH  15  16
ENDBRANCH  14  15
ENDBRANCH   5  14
TORSDOF 4
ENDMDL
MODEL 5
REMARK VINA RESULT:      -7.0      2.366      5.997
REMARK  Name = 
REMARK  5 active torsions:
REMARK  status: ('A' for Active; 'I' for Inactive)
REMARK    1  A    between atoms: C_1  and  C_2
REMARK    2  A    between atoms: N_5  and  O_6
REMARK    3  A    between atoms: O_6  and  C_7
REMARK    4  A    between atoms: C_7  and  C_8
REMARK    5  A    between atoms: C_8  and  O_10
REMARK                            x       y       z     vdW  Elec       q    Type
REMARK                         _______ _______ _______ _____ _____    ______ ____
ROOT
ATOM      1  C   UNL     1       1.992   8.048  19.795  0.00  0.00    +0.000 C 
ATOM      2  C   UNL     1       2.468   6.772  19.169  0.00  0.00    +0.000 C 
ATOM      3  C   UNL     1       3.290   6.720  18.115  0.00  0.00    +0.000 C 
ATOM      4  C   UNL     1       3.799   5.456  17.511  0.00  0.00    +0.000 C 
ATOM      5  N   UNL     1       4.659   5.635  16.538  0.00  0.00    +0.000 NA
ATOM      6  C   UNL     1       3.277   4.180  18.110  0.00  0.00    +0.000 A 
ATOM      7  C   UNL     1       3.590   2.900  17.609  0.00  0.00    +0.000 A 
ATOM      8  C   UNL     1       3.107   1.731  18.214  0.00  0.00    +0.000 A 
ATOM      9  C   UNL     1       2.279   1.811  19.320  0.00  0.00    +0.000 A 
ATOM     10  C   UNL     1       1.929   3.062  19.817  0.00  0.00    +0.000 A 
ATOM     11  C   UNL     1       2.420   4.237  19.217  0.00  0.00    +0.000 A 
ATOM     12  C   UNL     1       1.987   5.523  19.796  0.00  0.00    +0.000 C 
ATOM     13  O   UNL     1       1.246   5.556  20.771  0.00  0.00    +0.000 OA
ENDROOT
BRANCH   5  14
ATOM     14  O   UNL     1       5.197   4.458  16.039  0.00  0.00    +0.000 OA
BRANCH  14  15
ATOM     15  C   UNL     1       5.674   4.637  14.709  0.00  0.00    +0.000 C 
BRANCH  15  16
ATOM     16  C   UNL     1       7.141   4.976  14.871  0.00  0.00    +0.000 C 
ATOM     17  O   UNL     1       7.841   5.478  14.004  0.00  0.00    +0.000 OA
BRANCH  16  18
ATOM     18  O   UNL     1       7.621   4.686  16.109  0.00  0.00    +0.000 OA
ATOM     19  H   UNL     1       6.959   4.885  16.803  0.00  0.00    +0.000 HD
ENDBRANCH  16  18
ENDBRANCH  15  16
ENDBRANCH  14  15
ENDBRANCH   5  14
TORSDOF 4
ENDMDL
MODEL 6
REMARK VINA RESULT:      -7.0      2.662      6.283
REMARK  Name = 
REMARK  5 active torsions:
REMARK  status: ('A' for Active; 'I' for Inactive)
REMARK    1  A    between atoms: C_1  and  C_2
REMARK    2  A    between atoms: N_5  and  O_6
REMARK    3  A    between atoms: O_6  and  C_7
REMARK    4  A    between atoms: C_7  and  C_8
REMARK    5  A    between atoms: C_8  and  O_10
REMARK                            x       y       z     vdW  Elec       q    Type
REMARK                         _______ _______ _______ _____ _____    ______ ____
ROOT
ATOM      1  C   UNL     1       1.703   2.531  20.888  0.00  0.00    +0.000 C 
ATOM      2  C   UNL     1       2.319   3.464  19.889  0.00  0.00    +0.000 C 
ATOM      3  C   UNL     1       3.171   3.076  18.934  0.00  0.00    +0.000 C 
ATOM      4  C   UNL     1       3.757   3.991  17.913  0.00  0.00    +0.000 C 
ATOM      5  N   UNL     1       4.503   3.388  17.018  0.00  0.00    +0.000 NA
ATOM      6  C   UNL     1       3.398   5.445  18.043  0.00  0.00    +0.000 A 
ATOM      7  C   UNL     1       3.929   6.454  17.216  0.00  0.00    +0.000 A 
ATOM      8  C   UNL     1       3.546   7.796  17.349  0.00  0.00    +0.000 A 
ATOM      9  C   UNL     1       2.644   8.168  18.329  0.00  0.00    +0.000 A 
ATOM     10  C   UNL     1       2.128   7.197  19.180  0.00  0.00    +0.000 A 
ATOM     11  C   UNL     1       2.503   5.847  19.042  0.00  0.00    +0.000 A 
ATOM     12  C   UNL     1       1.922   4.884  19.996  0.00  0.00    +0.000 C 
ATOM     13  O   UNL     1       1.131   5.250  20.858  0.00  0.00    +0.000 OA
ENDROOT
BRANCH   5  14
ATOM     14  O   UNL     1       4.974   4.228  16.020  0.00  0.00    +0.000 OA
BRANCH  14  15
ATOM     15  C   UNL     1       6.321   3.914  15.681  0.00  0.00    +0.000 C 
BRANCH  15  16
ATOM     16  C   UNL     1       7.158   4.799  16.580  0.00  0.00    +0.000 C 
ATOM     17  O   UNL     1       7.497   5.943  16.314  0.00  0.00    +0.000 OA
BRANCH  16  18
ATOM     18  O   UNL     1       7.493   4.200  17.753  0.00  0.00    +0.000 OA
ATOM     19  H   UNL     1       6.960   4.551  18.497  0.00  0.00    +0.000 HD
ENDBRANCH  16  18
ENDBRANCH  15  16
ENDBRANCH  14  15
ENDBRANCH   5  14
TORSDOF 4
ENDMDL
MODEL 7
REMARK VINA RESULT:      -6.9      3.279      4.874
REMARK  Name = 
REMARK  5 active torsions:
REMARK  status: ('A' for Active; 'I' for Inactive)
REMARK    1  A    between atoms: C_1  and  C_2
REMARK    2  A    between atoms: N_5  and  O_6
REMARK    3  A    between atoms: O_6  and  C_7
REMARK    4  A    between atoms: C_7  and  C_8
REMARK    5  A    between atoms: C_8  and  O_10
REMARK                            x       y       z     vdW  Elec       q    Type
REMARK                         _______ _______ _______ _____ _____    ______ ____
ROOT
ATOM      1  C   UNL     1       6.579   4.333  15.282  0.00  0.00    +0.000 C 
ATOM      2  C   UNL     1       5.614   4.695  16.370  0.00  0.00    +0.000 C 
ATOM      3  C   UNL     1       5.278   3.875  17.372  0.00  0.00    +0.000 C 
ATOM      4  C   UNL     1       4.350   4.242  18.480  0.00  0.00    +0.000 C 
ATOM      5  N   UNL     1       4.224   3.319  19.402  0.00  0.00    +0.000 NA
ATOM      6  C   UNL     1       3.719   5.604  18.390  0.00  0.00    +0.000 A 
ATOM      7  C   UNL     1       2.758   6.078  19.305  0.00  0.00    +0.000 A 
ATOM      8  C   UNL     1       2.215   7.367  19.206  0.00  0.00    +0.000 A 
ATOM      9  C   UNL     1       2.599   8.205  18.175  0.00  0.00    +0.000 A 
ATOM     10  C   UNL     1       3.522   7.752  17.239  0.00  0.00    +0.000 A 
ATOM     11  C   UNL     1       4.077   6.462  17.343  0.00  0.00    +0.000 A 
ATOM     12  C   UNL     1       5.037   6.054  16.299  0.00  0.00    +0.000 C 
ATOM     13  O   UNL     1       5.348   6.821  15.395  0.00  0.00    +0.000 OA
ENDROOT
BRANCH   5  14
ATOM     14  O   UNL     1       3.430   3.698  20.474  0.00  0.00    +0.000 OA
BRANCH  14  15
ATOM     15  C   UNL     1       2.615   2.617  20.916  0.00  0.00    +0.000 C 
BRANCH  15  16
ATOM     16  C   UNL     1       1.542   2.487  19.856  0.00  0.00    +0.000 C 
ATOM     17  O   UNL     1       0.538   3.181  19.790  0.00  0.00    +0.000 OA
BRANCH  16  18
ATOM     18  O   UNL     1       1.812   1.517  18.942  0.00  0.00    +0.000 OA
ATOM     19  H   UNL     1       2.568   1.767  18.370  0.00  0.00    +0.000 HD
ENDBRANCH  16  18
ENDBRANCH  15  16
ENDBRANCH  14  15
ENDBRANCH   5  14
TORSDOF 4
ENDMDL
MODEL 8
REMARK VINA RESULT:      -6.9      2.317      5.545
REMARK  Name = 
REMARK  5 active torsions:
REMARK  status: ('A' for Active; 'I' for Inactive)
REMARK    1  A    between atoms: C_1  and  C_2
REMARK    2  A    between atoms: N_5  and  O_6
REMARK    3  A    between atoms: O_6  and  C_7
REMARK    4  A    between atoms: C_7  and  C_8
REMARK    5  A    between atoms: C_8  and  O_10
REMARK                            x       y       z     vdW  Elec       q    Type
REMARK                         _______ _______ _______ _____ _____    ______ ____
ROOT
ATOM      1  C   UNL     1       1.938   7.952  20.245  0.00  0.00    +0.000 C 
ATOM      2  C   UNL     1       2.416   6.757  19.477  0.00  0.00    +0.000 C 
ATOM      3  C   UNL     1       3.181   6.831  18.382  0.00  0.00    +0.000 C 
ATOM      4  C   UNL     1       3.693   5.646  17.637  0.00  0.00    +0.000 C 
ATOM      5  N   UNL     1       4.493   5.943  16.642  0.00  0.00    +0.000 NA
ATOM      6  C   UNL     1       3.242   4.303  18.139  0.00  0.00    +0.000 A 
ATOM      7  C   UNL     1       3.563   3.086  17.504  0.00  0.00    +0.000 A 
ATOM      8  C   UNL     1       3.148   1.851  18.020  0.00  0.00    +0.000 A 
ATOM      9  C   UNL     1       2.380   1.800  19.169  0.00  0.00    +0.000 A 
ATOM     10  C   UNL     1       2.021   2.987  19.799  0.00  0.00    +0.000 A 
ATOM     11  C   UNL     1       2.445   4.229  19.288  0.00  0.00    +0.000 A 
ATOM     12  C   UNL     1       2.006   5.439  20.007  0.00  0.00    +0.000 C 
ATOM     13  O   UNL     1       1.319   5.357  21.018  0.00  0.00    +0.000 OA
ENDROOT
BRANCH   5  14
ATOM     14  O   UNL     1       5.037   4.837  16.007  0.00  0.00    +0.000 OA
BRANCH  14  15
ATOM     15  C   UNL     1       6.260   5.169  15.357  0.00  0.00    +0.000 C 
BRANCH  15  16
ATOM     16  C   UNL     1       7.241   5.408  16.486  0.00  0.00    +0.000 C 
ATOM     17  O   UNL     1       7.780   4.528  17.140  0.00  0.00    +0.000 OA
BRANCH  16  18
ATOM     18  O   UNL     1       7.495   6.727  16.700  0.00  0.00    +0.000 OA
ATOM     19  H   UNL     1       8.330   7.003  16.268  0.00  0.00    +0.000 HD
ENDBRANCH  16  18
ENDBRANCH  15  16
ENDBRANCH  14  15
ENDBRANCH   5  14
TORSDOF 4
ENDMDL
MODEL 9
REMARK VINA RESULT:      -6.8      2.697      5.110
REMARK  Name = 
REMARK  5 active torsions:
REMARK  status: ('A' for Active; 'I' for Inactive)
REMARK    1  A    between atoms: C_1  and  C_2
REMARK    2  A    between atoms: N_5  and  O_6
REMARK    3  A    between atoms: O_6  and  C_7
REMARK    4  A    between atoms: C_7  and  C_8
REMARK    5  A    between atoms: C_8  and  O_10
REMARK                            x       y       z     vdW  Elec       q    Type
REMARK                         _______ _______ _______ _____ _____    ______ ____
ROOT
ATOM      1  C   UNL     1       1.920   8.693  18.595  0.00  0.00    +0.000 C 
ATOM      2  C   UNL     1       2.612   7.371  18.739  0.00  0.00    +0.000 C 
ATOM      3  C   UNL     1       3.645   6.984  17.982  0.00  0.00    +0.000 C 
ATOM      4  C   UNL     1       4.364   5.688  18.146  0.00  0.00    +0.000 C 
ATOM      5  N   UNL     1       5.399   5.546  17.354  0.00  0.00    +0.000 NA
ATOM      6  C   UNL     1       3.818   4.756  19.191  0.00  0.00    +0.000 A 
ATOM      7  C   UNL     1       4.323   3.461  19.419  0.00  0.00    +0.000 A 
ATOM      8  C   UNL     1       3.807   2.632  20.425  0.00  0.00    +0.000 A 
ATOM      9  C   UNL     1       2.755   3.066  21.211  0.00  0.00    +0.000 A 
ATOM     10  C   UNL     1       2.215   4.328  20.987  0.00  0.00    +0.000 A 
ATOM     11  C   UNL     1       2.739   5.166  19.984  0.00  0.00    +0.000 A 
ATOM     12  C   UNL     1       2.098   6.482  19.802  0.00  0.00    +0.000 C 
ATOM     13  O   UNL     1       1.162   6.830  20.512  0.00  0.00    +0.000 OA
ENDROOT
BRANCH   5  14
ATOM     14  O   UNL     1       6.117   4.379  17.570  0.00  0.00    +0.000 OA
BRANCH  14  15
ATOM     15  C   UNL     1       7.510   4.649  17.689  0.00  0.00    +0.000 C 
BRANCH  15  16
ATOM     16  C   UNL     1       7.616   5.617  18.849  0.00  0.00    +0.000 C 
ATOM     17  O   UNL     1       7.453   5.319  20.023  0.00  0.00    +0.000 OA
BRANCH  16  18
ATOM     18  O   UNL     1       7.939   6.879  18.461  0.00  0.00    +0.000 OA
ATOM     19  H   UNL     1       8.316   7.394  19.204  0.00  0.00    +0.000 HD
ENDBRANCH  16  18
ENDBRANCH  15  16
ENDBRANCH  14  15
ENDBRANCH   5  14
TORSDOF 4
ENDMDL
