MODEL 1
REMARK VINA RESULT:      -6.7      0.000      0.000
REMARK  Name = 
REMARK  3 active torsions:
REMARK  status: ('A' for Active; 'I' for Inactive)
REMARK    1  A    between atoms: C_1  and  C_2
REMARK    2  A    between atoms: C_7  and  C_9
REMARK    3  A    between atoms: N_11  and  C_12
REMARK                            x       y       z     vdW  Elec       q    Type
REMARK                         _______ _______ _______ _____ _____    ______ ____
ROOT
ATOM      1  C   UNL     1      -0.110   9.841  20.992  0.00  0.00    +0.000 C 
ATOM      2  C   UNL     1       0.844   9.118  20.098  0.00  0.00    +0.000 A 
ATOM      3  C   UNL     1       1.098   9.505  18.783  0.00  0.00    +0.000 A 
ATOM      4  C   UNL     1       2.007   8.775  18.001  0.00  0.00    +0.000 A 
ATOM      5  C   UNL     1       2.640   7.671  18.556  0.00  0.00    +0.000 A 
ATOM      6  N   UNL     1       3.559   6.941  17.784  0.00  0.00    +0.000 N 
ATOM      7  C   UNL     1       4.223   5.818  18.252  0.00  0.00    +0.000 C 
ATOM      8  O   UNL     1       4.047   5.280  19.340  0.00  0.00    +0.000 OA
ATOM      9  N   UNL     1       2.398   7.296  19.824  0.00  0.00    +0.000 NA
ATOM     10  C   UNL     1       1.524   8.006  20.565  0.00  0.00    +0.000 A 
ATOM     11  H   UNL     1       3.782   7.237  16.844  0.00  0.00    +0.000 HD
ENDROOT
BRANCH   7  12
ATOM     12  C   UNL     1       5.224   5.270  17.307  0.00  0.00    +0.000 A 
ATOM     13  N   UNL     1       4.893   4.777  16.086  0.00  0.00    +0.000 NA
ATOM     14  N   UNL     1       6.084   4.418  15.550  0.00  0.00    +0.000 N 
ATOM     15  C   UNL     1       6.172   3.889  14.209  0.00  0.00    +0.000 C 
ATOM     16  C   UNL     1       7.151   4.644  16.363  0.00  0.00    +0.000 A 
ATOM     17  C   UNL     1       6.629   5.193  17.500  0.00  0.00    +0.000 A 
ATOM     18 BR   UNL     1       7.632   5.754  18.980  0.00  0.00    +0.000 Br
ENDBRANCH   7  12
TORSDOF 1
ENDMDL
MODEL 2
REMARK VINA RESULT:      -6.6      4.701      5.671
REMARK  Name = 
REMARK  3 active torsions:
REMARK  status: ('A' for Active; 'I' for Inactive)
REMARK    1  A    between atoms: C_1  and  C_2
REMARK    2  A    between atoms: C_7  and  C_9
REMARK    3  A    between atoms: N_11  and  C_12
REMARK                            x       y       z     vdW  Elec       q    Type
REMARK                         _______ _______ _______ _____ _____    ______ ____
ROOT
ATOM      1  C   UNL     1      10.372  12.749  19.936  0.00  0.00    +0.000 C 
ATOM      2  C   UNL     1       9.629  11.665  19.226  0.00  0.00    +0.000 A 
ATOM      3  C   UNL     1       8.867  11.889  18.080  0.00  0.00    +0.000 A 
ATOM      4  C   UNL     1       8.193  10.821  17.467  0.00  0.00    +0.000 A 
ATOM      5  C   UNL     1       8.297   9.551  18.021  0.00  0.00    +0.000 A 
ATOM      6  N   UNL     1       7.635   8.474  17.408  0.00  0.00    +0.000 N 
ATOM      7  C   UNL     1       7.670   7.179  17.901  0.00  0.00    +0.000 C 
ATOM      8  O   UNL     1       8.203   6.823  18.947  0.00  0.00    +0.000 OA
ATOM      9  N   UNL     1       9.031   9.332  19.125  0.00  0.00    +0.000 NA
ATOM     10  C   UNL     1       9.675  10.367  19.702  0.00  0.00    +0.000 A 
ATOM     11  H   UNL     1       7.114   8.616  16.554  0.00  0.00    +0.000 HD
ENDROOT
BRANCH   7  12
ATOM     12  C   UNL     1       6.990   6.185  17.038  0.00  0.00    +0.000 A 
ATOM     13  N   UNL     1       7.416   5.882  15.785  0.00  0.00    +0.000 NA
ATOM     14  N   UNL     1       6.549   4.927  15.373  0.00  0.00    +0.000 N 
ATOM     15  C   UNL     1       6.696   4.287  14.086  0.00  0.00    +0.000 C 
ATOM     16  C   UNL     1       5.591   4.613  16.286  0.00  0.00    +0.000 A 
ATOM     17  C   UNL     1       5.849   5.406  17.368  0.00  0.00    +0.000 A 
ATOM     18 BR   UNL     1       4.872   5.392  18.967  0.00  0.00    +0.000 Br
ENDBRANCH   7  12
TORSDOF 1
ENDMDL
MODEL 3
REMARK VINA RESULT:      -6.4      4.038      4.152
REMARK  Name = 
REMARK  3 active torsions:
REMARK  status: ('A' for Active; 'I' for Inactive)
REMARK    1  A    between atoms: C_1  and  C_2
REMARK    2  A    between atoms: C_7  and  C_9
REMARK    3  A    between atoms: N_11  and  C_12
REMARK                            x       y       z     vdW  Elec       q    Type
REMARK                         _______ _______ _______ _____ _____    ______ ____
ROOT
ATOM      1  C   UNL     1       0.998   2.431  22.121  0.00  0.00    +0.000 C 
ATOM      2  C   UNL     1       1.756   2.706  20.863  0.00  0.00    +0.000 A 
ATOM      3  C   UNL     1       1.199   2.567  19.593  0.00  0.00    +0.000 A 
ATOM      4  C   UNL     1       1.973   2.841  18.455  0.00  0.00    +0.000 A 
ATOM      5  C   UNL     1       3.292   3.245  18.617  0.00  0.00    +0.000 A 
ATOM      6  N   UNL     1       4.071   3.531  17.484  0.00  0.00    +0.000 N 
ATOM      7  C   UNL     1       5.398   3.924  17.552  0.00  0.00    +0.000 C 
ATOM      8  O   UNL     1       6.074   3.998  18.573  0.00  0.00    +0.000 OA
ATOM      9  N   UNL     1       3.832   3.380  19.840  0.00  0.00    +0.000 NA
ATOM     10  C   UNL     1       3.076   3.115  20.925  0.00  0.00    +0.000 A 
ATOM     11  H   UNL     1       3.665   3.475  16.560  0.00  0.00    +0.000 HD
ENDROOT
BRANCH   7  12
ATOM     12  C   UNL     1       5.993   4.276  16.242  0.00  0.00    +0.000 A 
ATOM     13  N   UNL     1       5.830   3.515  15.130  0.00  0.00    +0.000 NA
ATOM     14  N   UNL     1       6.497   4.199  14.170  0.00  0.00    +0.000 N 
ATOM     15  C   UNL     1       6.517   3.741  12.800  0.00  0.00    +0.000 C 
ATOM     16  C   UNL     1       7.083   5.345  14.610  0.00  0.00    +0.000 A 
ATOM     17  C   UNL     1       6.775   5.422  15.938  0.00  0.00    +0.000 A 
ATOM     18 BR   UNL     1       7.284   6.819  17.080  0.00  0.00    +0.000 Br
ENDBRANCH   7  12
TORSDOF 1
ENDMDL
MODEL 4
REMARK VINA RESULT:      -6.2      1.805      2.008
REMARK  Name = 
REMARK  3 active torsions:
REMARK  status: ('A' for Active; 'I' for Inactive)
REMARK    1  A    between atoms: C_1  and  C_2
REMARK    2  A    between atoms: C_7  and  C_9
REMARK    3  A    between atoms: N_11  and  C_12
REMARK                            x       y       z     vdW  Elec       q    Type
REMARK                         _______ _______ _______ _____ _____    ______ ____
ROOT
ATOM      1  C   UNL     1      -0.255  10.696  21.613  0.00  0.00    +0.000 C 
ATOM      2  C   UNL     1       0.525   9.828  20.680  0.00  0.00    +0.000 A 
ATOM      3  C   UNL     1       0.708  10.132  19.331  0.00  0.00    +0.000 A 
ATOM      4  C   UNL     1       1.452   9.268  18.513  0.00  0.00    +0.000 A 
ATOM      5  C   UNL     1       1.995   8.115  19.067  0.00  0.00    +0.000 A 
ATOM      6  N   UNL     1       2.750   7.250  18.258  0.00  0.00    +0.000 N 
ATOM      7  C   UNL     1       3.314   6.072  18.722  0.00  0.00    +0.000 C 
ATOM      8  O   UNL     1       3.170   5.601  19.846  0.00  0.00    +0.000 OA
ATOM      9  N   UNL     1       1.821   7.820  20.367  0.00  0.00    +0.000 NA
ATOM     10  C   UNL     1       1.106   8.660  21.141  0.00  0.00    +0.000 A 
ATOM     11  H   UNL     1       2.925   7.481  17.290  0.00  0.00    +0.000 HD
ENDROOT
BRANCH   7  12
ATOM     12  C   UNL     1       4.156   5.371  17.726  0.00  0.00    +0.000 A 
ATOM     13  N   UNL     1       5.278   5.919  17.193  0.00  0.00    +0.000 NA
ATOM     14  N   UNL     1       5.749   4.952  16.370  0.00  0.00    +0.000 N 
ATOM     15  C   UNL     1       6.985   5.124  15.642  0.00  0.00    +0.000 C 
ATOM     16  C   UNL     1       4.987   3.826  16.342  0.00  0.00    +0.000 A 
ATOM     17  C   UNL     1       3.956   4.065  17.205  0.00  0.00    +0.000 A 
ATOM     18 BR   UNL     1       2.591   2.847  17.612  0.00  0.00    +0.000 Br
ENDBRANCH   7  12
TORSDOF 1
ENDMDL
MODEL 5
REMARK VINA RESULT:      -6.1      3.234      6.734
REMARK  Name = 
REMARK  3 active torsions:
REMARK  status: ('A' for Active; 'I' for Inactive)
REMARK    1  A    between atoms: C_1  and  C_2
REMARK    2  A    between atoms: C_7  and  C_9
REMARK    3  A    between atoms: N_11  and  C_12
REMARK                            x       y       z     vdW  Elec       q    Type
REMARK                         _______ _______ _______ _____ _____    ______ ____
ROOT
ATOM      1  C   UNL     1       7.646   4.877  12.836  0.00  0.00    +0.000 C 
ATOM      2  C   UNL     1       6.923   4.772  14.139  0.00  0.00    +0.000 A 
ATOM      3  C   UNL     1       7.498   5.123  15.360  0.00  0.00    +0.000 A 
ATOM      4  C   UNL     1       6.758   4.995  16.545  0.00  0.00    +0.000 A 
ATOM      5  C   UNL     1       5.457   4.515  16.480  0.00  0.00    +0.000 A 
ATOM      6  N   UNL     1       4.705   4.394  17.660  0.00  0.00    +0.000 N 
ATOM      7  C   UNL     1       3.407   3.909  17.690  0.00  0.00    +0.000 C 
ATOM      8  O   UNL     1       2.785   3.461  16.732  0.00  0.00    +0.000 OA
ATOM      9  N   UNL     1       4.899   4.176  15.305  0.00  0.00    +0.000 NA
ATOM     10  C   UNL     1       5.621   4.305  14.173  0.00  0.00    +0.000 A 
ATOM     11  H   UNL     1       5.097   4.685  18.545  0.00  0.00    +0.000 HD
ENDROOT
BRANCH   7  12
ATOM     12  C   UNL     1       2.770   3.968  19.026  0.00  0.00    +0.000 A 
ATOM     13  N   UNL     1       2.500   2.861  19.764  0.00  0.00    +0.000 NA
ATOM     14  N   UNL     1       1.958   3.356  20.902  0.00  0.00    +0.000 N 
ATOM     15  C   UNL     1       1.579   2.487  21.991  0.00  0.00    +0.000 C 
ATOM     16  C   UNL     1       1.859   4.713  20.926  0.00  0.00    +0.000 A 
ATOM     17  C   UNL     1       2.374   5.134  19.733  0.00  0.00    +0.000 A 
ATOM     18 BR   UNL     1       2.536   6.925  19.206  0.00  0.00    +0.000 Br
ENDBRANCH   7  12
TORSDOF 1
ENDMDL
MODEL 6
REMARK VINA RESULT:      -6.1      2.214      3.008
REMARK  Name = 
REMARK  3 active torsions:
REMARK  status: ('A' for Active; 'I' for Inactive)
REMARK    1  A    between atoms: C_1  and  C_2
REMARK    2  A    between atoms: C_7  and  C_9
REMARK    3  A    between atoms: N_11  and  C_12
REMARK                            x       y       z     vdW  Elec       q    Type
REMARK                         _______ _______ _______ _____ _____    ______ ____
ROOT
ATOM      1  C   UNL     1      -0.518  11.804  21.856  0.00  0.00    +0.000 C 
ATOM      2  C   UNL     1       0.201  10.577  21.399  0.00  0.00    +0.000 A 
ATOM      3  C   UNL     1       0.550   9.534  22.257  0.00  0.00    +0.000 A 
ATOM      4  C   UNL     1       1.227   8.412  21.756  0.00  0.00    +0.000 A 
ATOM      5  C   UNL     1       1.542   8.362  20.404  0.00  0.00    +0.000 A 
ATOM      6  N   UNL     1       2.211   7.237  19.892  0.00  0.00    +0.000 N 
ATOM      7  C   UNL     1       2.578   7.110  18.562  0.00  0.00    +0.000 C 
ATOM      8  O   UNL     1       2.443   7.968  17.694  0.00  0.00    +0.000 OA
ATOM      9  N   UNL     1       1.207   9.365  19.574  0.00  0.00    +0.000 NA
ATOM     10  C   UNL     1       0.555  10.436  20.068  0.00  0.00    +0.000 A 
ATOM     11  H   UNL     1       2.431   6.458  20.496  0.00  0.00    +0.000 HD
ENDROOT
BRANCH   7  12
ATOM     12  C   UNL     1       3.177   5.799  18.222  0.00  0.00    +0.000 A 
ATOM     13  N   UNL     1       2.521   4.623  18.394  0.00  0.00    +0.000 NA
ATOM     14  N   UNL     1       3.398   3.696  17.939  0.00  0.00    +0.000 N 
ATOM     15  C   UNL     1       3.051   2.294  17.898  0.00  0.00    +0.000 C 
ATOM     16  C   UNL     1       4.575   4.213  17.498  0.00  0.00    +0.000 A 
ATOM     17  C   UNL     1       4.462   5.564  17.666  0.00  0.00    +0.000 A 
ATOM     18 BR   UNL     1       5.773   6.819  17.197  0.00  0.00    +0.000 Br
ENDBRANCH   7  12
TORSDOF 1
ENDMDL
MODEL 7
REMARK VINA RESULT:      -6.1      2.468      3.251
REMARK  Name = 
REMARK  3 active torsions:
REMARK  status: ('A' for Active; 'I' for Inactive)
REMARK    1  A    between atoms: C_1  and  C_2
REMARK    2  A    between atoms: C_7  and  C_9
REMARK    3  A    between atoms: N_11  and  C_12
REMARK                            x       y       z     vdW  Elec       q    Type
REMARK                         _______ _______ _______ _____ _____    ______ ____
ROOT
ATOM      1  C   UNL     1      -1.073  11.834  20.859  0.00  0.00    +0.000 C 
ATOM      2  C   UNL     1      -0.206  10.624  20.736  0.00  0.00    +0.000 A 
ATOM      3  C   UNL     1       0.091   9.787  21.812  0.00  0.00    +0.000 A 
ATOM      4  C   UNL     1       0.916   8.668  21.621  0.00  0.00    +0.000 A 
ATOM      5  C   UNL     1       1.427   8.414  20.355  0.00  0.00    +0.000 A 
ATOM      6  N   UNL     1       2.246   7.290  20.153  0.00  0.00    +0.000 N 
ATOM      7  C   UNL     1       2.811   6.970  18.929  0.00  0.00    +0.000 C 
ATOM      8  O   UNL     1       2.740   7.644  17.907  0.00  0.00    +0.000 OA
ATOM      9  N   UNL     1       1.143   9.218  19.316  0.00  0.00    +0.000 NA
ATOM     10  C   UNL     1       0.348  10.289  19.513  0.00  0.00    +0.000 A 
ATOM     11  H   UNL     1       2.433   6.653  20.915  0.00  0.00    +0.000 HD
ENDROOT
BRANCH   7  12
ATOM     12  C   UNL     1       3.549   5.685  18.921  0.00  0.00    +0.000 A 
ATOM     13  N   UNL     1       3.297   4.685  19.803  0.00  0.00    +0.000 NA
ATOM     14  N   UNL     1       4.154   3.704  19.431  0.00  0.00    +0.000 N 
ATOM     15  C   UNL     1       4.162   2.424  20.099  0.00  0.00    +0.000 C 
ATOM     16  C   UNL     1       4.942   4.027  18.371  0.00  0.00    +0.000 A 
ATOM     17  C   UNL     1       4.575   5.295  18.020  0.00  0.00    +0.000 A 
ATOM     18 BR   UNL     1       5.298   6.265  16.589  0.00  0.00    +0.000 Br
ENDBRANCH   7  12
TORSDOF 1
ENDMDL
MODEL 8
REMARK VINA RESULT:      -6.1      3.506      4.225
REMARK  Name = 
REMARK  3 active torsions:
REMARK  status: ('A' for Active; 'I' for Inactive)
REMARK    1  A    between atoms: C_1  and  C_2
REMARK    2  A    between atoms: C_7  and  C_9
REMARK    3  A    between atoms: N_11  and  C_12
REMARK                            x       y       z     vdW  Elec       q    Type
REMARK                         _______ _______ _______ _____ _____    ______ ____
ROOT
ATOM      1  C   UNL     1       1.162   2.554  22.307  0.00  0.00    +0.000 C 
ATOM      2  C   UNL     1       2.147   2.791  21.209  0.00  0.00    +0.000 A 
ATOM      3  C   UNL     1       3.338   2.074  21.086  0.00  0.00    +0.000 A 
ATOM      4  C   UNL     1       4.217   2.354  20.028  0.00  0.00    +0.000 A 
ATOM      5  C   UNL     1       3.884   3.349  19.119  0.00  0.00    +0.000 A 
ATOM      6  N   UNL     1       4.753   3.628  18.051  0.00  0.00    +0.000 N 
ATOM      7  C   UNL     1       4.509   4.613  17.107  0.00  0.00    +0.000 C 
ATOM      8  O   UNL     1       3.569   5.402  17.120  0.00  0.00    +0.000 OA
ATOM      9  N   UNL     1       2.737   4.041  19.234  0.00  0.00    +0.000 NA
ATOM     10  C   UNL     1       1.901   3.761  20.254  0.00  0.00    +0.000 A 
ATOM     11  H   UNL     1       5.597   3.087  17.928  0.00  0.00    +0.000 HD
ENDROOT
BRANCH   7  12
ATOM     12  C   UNL     1       5.504   4.663  16.012  0.00  0.00    +0.000 A 
ATOM     13  N   UNL     1       5.370   3.954  14.862  0.00  0.00    +0.000 NA
ATOM     14  N   UNL     1       6.460   4.306  14.138  0.00  0.00    +0.000 N 
ATOM     15  C   UNL     1       6.665   3.802  12.800  0.00  0.00    +0.000 C 
ATOM     16  C   UNL     1       7.284   5.187  14.766  0.00  0.00    +0.000 A 
ATOM     17  C   UNL     1       6.694   5.436  15.973  0.00  0.00    +0.000 A 
ATOM     18 BR   UNL     1       7.359   6.615  17.270  0.00  0.00    +0.000 Br
ENDBRANCH   7  12
TORSDOF 1
ENDMDL
MODEL 9
REMARK VINA RESULT:      -6.0      2.341      3.111
REMARK  Name = 
REMARK  3 active torsions:
REMARK  status: ('A' for Active; 'I' for Inactive)
REMARK    1  A    between atoms: C_1  and  C_2
REMARK    2  A    between atoms: C_7  and  C_9
REMARK    3  A    between atoms: N_11  and  C_12
REMARK                            x       y       z     vdW  Elec       q    Type
REMARK                         _______ _______ _______ _____ _____    ______ ____
ROOT
ATOM      1  C   UNL     1      -1.450  11.787  20.368  0.00  0.00    +0.000 C 
ATOM      2  C   UNL     1      -0.469  10.683  20.139  0.00  0.00    +0.000 A 
ATOM      3  C   UNL     1      -0.114   9.763  21.125  0.00  0.00    +0.000 A 
ATOM      4  C   UNL     1       0.817   8.753  20.838  0.00  0.00    +0.000 A 
ATOM      5  C   UNL     1       1.373   8.690  19.567  0.00  0.00    +0.000 A 
ATOM      6  N   UNL     1       2.298   7.675  19.268  0.00  0.00    +0.000 N 
ATOM      7  C   UNL     1       2.914   7.547  18.033  0.00  0.00    +0.000 C 
ATOM      8  O   UNL     1       2.799   8.322  17.089  0.00  0.00    +0.000 OA
ATOM      9  N   UNL     1       1.033   9.574  18.614  0.00  0.00    +0.000 NA
ATOM     10  C   UNL     1       0.136  10.539  18.903  0.00  0.00    +0.000 A 
ATOM     11  H   UNL     1       2.531   6.978  19.961  0.00  0.00    +0.000 HD
ENDROOT
BRANCH   7  12
ATOM     12  C   UNL     1       3.770   6.345  17.906  0.00  0.00    +0.000 A 
ATOM     13  N   UNL     1       5.127   6.405  17.885  0.00  0.00    +0.000 NA
ATOM     14  N   UNL     1       5.505   5.107  17.790  0.00  0.00    +0.000 N 
ATOM     15  C   UNL     1       6.899   4.731  17.796  0.00  0.00    +0.000 C 
ATOM     16  C   UNL     1       4.468   4.228  17.739  0.00  0.00    +0.000 A 
ATOM     17  C   UNL     1       3.340   4.995  17.812  0.00  0.00    +0.000 A 
ATOM     18 BR   UNL     1       1.588   4.329  17.823  0.00  0.00    +0.000 Br
ENDBRANCH   7  12
TORSDOF 1
ENDMDL
