MODEL 1
REMARK VINA RESULT:      -7.8      0.000      0.000
REMARK  Name = 
REMARK  8 active torsions:
REMARK  status: ('A' for Active; 'I' for Inactive)
REMARK    1  A    between atoms: C_1  and  C_2
REMARK    2  A    between atoms: C_2  and  O_3
REMARK    3  A    between atoms: O_3  and  C_4
REMARK    4  A    between atoms: C_7  and  C_8
REMARK    5  A    between atoms: C_10  and  C_11
REMARK    6  A    between atoms: C_13  and  N_14
REMARK    7  A    between atoms: N_14  and  C_15
REMARK    8  A    between atoms: C_15  and  C_16
REMARK                            x       y       z     vdW  Elec       q    Type
REMARK                         _______ _______ _______ _____ _____    ______ ____
ROOT
ATOM      1  C   UNL     1       3.276   5.738  18.870  0.00  0.00    +0.000 A 
ATOM      2  N   UNL     1       2.747   4.530  18.818  0.00  0.00    +0.000 NA
ATOM      3  C   UNL     1       3.842   3.703  18.700  0.00  0.00    +0.000 A 
ATOM      4  C   UNL     1       5.011   4.435  18.713  0.00  0.00    +0.000 A 
ATOM      5  O   UNL     1       4.652   5.752  18.833  0.00  0.00    +0.000 OA
ENDROOT
BRANCH   1   9
ATOM      6  C   UNL     1       1.321   9.560  19.036  0.00  0.00    +0.000 A 
ATOM      7  C   UNL     1       1.989   9.144  17.883  0.00  0.00    +0.000 A 
ATOM      8  C   UNL     1       2.612   7.892  17.833  0.00  0.00    +0.000 A 
ATOM      9  C   UNL     1       2.596   7.032  18.943  0.00  0.00    +0.000 A 
ATOM     10  C   UNL     1       1.939   7.468  20.102  0.00  0.00    +0.000 A 
ATOM     11  C   UNL     1       1.309   8.722  20.149  0.00  0.00    +0.000 A 
BRANCH   6  12
ATOM     12  O   UNL     1       0.764  10.809  18.972  0.00  0.00    +0.000 OA
BRANCH  12  14
ATOM     13  C   UNL     1      -1.374  10.320  18.010  0.00  0.00    +0.000 C 
ATOM     14  C   UNL     1      -0.641  10.884  19.217  0.00  0.00    +0.000 C 
ENDBRANCH  12  14
ENDBRANCH   6  12
ENDBRANCH   1   9
BRANCH   3  15
ATOM     15  C   UNL     1       3.710   2.288  18.586  0.00  0.00    +0.000 C 
ATOM     16  N   UNL     1       3.634   1.130  18.499  0.00  0.00    +0.000 NA
ENDBRANCH   3  15
BRANCH   4  17
ATOM     17  N   UNL     1       6.322   4.122  18.587  0.00  0.00    +0.000 N 
ATOM     18  H   UNL     1       6.832   3.833  19.420  0.00  0.00    +0.000 HD
BRANCH  17  19
ATOM     19  C   UNL     1       7.183   4.849  17.664  0.00  0.00    +0.000 C 
BRANCH  19  20
ATOM     20  C   UNL     1       6.873   4.602  16.225  0.00  0.00    +0.000 A 
ATOM     21  C   UNL     1       6.040   3.717  15.574  0.00  0.00    +0.000 A 
ATOM     22  C   UNL     1       6.190   3.971  14.188  0.00  0.00    +0.000 A 
ATOM     23  C   UNL     1       7.097   4.999  14.083  0.00  0.00    +0.000 A 
ATOM     24  O   UNL     1       7.513   5.394  15.314  0.00  0.00    +0.000 OA
ENDBRANCH  19  20
ENDBRANCH  17  19
ENDBRANCH   4  17
TORSDOF 7
ENDMDL
MODEL 2
REMARK VINA RESULT:      -7.5      1.424      2.145
REMARK  Name = 
REMARK  8 active torsions:
REMARK  status: ('A' for Active; 'I' for Inactive)
REMARK    1  A    between atoms: C_1  and  C_2
REMARK    2  A    between atoms: C_2  and  O_3
REMARK    3  A    between atoms: O_3  and  C_4
REMARK    4  A    between atoms: C_7  and  C_8
REMARK    5  A    between atoms: C_10  and  C_11
REMARK    6  A    between atoms: C_13  and  N_14
REMARK    7  A    between atoms: N_14  and  C_15
REMARK    8  A    between atoms: C_15  and  C_16
REMARK                            x       y       z     vdW  Elec       q    Type
REMARK                         _______ _______ _______ _____ _____    ______ ____
ROOT
ATOM      1  C   UNL     1       3.107   6.170  18.828  0.00  0.00    +0.000 A 
ATOM      2  N   UNL     1       3.314   5.230  19.732  0.00  0.00    +0.000 NA
ATOM      3  C   UNL     1       4.018   4.269  19.041  0.00  0.00    +0.000 A 
ATOM      4  C   UNL     1       4.245   4.668  17.741  0.00  0.00    +0.000 A 
ATOM      5  O   UNL     1       3.666   5.902  17.599  0.00  0.00    +0.000 OA
ENDROOT
BRANCH   1   9
ATOM      6  C   UNL     1       0.950   9.869  19.181  0.00  0.00    +0.000 A 
ATOM      7  C   UNL     1       1.539   9.493  17.973  0.00  0.00    +0.000 A 
ATOM      8  C   UNL     1       2.229   8.280  17.863  0.00  0.00    +0.000 A 
ATOM      9  C   UNL     1       2.360   7.421  18.966  0.00  0.00    +0.000 A 
ATOM     10  C   UNL     1       1.781   7.817  20.180  0.00  0.00    +0.000 A 
ATOM     11  C   UNL     1       1.084   9.031  20.287  0.00  0.00    +0.000 A 
BRANCH   6  12
ATOM     12  O   UNL     1       0.317  11.082  19.172  0.00  0.00    +0.000 OA
BRANCH  12  14
ATOM     13  C   UNL     1      -1.907  10.922  18.296  0.00  0.00    +0.000 C 
ATOM     14  C   UNL     1      -1.061  11.075  19.550  0.00  0.00    +0.000 C 
ENDBRANCH  12  14
ENDBRANCH   6  12
ENDBRANCH   1   9
BRANCH   3  15
ATOM     15  C   UNL     1       4.430   3.049  19.654  0.00  0.00    +0.000 C 
ATOM     16  N   UNL     1       4.789   2.051  20.132  0.00  0.00    +0.000 NA
ENDBRANCH   3  15
BRANCH   4  17
ATOM     17  N   UNL     1       4.832   4.093  16.666  0.00  0.00    +0.000 N 
ATOM     18  H   UNL     1       4.468   3.201  16.335  0.00  0.00    +0.000 HD
BRANCH  17  19
ATOM     19  C   UNL     1       6.271   4.189  16.454  0.00  0.00    +0.000 C 
BRANCH  19  20
ATOM     20  C   UNL     1       6.946   5.189  17.332  0.00  0.00    +0.000 A 
ATOM     21  C   UNL     1       7.224   6.533  17.199  0.00  0.00    +0.000 A 
ATOM     22  C   UNL     1       7.898   6.922  18.382  0.00  0.00    +0.000 A 
ATOM     23  C   UNL     1       7.980   5.795  19.165  0.00  0.00    +0.000 A 
ATOM     24  O   UNL     1       7.400   4.738  18.539  0.00  0.00    +0.000 OA
ENDBRANCH  19  20
ENDBRANCH  17  19
ENDBRANCH   4  17
TORSDOF 7
ENDMDL
MODEL 3
REMARK VINA RESULT:      -7.5      1.884      4.249
REMARK  Name = 
REMARK  8 active torsions:
REMARK  status: ('A' for Active; 'I' for Inactive)
REMARK    1  A    between atoms: C_1  and  C_2
REMARK    2  A    between atoms: C_2  and  O_3
REMARK    3  A    between atoms: O_3  and  C_4
REMARK    4  A    between atoms: C_7  and  C_8
REMARK    5  A    between atoms: C_10  and  C_11
REMARK    6  A    between atoms: C_13  and  N_14
REMARK    7  A    between atoms: N_14  and  C_15
REMARK    8  A    between atoms: C_15  and  C_16
REMARK                            x       y       z     vdW  Elec       q    Type
REMARK                         _______ _______ _______ _____ _____    ______ ____
ROOT
ATOM      1  C   UNL     1       3.775   6.275  18.040  0.00  0.00    +0.000 A 
ATOM      2  N   UNL     1       5.027   6.372  17.634  0.00  0.00    +0.000 NA
ATOM      3  C   UNL     1       5.408   5.062  17.448  0.00  0.00    +0.000 A 
ATOM      4  C   UNL     1       4.362   4.205  17.720  0.00  0.00    +0.000 A 
ATOM      5  O   UNL     1       3.299   4.984  18.094  0.00  0.00    +0.000 OA
ENDROOT
BRANCH   1   9
ATOM      6  C   UNL     1       1.061   9.368  19.278  0.00  0.00    +0.000 A 
ATOM      7  C   UNL     1       1.400   8.322  20.139  0.00  0.00    +0.000 A 
ATOM      8  C   UNL     1       2.295   7.325  19.732  0.00  0.00    +0.000 A 
ATOM      9  C   UNL     1       2.860   7.343  18.447  0.00  0.00    +0.000 A 
ATOM     10  C   UNL     1       2.498   8.387  17.584  0.00  0.00    +0.000 A 
ATOM     11  C   UNL     1       1.605   9.389  17.995  0.00  0.00    +0.000 A 
BRANCH   6  12
ATOM     12  O   UNL     1       0.166  10.273  19.780  0.00  0.00    +0.000 OA
BRANCH  12  14
ATOM     13  C   UNL     1      -1.632  11.419  18.688  0.00  0.00    +0.000 C 
ATOM     14  C   UNL     1      -0.133  11.392  18.943  0.00  0.00    +0.000 C 
ENDBRANCH  12  14
ENDBRANCH   6  12
ENDBRANCH   1   9
BRANCH   3  15
ATOM     15  C   UNL     1       6.724   4.712  17.025  0.00  0.00    +0.000 C 
ATOM     16  N   UNL     1       7.806   4.424  16.712  0.00  0.00    +0.000 NA
ENDBRANCH   3  15
BRANCH   4  17
ATOM     17  N   UNL     1       4.224   2.859  17.734  0.00  0.00    +0.000 N 
ATOM     18  H   UNL     1       4.782   2.309  17.082  0.00  0.00    +0.000 HD
BRANCH  17  19
ATOM     19  C   UNL     1       2.928   2.237  17.978  0.00  0.00    +0.000 C 
BRANCH  19  20
ATOM     20  C   UNL     1       2.385   2.488  19.345  0.00  0.00    +0.000 A 
ATOM     21  C   UNL     1       1.130   2.797  19.824  0.00  0.00    +0.000 A 
ATOM     22  C   UNL     1       1.256   2.919  21.230  0.00  0.00    +0.000 A 
ATOM     23  C   UNL     1       2.577   2.668  21.519  0.00  0.00    +0.000 A 
ATOM     24  O   UNL     1       3.270   2.399  20.382  0.00  0.00    +0.000 OA
ENDBRANCH  19  20
ENDBRANCH  17  19
ENDBRANCH   4  17
TORSDOF 7
ENDMDL
MODEL 4
REMARK VINA RESULT:      -7.5      0.348      1.116
REMARK  Name = 
REMARK  8 active torsions:
REMARK  status: ('A' for Active; 'I' for Inactive)
REMARK    1  A    between atoms: C_1  and  C_2
REMARK    2  A    between atoms: C_2  and  O_3
REMARK    3  A    between atoms: O_3  and  C_4
REMARK    4  A    between atoms: C_7  and  C_8
REMARK    5  A    between atoms: C_10  and  C_11
REMARK    6  A    between atoms: C_13  and  N_14
REMARK    7  A    between atoms: N_14  and  C_15
REMARK    8  A    between atoms: C_15  and  C_16
REMARK                            x       y       z     vdW  Elec       q    Type
REMARK                         _______ _______ _______ _____ _____    ______ ____
ROOT
ATOM      1  C   UNL     1       3.331   5.674  18.863  0.00  0.00    +0.000 A 
ATOM      2  N   UNL     1       2.805   4.464  18.833  0.00  0.00    +0.000 NA
ATOM      3  C   UNL     1       3.900   3.639  18.702  0.00  0.00    +0.000 A 
ATOM      4  C   UNL     1       5.066   4.374  18.684  0.00  0.00    +0.000 A 
ATOM      5  O   UNL     1       4.706   5.691  18.798  0.00  0.00    +0.000 OA
ENDROOT
BRANCH   1   9
ATOM      6  C   UNL     1       1.281   9.441  19.120  0.00  0.00    +0.000 A 
ATOM      7  C   UNL     1       1.222   8.517  20.165  0.00  0.00    +0.000 A 
ATOM      8  C   UNL     1       1.903   7.298  20.078  0.00  0.00    +0.000 A 
ATOM      9  C   UNL     1       2.648   6.967  18.935  0.00  0.00    +0.000 A 
ATOM     10  C   UNL     1       2.685   7.893  17.884  0.00  0.00    +0.000 A 
ATOM     11  C   UNL     1       2.006   9.118  17.974  0.00  0.00    +0.000 A 
BRANCH   6  12
ATOM     12  O   UNL     1       0.562  10.589  19.312  0.00  0.00    +0.000 OA
BRANCH  12  14
ATOM     13  C   UNL     1      -1.537  11.711  19.583  0.00  0.00    +0.000 C 
ATOM     14  C   UNL     1      -0.816  10.540  18.936  0.00  0.00    +0.000 C 
ENDBRANCH  12  14
ENDBRANCH   6  12
ENDBRANCH   1   9
BRANCH   3  15
ATOM     15  C   UNL     1       3.770   2.222  18.606  0.00  0.00    +0.000 C 
ATOM     16  N   UNL     1       3.675   1.064  18.558  0.00  0.00    +0.000 NA
ENDBRANCH   3  15
BRANCH   4  17
ATOM     17  N   UNL     1       6.375   4.064  18.535  0.00  0.00    +0.000 N 
ATOM     18  H   UNL     1       6.912   3.818  19.366  0.00  0.00    +0.000 HD
BRANCH  17  19
ATOM     19  C   UNL     1       7.205   4.753  17.555  0.00  0.00    +0.000 C 
BRANCH  19  20
ATOM     20  C   UNL     1       6.772   4.544  16.143  0.00  0.00    +0.000 A 
ATOM     21  C   UNL     1       5.687   3.917  15.567  0.00  0.00    +0.000 A 
ATOM     22  C   UNL     1       5.845   4.050  14.165  0.00  0.00    +0.000 A 
ATOM     23  C   UNL     1       7.009   4.756  13.976  0.00  0.00    +0.000 A 
ATOM     24  O   UNL     1       7.578   5.065  15.170  0.00  0.00    +0.000 OA
ENDBRANCH  19  20
ENDBRANCH  17  19
ENDBRANCH   4  17
TORSDOF 7
ENDMDL
MODEL 5
REMARK VINA RESULT:      -7.4      1.299      2.216
REMARK  Name = 
REMARK  8 active torsions:
REMARK  status: ('A' for Active; 'I' for Inactive)
REMARK    1  A    between atoms: C_1  and  C_2
REMARK    2  A    between atoms: C_2  and  O_3
REMARK    3  A    between atoms: O_3  and  C_4
REMARK    4  A    between atoms: C_7  and  C_8
REMARK    5  A    between atoms: C_10  and  C_11
REMARK    6  A    between atoms: C_13  and  N_14
REMARK    7  A    between atoms: N_14  and  C_15
REMARK    8  A    between atoms: C_15  and  C_16
REMARK                            x       y       z     vdW  Elec       q    Type
REMARK                         _______ _______ _______ _____ _____    ______ ____
ROOT
ATOM      1  C   UNL     1       3.181   6.087  18.807  0.00  0.00    +0.000 A 
ATOM      2  N   UNL     1       3.401   5.163  19.723  0.00  0.00    +0.000 NA
ATOM      3  C   UNL     1       4.093   4.189  19.039  0.00  0.00    +0.000 A 
ATOM      4  C   UNL     1       4.300   4.565  17.729  0.00  0.00    +0.000 A 
ATOM      5  O   UNL     1       3.720   5.797  17.574  0.00  0.00    +0.000 OA
ENDROOT
BRANCH   1   9
ATOM      6  C   UNL     1       0.962   9.742  19.230  0.00  0.00    +0.000 A 
ATOM      7  C   UNL     1       1.124   8.871  20.308  0.00  0.00    +0.000 A 
ATOM      8  C   UNL     1       1.859   7.688  20.165  0.00  0.00    +0.000 A 
ATOM      9  C   UNL     1       2.437   7.342  18.933  0.00  0.00    +0.000 A 
ATOM     10  C   UNL     1       2.251   8.214  17.852  0.00  0.00    +0.000 A 
ATOM     11  C   UNL     1       1.519   9.403  17.998  0.00  0.00    +0.000 A 
BRANCH   6  12
ATOM     12  O   UNL     1       0.211  10.857  19.485  0.00  0.00    +0.000 OA
BRANCH  12  14
ATOM     13  C   UNL     1      -1.867  10.402  18.383  0.00  0.00    +0.000 C 
ATOM     14  C   UNL     1      -0.640  11.298  18.425  0.00  0.00    +0.000 C 
ENDBRANCH  12  14
ENDBRANCH   6  12
ENDBRANCH   1   9
BRANCH   3  15
ATOM     15  C   UNL     1       4.513   2.980  19.667  0.00  0.00    +0.000 C 
ATOM     16  N   UNL     1       4.853   2.008  20.208  0.00  0.00    +0.000 NA
ENDBRANCH   3  15
BRANCH   4  17
ATOM     17  N   UNL     1       4.871   3.970  16.655  0.00  0.00    +0.000 N 
ATOM     18  H   UNL     1       4.744   2.966  16.535  0.00  0.00    +0.000 HD
BRANCH  17  19
ATOM     19  C   UNL     1       6.170   4.404  16.157  0.00  0.00    +0.000 C 
BRANCH  19  20
ATOM     20  C   UNL     1       6.858   5.389  17.041  0.00  0.00    +0.000 A 
ATOM     21  C   UNL     1       7.540   5.277  18.235  0.00  0.00    +0.000 A 
ATOM     22  C   UNL     1       7.959   6.585  18.581  0.00  0.00    +0.000 A 
ATOM     23  C   UNL     1       7.516   7.409  17.573  0.00  0.00    +0.000 A 
ATOM     24  O   UNL     1       6.851   6.692  16.630  0.00  0.00    +0.000 OA
ENDBRANCH  19  20
ENDBRANCH  17  19
ENDBRANCH   4  17
TORSDOF 7
ENDMDL
MODEL 6
REMARK VINA RESULT:      -7.4      1.871      4.030
REMARK  Name = 
REMARK  8 active torsions:
REMARK  status: ('A' for Active; 'I' for Inactive)
REMARK    1  A    between atoms: C_1  and  C_2
REMARK    2  A    between atoms: C_2  and  O_3
REMARK    3  A    between atoms: O_3  and  C_4
REMARK    4  A    between atoms: C_7  and  C_8
REMARK    5  A    between atoms: C_10  and  C_11
REMARK    6  A    between atoms: C_13  and  N_14
REMARK    7  A    between atoms: N_14  and  C_15
REMARK    8  A    between atoms: C_15  and  C_16
REMARK                            x       y       z     vdW  Elec       q    Type
REMARK                         _______ _______ _______ _____ _____    ______ ____
ROOT
ATOM      1  C   UNL     1       3.758   6.445  18.346  0.00  0.00    +0.000 A 
ATOM      2  N   UNL     1       4.620   6.429  17.347  0.00  0.00    +0.000 NA
ATOM      3  C   UNL     1       5.347   5.281  17.566  0.00  0.00    +0.000 A 
ATOM      4  C   UNL     1       4.883   4.614  18.681  0.00  0.00    +0.000 A 
ATOM      5  O   UNL     1       3.849   5.357  19.185  0.00  0.00    +0.000 OA
ENDROOT
BRANCH   1   9
ATOM      6  C   UNL     1       0.844   9.467  19.258  0.00  0.00    +0.000 A 
ATOM      7  C   UNL     1       1.471   9.427  18.012  0.00  0.00    +0.000 A 
ATOM      8  C   UNL     1       2.410   8.431  17.719  0.00  0.00    +0.000 A 
ATOM      9  C   UNL     1       2.755   7.461  18.673  0.00  0.00    +0.000 A 
ATOM     10  C   UNL     1       2.135   7.523  19.928  0.00  0.00    +0.000 A 
ATOM     11  C   UNL     1       1.188   8.518  20.219  0.00  0.00    +0.000 A 
BRANCH   6  12
ATOM     12  O   UNL     1      -0.042  10.495  19.435  0.00  0.00    +0.000 OA
BRANCH  12  14
ATOM     13  C   UNL     1      -2.052  10.173  18.172  0.00  0.00    +0.000 C 
ATOM     14  C   UNL     1      -0.739  10.933  18.267  0.00  0.00    +0.000 C 
ENDBRANCH  12  14
ENDBRANCH   6  12
ENDBRANCH   1   9
BRANCH   3  15
ATOM     15  C   UNL     1       6.420   4.892  16.712  0.00  0.00    +0.000 C 
ATOM     16  N   UNL     1       7.280   4.587  15.989  0.00  0.00    +0.000 NA
ENDBRANCH   3  15
BRANCH   4  17
ATOM     17  N   UNL     1       5.264   3.492  19.336  0.00  0.00    +0.000 N 
ATOM     18  H   UNL     1       6.248   3.228  19.310  0.00  0.00    +0.000 HD
BRANCH  17  19
ATOM     19  C   UNL     1       4.401   2.319  19.383  0.00  0.00    +0.000 C 
BRANCH  19  20
ATOM     20  C   UNL     1       3.074   2.569  20.018  0.00  0.00    +0.000 A 
ATOM     21  C   UNL     1       2.666   2.746  21.323  0.00  0.00    +0.000 A 
ATOM     22  C   UNL     1       1.263   2.940  21.281  0.00  0.00    +0.000 A 
ATOM     23  C   UNL     1       0.907   2.878  19.955  0.00  0.00    +0.000 A 
ATOM     24  O   UNL     1       2.000   2.659  19.179  0.00  0.00    +0.000 OA
ENDBRANCH  19  20
ENDBRANCH  17  19
ENDBRANCH   4  17
TORSDOF 7
ENDMDL
MODEL 7
REMARK VINA RESULT:      -7.3      1.878      3.985
REMARK  Name = 
REMARK  8 active torsions:
REMARK  status: ('A' for Active; 'I' for Inactive)
REMARK    1  A    between atoms: C_1  and  C_2
REMARK    2  A    between atoms: C_2  and  O_3
REMARK    3  A    between atoms: O_3  and  C_4
REMARK    4  A    between atoms: C_7  and  C_8
REMARK    5  A    between atoms: C_10  and  C_11
REMARK    6  A    between atoms: C_13  and  N_14
REMARK    7  A    between atoms: N_14  and  C_15
REMARK    8  A    between atoms: C_15  and  C_16
REMARK                            x       y       z     vdW  Elec       q    Type
REMARK                         _______ _______ _______ _____ _____    ______ ____
ROOT
ATOM      1  C   UNL     1       3.530   6.226  18.267  0.00  0.00    +0.000 A 
ATOM      2  N   UNL     1       4.069   5.960  17.091  0.00  0.00    +0.000 NA
ATOM      3  C   UNL     1       4.816   4.828  17.328  0.00  0.00    +0.000 A 
ATOM      4  C   UNL     1       4.686   4.422  18.640  0.00  0.00    +0.000 A 
ATOM      5  O   UNL     1       3.847   5.316  19.250  0.00  0.00    +0.000 OA
ENDROOT
BRANCH   1   9
ATOM      6  C   UNL     1       1.049   9.567  19.334  0.00  0.00    +0.000 A 
ATOM      7  C   UNL     1       1.623   9.475  18.066  0.00  0.00    +0.000 A 
ATOM      8  C   UNL     1       2.420   8.376  17.722  0.00  0.00    +0.000 A 
ATOM      9  C   UNL     1       2.674   7.351  18.646  0.00  0.00    +0.000 A 
ATOM     10  C   UNL     1       2.108   7.463  19.924  0.00  0.00    +0.000 A 
ATOM     11  C   UNL     1       1.304   8.562  20.266  0.00  0.00    +0.000 A 
BRANCH   6  12
ATOM     12  O   UNL     1       0.304  10.692  19.560  0.00  0.00    +0.000 OA
BRANCH  12  14
ATOM     13  C   UNL     1      -1.377  11.787  18.251  0.00  0.00    +0.000 C 
ATOM     14  C   UNL     1      -1.072  10.623  19.181  0.00  0.00    +0.000 C 
ENDBRANCH  12  14
ENDBRANCH   6  12
ENDBRANCH   1   9
BRANCH   3  15
ATOM     15  C   UNL     1       5.595   4.210  16.306  0.00  0.00    +0.000 C 
ATOM     16  N   UNL     1       6.232   3.734  15.457  0.00  0.00    +0.000 NA
ENDBRANCH   3  15
BRANCH   4  17
ATOM     17  N   UNL     1       5.229   3.424  19.377  0.00  0.00    +0.000 N 
ATOM     18  H   UNL     1       6.219   3.218  19.257  0.00  0.00    +0.000 HD
BRANCH  17  19
ATOM     19  C   UNL     1       4.470   2.218  19.684  0.00  0.00    +0.000 C 
BRANCH  19  20
ATOM     20  C   UNL     1       3.059   2.479  20.094  0.00  0.00    +0.000 A 
ATOM     21  C   UNL     1       1.860   2.487  19.413  0.00  0.00    +0.000 A 
ATOM     22  C   UNL     1       0.862   2.816  20.362  0.00  0.00    +0.000 A 
ATOM     23  C   UNL     1       1.513   2.978  21.562  0.00  0.00    +0.000 A 
ATOM     24  O   UNL     1       2.847   2.770  21.412  0.00  0.00    +0.000 OA
ENDBRANCH  19  20
ENDBRANCH  17  19
ENDBRANCH   4  17
TORSDOF 7
ENDMDL
MODEL 8
REMARK VINA RESULT:      -7.3      1.937      4.152
REMARK  Name = 
REMARK  8 active torsions:
REMARK  status: ('A' for Active; 'I' for Inactive)
REMARK    1  A    between atoms: C_1  and  C_2
REMARK    2  A    between atoms: C_2  and  O_3
REMARK    3  A    between atoms: O_3  and  C_4
REMARK    4  A    between atoms: C_7  and  C_8
REMARK    5  A    between atoms: C_10  and  C_11
REMARK    6  A    between atoms: C_13  and  N_14
REMARK    7  A    between atoms: N_14  and  C_15
REMARK    8  A    between atoms: C_15  and  C_16
REMARK                            x       y       z     vdW  Elec       q    Type
REMARK                         _______ _______ _______ _____ _____    ______ ____
ROOT
ATOM      1  C   UNL     1       3.724   6.229  18.073  0.00  0.00    +0.000 A 
ATOM      2  N   UNL     1       4.990   6.322  17.711  0.00  0.00    +0.000 NA
ATOM      3  C   UNL     1       5.343   5.020  17.435  0.00  0.00    +0.000 A 
ATOM      4  C   UNL     1       4.267   4.174  17.609  0.00  0.00    +0.000 A 
ATOM      5  O   UNL     1       3.214   4.952  18.013  0.00  0.00    +0.000 OA
ENDROOT
BRANCH   1   9
ATOM      6  C   UNL     1       1.115   9.380  19.385  0.00  0.00    +0.000 A 
ATOM      7  C   UNL     1       1.681   9.400  18.109  0.00  0.00    +0.000 A 
ATOM      8  C   UNL     1       2.520   8.363  17.685  0.00  0.00    +0.000 A 
ATOM      9  C   UNL     1       2.825   7.288  18.535  0.00  0.00    +0.000 A 
ATOM     10  C   UNL     1       2.267   7.288  19.821  0.00  0.00    +0.000 A 
ATOM     11  C   UNL     1       1.421   8.326  20.243  0.00  0.00    +0.000 A 
BRANCH   6  12
ATOM     12  O   UNL     1       0.326  10.455  19.693  0.00  0.00    +0.000 OA
BRANCH  12  14
ATOM     13  C   UNL     1      -0.265  11.446  21.792  0.00  0.00    +0.000 C 
ATOM     14  C   UNL     1      -0.531  10.303  20.826  0.00  0.00    +0.000 C 
ENDBRANCH  12  14
ENDBRANCH   6  12
ENDBRANCH   1   9
BRANCH   3  15
ATOM     15  C   UNL     1       6.661   4.666  17.024  0.00  0.00    +0.000 C 
ATOM     16  N   UNL     1       7.747   4.378  16.720  0.00  0.00    +0.000 NA
ENDBRANCH   3  15
BRANCH   4  17
ATOM     17  N   UNL     1       4.094   2.835  17.515  0.00  0.00    +0.000 N 
ATOM     18  H   UNL     1       3.527   2.473  16.750  0.00  0.00    +0.000 HD
BRANCH  17  19
ATOM     19  C   UNL     1       3.964   2.008  18.708  0.00  0.00    +0.000 C 
BRANCH  19  20
ATOM     20  C   UNL     1       2.878   2.446  19.632  0.00  0.00    +0.000 A 
ATOM     21  C   UNL     1       1.502   2.476  19.532  0.00  0.00    +0.000 A 
ATOM     22  C   UNL     1       1.023   3.013  20.752  0.00  0.00    +0.000 A 
ATOM     23  C   UNL     1       2.134   3.268  21.520  0.00  0.00    +0.000 A 
ATOM     24  O   UNL     1       3.265   2.922  20.853  0.00  0.00    +0.000 OA
ENDBRANCH  19  20
ENDBRANCH  17  19
ENDBRANCH   4  17
TORSDOF 7
ENDMDL
MODEL 9
REMARK VINA RESULT:      -7.3      1.962      4.120
REMARK  Name = 
REMARK  8 active torsions:
REMARK  status: ('A' for Active; 'I' for Inactive)
REMARK    1  A    between atoms: C_1  and  C_2
REMARK    2  A    between atoms: C_2  and  O_3
REMARK    3  A    between atoms: O_3  and  C_4
REMARK    4  A    between atoms: C_7  and  C_8
REMARK    5  A    between atoms: C_10  and  C_11
REMARK    6  A    between atoms: C_13  and  N_14
REMARK    7  A    between atoms: N_14  and  C_15
REMARK    8  A    between atoms: C_15  and  C_16
REMARK                            x       y       z     vdW  Elec       q    Type
REMARK                         _______ _______ _______ _____ _____    ______ ____
ROOT
ATOM      1  C   UNL     1       3.244   6.536  18.099  0.00  0.00    +0.000 A 
ATOM      2  N   UNL     1       4.546   6.521  17.882  0.00  0.00    +0.000 NA
ATOM      3  C   UNL     1       4.793   5.223  17.493  0.00  0.00    +0.000 A 
ATOM      4  C   UNL     1       3.624   4.493  17.456  0.00  0.00    +0.000 A 
ATOM      5  O   UNL     1       2.616   5.340  17.838  0.00  0.00    +0.000 OA
ENDROOT
BRANCH   1   9
ATOM      6  C   UNL     1       0.828   9.807  19.484  0.00  0.00    +0.000 A 
ATOM      7  C   UNL     1       1.282   9.758  18.165  0.00  0.00    +0.000 A 
ATOM      8  C   UNL     1       2.058   8.682  17.719  0.00  0.00    +0.000 A 
ATOM      9  C   UNL     1       2.412   7.637  18.587  0.00  0.00    +0.000 A 
ATOM     10  C   UNL     1       1.967   7.707  19.915  0.00  0.00    +0.000 A 
ATOM     11  C   UNL     1       1.183   8.783  20.360  0.00  0.00    +0.000 A 
BRANCH   6  12
ATOM     12  O   UNL     1       0.092  10.914  19.809  0.00  0.00    +0.000 OA
BRANCH  12  14
ATOM     13  C   UNL     1      -0.630  12.879  18.645  0.00  0.00    +0.000 C 
ATOM     14  C   UNL     1      -0.819  11.380  18.812  0.00  0.00    +0.000 C 
ENDBRANCH  12  14
ENDBRANCH   6  12
ENDBRANCH   1   9
BRANCH   3  15
ATOM     15  C   UNL     1       6.107   4.766  17.180  0.00  0.00    +0.000 C 
ATOM     16  N   UNL     1       7.190   4.422  16.933  0.00  0.00    +0.000 NA
ENDBRANCH   3  15
BRANCH   4  17
ATOM     17  N   UNL     1       3.327   3.200  17.189  0.00  0.00    +0.000 N 
ATOM     18  H   UNL     1       2.546   3.002  16.564  0.00  0.00    +0.000 HD
BRANCH  17  19
ATOM     19  C   UNL     1       3.458   2.171  18.213  0.00  0.00    +0.000 C 
BRANCH  19  20
ATOM     20  C   UNL     1       2.674   2.448  19.452  0.00  0.00    +0.000 A 
ATOM     21  C   UNL     1       1.328   2.608  19.707  0.00  0.00    +0.000 A 
ATOM     22  C   UNL     1       1.210   2.859  21.095  0.00  0.00    +0.000 A 
ATOM     23  C   UNL     1       2.488   2.827  21.601  0.00  0.00    +0.000 A 
ATOM     24  O   UNL     1       3.385   2.572  20.612  0.00  0.00    +0.000 OA
ENDBRANCH  19  20
ENDBRANCH  17  19
ENDBRANCH   4  17
TORSDOF 7
ENDMDL
