MODEL 1
REMARK VINA RESULT:      -7.6      0.000      0.000
REMARK  Name = 
REMARK  9 active torsions:
REMARK  status: ('A' for Active; 'I' for Inactive)
REMARK    1  A    between atoms: C_2  and  C_3
REMARK    2  A    between atoms: C_4  and  C_5
REMARK    3  A    between atoms: N_15  and  C_16
REMARK    4  A    between atoms: C_16  and  C_17
REMARK    5  A    between atoms: C_17  and  C_18
REMARK    6  A    between atoms: C_18  and  C_19
REMARK    7  A    between atoms: C_19  and  C_20
REMARK    8  A    between atoms: C_20  and  C_21
REMARK    9  A    between atoms: N_23  and  O_24
REMARK                            x       y       z     vdW  Elec       q    Type
REMARK                         _______ _______ _______ _____ _____    ______ ____
ROOT
ATOM      1  O   UNL     1       7.026   7.622  16.923  0.00  0.00    +0.000 OA
ATOM      2  C   UNL     1       7.815   7.926  17.806  0.00  0.00    +0.000 C 
ATOM      3  N   UNL     1       8.259   7.075  18.789  0.00  0.00    +0.000 N 
ATOM      4  H   UNL     1       8.989   7.377  19.420  0.00  0.00    +0.000 HD
ENDROOT
BRANCH   2   5
ATOM      5  C   UNL     1       8.398   9.288  17.933  0.00  0.00    +0.000 C 
ATOM      6  C   UNL     1       9.132   9.636  19.002  0.00  0.00    +0.000 C 
BRANCH   6   7
ATOM      7  C   UNL     1       9.739  10.967  19.171  0.00  0.00    +0.000 A 
ATOM      8  C   UNL     1       9.969  11.521  20.433  0.00  0.00    +0.000 A 
ATOM      9  C   UNL     1      10.538  12.792  20.566  0.00  0.00    +0.000 A 
ATOM     10  C   UNL     1      10.914  13.540  19.464  0.00  0.00    +0.000 A 
ATOM     11  N   UNL     1      11.447  14.760  19.654  0.00  0.00    +0.000 NA
ATOM     12  C   UNL     1      11.810  15.468  18.564  0.00  0.00    +0.000 A 
ATOM     13  C   UNL     1      11.671  15.009  17.269  0.00  0.00    +0.000 A 
ATOM     14  C   UNL     1      11.120  13.746  17.078  0.00  0.00    +0.000 A 
ATOM     15  C   UNL     1      10.723  12.982  18.186  0.00  0.00    +0.000 A 
ATOM     16  C   UNL     1      10.143  11.699  18.048  0.00  0.00    +0.000 A 
ENDBRANCH   6   7
ENDBRANCH   2   5
BRANCH   3  17
ATOM     17  C   UNL     1       7.841   5.688  18.857  0.00  0.00    +0.000 C 
BRANCH  17  18
ATOM     18  C   UNL     1       6.417   5.555  19.397  0.00  0.00    +0.000 C 
BRANCH  18  19
ATOM     19  C   UNL     1       5.590   4.553  18.586  0.00  0.00    +0.000 C 
BRANCH  19  20
ATOM     20  C   UNL     1       4.521   5.252  17.750  0.00  0.00    +0.000 C 
BRANCH  20  21
ATOM     21  C   UNL     1       4.366   4.596  16.378  0.00  0.00    +0.000 C 
BRANCH  21  22
ATOM     22  C   UNL     1       5.700   4.443  15.681  0.00  0.00    +0.000 C 
ATOM     23  O   UNL     1       6.284   3.373  15.522  0.00  0.00    +0.000 OA
ATOM     24  N   UNL     1       6.224   5.625  15.221  0.00  0.00    +0.000 N 
ATOM     25  H   UNL     1       5.789   6.537  15.295  0.00  0.00    +0.000 HD
BRANCH  24  26
ATOM     26  O   UNL     1       7.462   5.543  14.549  0.00  0.00    +0.000 OA
ATOM     27  H   UNL     1       7.491   6.398  14.062  0.00  0.00    +0.000 HD
ENDBRANCH  24  26
ENDBRANCH  21  22
ENDBRANCH  20  21
ENDBRANCH  19  20
ENDBRANCH  18  19
ENDBRANCH  17  18
ENDBRANCH   3  17
TORSDOF 9
ENDMDL
MODEL 2
REMARK VINA RESULT:      -7.6      2.229      2.965
REMARK  Name = 
REMARK  9 active torsions:
REMARK  status: ('A' for Active; 'I' for Inactive)
REMARK    1  A    between atoms: C_2  and  C_3
REMARK    2  A    between atoms: C_4  and  C_5
REMARK    3  A    between atoms: N_15  and  C_16
REMARK    4  A    between atoms: C_16  and  C_17
REMARK    5  A    between atoms: C_17  and  C_18
REMARK    6  A    between atoms: C_18  and  C_19
REMARK    7  A    between atoms: C_19  and  C_20
REMARK    8  A    between atoms: C_20  and  C_21
REMARK    9  A    between atoms: N_23  and  O_24
REMARK                            x       y       z     vdW  Elec       q    Type
REMARK                         _______ _______ _______ _____ _____    ______ ____
ROOT
ATOM      1  O   UNL     1       7.756   6.452  18.919  0.00  0.00    +0.000 OA
ATOM      2  C   UNL     1       7.742   7.010  17.830  0.00  0.00    +0.000 C 
ATOM      3  N   UNL     1       7.440   6.397  16.639  0.00  0.00    +0.000 N 
ATOM      4  H   UNL     1       7.351   6.952  15.799  0.00  0.00    +0.000 HD
ENDROOT
BRANCH   2   5
ATOM      5  C   UNL     1       8.067   8.450  17.657  0.00  0.00    +0.000 C 
ATOM      6  C   UNL     1       8.720   9.138  18.608  0.00  0.00    +0.000 C 
BRANCH   6   7
ATOM      7  C   UNL     1       9.075  10.561  18.480  0.00  0.00    +0.000 A 
ATOM      8  C   UNL     1       8.324  11.443  17.699  0.00  0.00    +0.000 A 
ATOM      9  C   UNL     1       8.689  12.790  17.586  0.00  0.00    +0.000 A 
ATOM     10  C   UNL     1       9.786  13.306  18.254  0.00  0.00    +0.000 A 
ATOM     11  N   UNL     1      10.094  14.605  18.098  0.00  0.00    +0.000 NA
ATOM     12  C   UNL     1      11.166  15.085  18.764  0.00  0.00    +0.000 A 
ATOM     13  C   UNL     1      11.958  14.321  19.597  0.00  0.00    +0.000 A 
ATOM     14  C   UNL     1      11.635  12.977  19.755  0.00  0.00    +0.000 A 
ATOM     15  C   UNL     1      10.533  12.437  19.074  0.00  0.00    +0.000 A 
ATOM     16  C   UNL     1      10.170  11.075  19.186  0.00  0.00    +0.000 A 
ENDBRANCH   6   7
ENDBRANCH   2   5
BRANCH   3  17
ATOM     17  C   UNL     1       7.071   4.996  16.562  0.00  0.00    +0.000 C 
BRANCH  17  18
ATOM     18  C   UNL     1       5.771   4.799  15.781  0.00  0.00    +0.000 C 
BRANCH  18  19
ATOM     19  C   UNL     1       4.589   5.505  16.453  0.00  0.00    +0.000 C 
BRANCH  19  20
ATOM     20  C   UNL     1       4.172   4.801  17.741  0.00  0.00    +0.000 C 
BRANCH  20  21
ATOM     21  C   UNL     1       2.812   4.118  17.591  0.00  0.00    +0.000 C 
BRANCH  21  22
ATOM     22  C   UNL     1       2.867   2.668  18.017  0.00  0.00    +0.000 C 
ATOM     23  O   UNL     1       1.893   2.009  18.374  0.00  0.00    +0.000 OA
ATOM     24  N   UNL     1       4.126   2.124  17.971  0.00  0.00    +0.000 N 
ATOM     25  H   UNL     1       4.968   2.598  17.666  0.00  0.00    +0.000 HD
BRANCH  24  26
ATOM     26  O   UNL     1       4.237   0.768  18.345  0.00  0.00    +0.000 OA
ATOM     27  H   UNL     1       3.432   0.637  18.896  0.00  0.00    +0.000 HD
ENDBRANCH  24  26
ENDBRANCH  21  22
ENDBRANCH  20  21
ENDBRANCH  19  20
ENDBRANCH  18  19
ENDBRANCH  17  18
ENDBRANCH   3  17
TORSDOF 9
ENDMDL
MODEL 3
REMARK VINA RESULT:      -7.4      2.316      3.250
REMARK  Name = 
REMARK  9 active torsions:
REMARK  status: ('A' for Active; 'I' for Inactive)
REMARK    1  A    between atoms: C_2  and  C_3
REMARK    2  A    between atoms: C_4  and  C_5
REMARK    3  A    between atoms: N_15  and  C_16
REMARK    4  A    between atoms: C_16  and  C_17
REMARK    5  A    between atoms: C_17  and  C_18
REMARK    6  A    between atoms: C_18  and  C_19
REMARK    7  A    between atoms: C_19  and  C_20
REMARK    8  A    between atoms: C_20  and  C_21
REMARK    9  A    between atoms: N_23  and  O_24
REMARK                            x       y       z     vdW  Elec       q    Type
REMARK                         _______ _______ _______ _____ _____    ______ ____
ROOT
ATOM      1  O   UNL     1       7.900   6.493  18.942  0.00  0.00    +0.000 OA
ATOM      2  C   UNL     1       7.845   7.203  17.948  0.00  0.00    +0.000 C 
ATOM      3  N   UNL     1       7.462   6.777  16.700  0.00  0.00    +0.000 N 
ATOM      4  H   UNL     1       7.345   7.450  15.955  0.00  0.00    +0.000 HD
ENDROOT
BRANCH   2   5
ATOM      5  C   UNL     1       8.203   8.646  17.966  0.00  0.00    +0.000 C 
ATOM      6  C   UNL     1       8.946   9.169  18.955  0.00  0.00    +0.000 C 
BRANCH   6   7
ATOM      7  C   UNL     1       9.336  10.587  19.014  0.00  0.00    +0.000 A 
ATOM      8  C   UNL     1       9.601  11.330  17.860  0.00  0.00    +0.000 A 
ATOM      9  C   UNL     1       9.981  12.674  17.943  0.00  0.00    +0.000 A 
ATOM     10  C   UNL     1      10.088  13.327  19.159  0.00  0.00    +0.000 A 
ATOM     11  N   UNL     1      10.467  14.616  19.177  0.00  0.00    +0.000 NA
ATOM     12  C   UNL     1      10.558  15.232  20.376  0.00  0.00    +0.000 A 
ATOM     13  C   UNL     1      10.280  14.615  21.579  0.00  0.00    +0.000 A 
ATOM     14  C   UNL     1       9.888  13.280  21.555  0.00  0.00    +0.000 A 
ATOM     15  C   UNL     1       9.788  12.603  20.330  0.00  0.00    +0.000 A 
ATOM     16  C   UNL     1       9.409  11.242  20.249  0.00  0.00    +0.000 A 
ENDBRANCH   6   7
ENDBRANCH   2   5
BRANCH   3  17
ATOM     17  C   UNL     1       7.048   5.411  16.443  0.00  0.00    +0.000 C 
BRANCH  17  18
ATOM     18  C   UNL     1       6.060   5.332  15.279  0.00  0.00    +0.000 C 
BRANCH  18  19
ATOM     19  C   UNL     1       4.851   4.453  15.615  0.00  0.00    +0.000 C 
BRANCH  19  20
ATOM     20  C   UNL     1       4.829   4.069  17.092  0.00  0.00    +0.000 C 
BRANCH  20  21
ATOM     21  C   UNL     1       3.552   3.309  17.453  0.00  0.00    +0.000 C 
BRANCH  21  22
ATOM     22  C   UNL     1       3.685   2.598  18.782  0.00  0.00    +0.000 C 
ATOM     23  O   UNL     1       2.746   2.112  19.409  0.00  0.00    +0.000 OA
ATOM     24  N   UNL     1       4.973   2.530  19.248  0.00  0.00    +0.000 N 
ATOM     25  H   UNL     1       5.796   2.886  18.776  0.00  0.00    +0.000 HD
BRANCH  24  26
ATOM     26  O   UNL     1       5.161   1.866  20.479  0.00  0.00    +0.000 OA
ATOM     27  H   UNL     1       4.861   0.952  20.270  0.00  0.00    +0.000 HD
ENDBRANCH  24  26
ENDBRANCH  21  22
ENDBRANCH  20  21
ENDBRANCH  19  20
ENDBRANCH  18  19
ENDBRANCH  17  18
ENDBRANCH   3  17
TORSDOF 9
ENDMDL
MODEL 4
REMARK VINA RESULT:      -7.3      2.100      2.620
REMARK  Name = 
REMARK  9 active torsions:
REMARK  status: ('A' for Active; 'I' for Inactive)
REMARK    1  A    between atoms: C_2  and  C_3
REMARK    2  A    between atoms: C_4  and  C_5
REMARK    3  A    between atoms: N_15  and  C_16
REMARK    4  A    between atoms: C_16  and  C_17
REMARK    5  A    between atoms: C_17  and  C_18
REMARK    6  A    between atoms: C_18  and  C_19
REMARK    7  A    between atoms: C_19  and  C_20
REMARK    8  A    between atoms: C_20  and  C_21
REMARK    9  A    between atoms: N_23  and  O_24
REMARK                            x       y       z     vdW  Elec       q    Type
REMARK                         _______ _______ _______ _____ _____    ______ ____
ROOT
ATOM      1  O   UNL     1       7.389   5.924  18.944  0.00  0.00    +0.000 OA
ATOM      2  C   UNL     1       7.689   6.817  18.164  0.00  0.00    +0.000 C 
ATOM      3  N   UNL     1       7.207   6.934  16.882  0.00  0.00    +0.000 N 
ATOM      4  H   UNL     1       7.425   7.757  16.339  0.00  0.00    +0.000 HD
ENDROOT
BRANCH   2   5
ATOM      5  C   UNL     1       8.640   7.906  18.510  0.00  0.00    +0.000 C 
ATOM      6  C   UNL     1       8.277   9.197  18.443  0.00  0.00    +0.000 C 
BRANCH   6   7
ATOM      7  C   UNL     1       9.177  10.311  18.785  0.00  0.00    +0.000 A 
ATOM      8  C   UNL     1       9.431  10.677  20.109  0.00  0.00    +0.000 A 
ATOM      9  C   UNL     1      10.282  11.747  20.408  0.00  0.00    +0.000 A 
ATOM     10  C   UNL     1      10.920  12.469  19.413  0.00  0.00    +0.000 A 
ATOM     11  N   UNL     1      11.718  13.494  19.760  0.00  0.00    +0.000 NA
ATOM     12  C   UNL     1      12.333  14.179  18.773  0.00  0.00    +0.000 A 
ATOM     13  C   UNL     1      12.192  13.884  17.431  0.00  0.00    +0.000 A 
ATOM     14  C   UNL     1      11.365  12.823  17.077  0.00  0.00    +0.000 A 
ATOM     15  C   UNL     1      10.703  12.090  18.074  0.00  0.00    +0.000 A 
ATOM     16  C   UNL     1       9.839  11.012  17.770  0.00  0.00    +0.000 A 
ENDBRANCH   6   7
ENDBRANCH   2   5
BRANCH   3  17
ATOM     17  C   UNL     1       6.249   5.996  16.329  0.00  0.00    +0.000 C 
BRANCH  17  18
ATOM     18  C   UNL     1       4.844   6.597  16.269  0.00  0.00    +0.000 C 
BRANCH  18  19
ATOM     19  C   UNL     1       4.207   6.702  17.658  0.00  0.00    +0.000 C 
BRANCH  19  20
ATOM     20  C   UNL     1       3.944   5.324  18.260  0.00  0.00    +0.000 C 
BRANCH  20  21
ATOM     21  C   UNL     1       2.738   4.649  17.606  0.00  0.00    +0.000 C 
BRANCH  21  22
ATOM     22  C   UNL     1       2.814   3.142  17.720  0.00  0.00    +0.000 C 
ATOM     23  O   UNL     1       1.856   2.384  17.580  0.00  0.00    +0.000 OA
ATOM     24  N   UNL     1       4.071   2.670  17.998  0.00  0.00    +0.000 N 
ATOM     25  H   UNL     1       4.908   3.232  18.103  0.00  0.00    +0.000 HD
BRANCH  24  26
ATOM     26  O   UNL     1       4.207   1.269  18.104  0.00  0.00    +0.000 OA
ATOM     27  H   UNL     1       3.303   0.993  18.378  0.00  0.00    +0.000 HD
ENDBRANCH  24  26
ENDBRANCH  21  22
ENDBRANCH  20  21
ENDBRANCH  19  20
ENDBRANCH  18  19
ENDBRANCH  17  18
ENDBRANCH   3  17
TORSDOF 9
ENDMDL
MODEL 5
REMARK VINA RESULT:      -7.3      2.387      3.343
REMARK  Name = 
REMARK  9 active torsions:
REMARK  status: ('A' for Active; 'I' for Inactive)
REMARK    1  A    between atoms: C_2  and  C_3
REMARK    2  A    between atoms: C_4  and  C_5
REMARK    3  A    between atoms: N_15  and  C_16
REMARK    4  A    between atoms: C_16  and  C_17
REMARK    5  A    between atoms: C_17  and  C_18
REMARK    6  A    between atoms: C_18  and  C_19
REMARK    7  A    between atoms: C_19  and  C_20
REMARK    8  A    between atoms: C_20  and  C_21
REMARK    9  A    between atoms: N_23  and  O_24
REMARK                            x       y       z     vdW  Elec       q    Type
REMARK                         _______ _______ _______ _____ _____    ______ ____
ROOT
ATOM      1  O   UNL     1       7.560   6.377  18.740  0.00  0.00    +0.000 OA
ATOM      2  C   UNL     1       7.580   6.978  17.675  0.00  0.00    +0.000 C 
ATOM      3  N   UNL     1       7.304   6.417  16.452  0.00  0.00    +0.000 N 
ATOM      4  H   UNL     1       7.243   7.007  15.633  0.00  0.00    +0.000 HD
ENDROOT
BRANCH   2   5
ATOM      5  C   UNL     1       7.921   8.422  17.569  0.00  0.00    +0.000 C 
ATOM      6  C   UNL     1       8.658   9.036  18.509  0.00  0.00    +0.000 C 
BRANCH   6   7
ATOM      7  C   UNL     1       9.031  10.458  18.446  0.00  0.00    +0.000 A 
ATOM      8  C   UNL     1       8.263  11.395  17.750  0.00  0.00    +0.000 A 
ATOM      9  C   UNL     1       8.646  12.740  17.696  0.00  0.00    +0.000 A 
ATOM     10  C   UNL     1       9.780  13.200  18.342  0.00  0.00    +0.000 A 
ATOM     11  N   UNL     1      10.103  14.502  18.246  0.00  0.00    +0.000 NA
ATOM     12  C   UNL     1      11.211  14.928  18.890  0.00  0.00    +0.000 A 
ATOM     13  C   UNL     1      12.025  14.105  19.643  0.00  0.00    +0.000 A 
ATOM     14  C   UNL     1      11.686  12.759  19.739  0.00  0.00    +0.000 A 
ATOM     15  C   UNL     1      10.546  12.276  19.079  0.00  0.00    +0.000 A 
ATOM     16  C   UNL     1      10.164  10.915  19.131  0.00  0.00    +0.000 A 
ENDBRANCH   6   7
ENDBRANCH   2   5
BRANCH   3  17
ATOM     17  C   UNL     1       6.927   5.025  16.307  0.00  0.00    +0.000 C 
BRANCH  17  18
ATOM     18  C   UNL     1       5.509   4.881  15.753  0.00  0.00    +0.000 C 
BRANCH  18  19
ATOM     19  C   UNL     1       4.618   4.040  16.673  0.00  0.00    +0.000 C 
BRANCH  19  20
ATOM     20  C   UNL     1       4.444   4.697  18.040  0.00  0.00    +0.000 C 
BRANCH  20  21
ATOM     21  C   UNL     1       2.969   4.932  18.365  0.00  0.00    +0.000 C 
BRANCH  21  22
ATOM     22  C   UNL     1       2.736   6.317  18.926  0.00  0.00    +0.000 C 
ATOM     23  O   UNL     1       2.892   7.360  18.295  0.00  0.00    +0.000 OA
ATOM     24  N   UNL     1       2.321   6.322  20.234  0.00  0.00    +0.000 N 
ATOM     25  H   UNL     1       2.149   5.504  20.807  0.00  0.00    +0.000 HD
BRANCH  24  26
ATOM     26  O   UNL     1       2.075   7.587  20.809  0.00  0.00    +0.000 OA
ATOM     27  H   UNL     1       1.901   7.358  21.750  0.00  0.00    +0.000 HD
ENDBRANCH  24  26
ENDBRANCH  21  22
ENDBRANCH  20  21
ENDBRANCH  19  20
ENDBRANCH  18  19
ENDBRANCH  17  18
ENDBRANCH   3  17
TORSDOF 9
ENDMDL
MODEL 6
REMARK VINA RESULT:      -7.3      3.020      3.593
REMARK  Name = 
REMARK  9 active torsions:
REMARK  status: ('A' for Active; 'I' for Inactive)
REMARK    1  A    between atoms: C_2  and  C_3
REMARK    2  A    between atoms: C_4  and  C_5
REMARK    3  A    between atoms: N_15  and  C_16
REMARK    4  A    between atoms: C_16  and  C_17
REMARK    5  A    between atoms: C_17  and  C_18
REMARK    6  A    between atoms: C_18  and  C_19
REMARK    7  A    between atoms: C_19  and  C_20
REMARK    8  A    between atoms: C_20  and  C_21
REMARK    9  A    between atoms: N_23  and  O_24
REMARK                            x       y       z     vdW  Elec       q    Type
REMARK                         _______ _______ _______ _____ _____    ______ ____
ROOT
ATOM      1  O   UNL     1       7.508   5.729  16.912  0.00  0.00    +0.000 OA
ATOM      2  C   UNL     1       7.163   6.804  17.381  0.00  0.00    +0.000 C 
ATOM      3  N   UNL     1       5.875   7.283  17.386  0.00  0.00    +0.000 N 
ATOM      4  H   UNL     1       5.660   8.135  17.885  0.00  0.00    +0.000 HD
ENDROOT
BRANCH   2   5
ATOM      5  C   UNL     1       8.119   7.753  18.010  0.00  0.00    +0.000 C 
ATOM      6  C   UNL     1       7.995   9.081  17.847  0.00  0.00    +0.000 C 
BRANCH   6   7
ATOM      7  C   UNL     1       8.908  10.062  18.457  0.00  0.00    +0.000 A 
ATOM      8  C   UNL     1       8.998  10.228  19.842  0.00  0.00    +0.000 A 
ATOM      9  C   UNL     1       9.865  11.176  20.396  0.00  0.00    +0.000 A 
ATOM     10  C   UNL     1      10.681  11.966  19.605  0.00  0.00    +0.000 A 
ATOM     11  N   UNL     1      11.488  12.867  20.194  0.00  0.00    +0.000 NA
ATOM     12  C   UNL     1      12.277  13.623  19.401  0.00  0.00    +0.000 A 
ATOM     13  C   UNL     1      12.307  13.519  18.025  0.00  0.00    +0.000 A 
ATOM     14  C   UNL     1      11.471  12.585  17.420  0.00  0.00    +0.000 A 
ATOM     15  C   UNL     1      10.630  11.786  18.209  0.00  0.00    +0.000 A 
ATOM     16  C   UNL     1       9.750  10.833  17.646  0.00  0.00    +0.000 A 
ENDBRANCH   6   7
ENDBRANCH   2   5
BRANCH   3  17
ATOM     17  C   UNL     1       4.767   6.521  16.843  0.00  0.00    +0.000 C 
BRANCH  17  18
ATOM     18  C   UNL     1       4.290   5.447  17.821  0.00  0.00    +0.000 C 
BRANCH  18  19
ATOM     19  C   UNL     1       2.958   5.821  18.478  0.00  0.00    +0.000 C 
BRANCH  19  20
ATOM     20  C   UNL     1       1.795   5.038  17.875  0.00  0.00    +0.000 C 
BRANCH  20  21
ATOM     21  C   UNL     1       2.010   3.530  18.002  0.00  0.00    +0.000 C 
BRANCH  21  22
ATOM     22  C   UNL     1       2.055   3.094  19.450  0.00  0.00    +0.000 C 
ATOM     23  O   UNL     1       3.066   2.702  20.029  0.00  0.00    +0.000 OA
ATOM     24  N   UNL     1       0.845   3.176  20.091  0.00  0.00    +0.000 N 
ATOM     25  H   UNL     1      -0.022   3.510  19.686  0.00  0.00    +0.000 HD
BRANCH  24  26
ATOM     26  O   UNL     1       0.827   2.794  21.450  0.00  0.00    +0.000 OA
ATOM     27  H   UNL     1       1.642   3.223  21.797  0.00  0.00    +0.000 HD
ENDBRANCH  24  26
ENDBRANCH  21  22
ENDBRANCH  20  21
ENDBRANCH  19  20
ENDBRANCH  18  19
ENDBRANCH  17  18
ENDBRANCH   3  17
TORSDOF 9
ENDMDL
MODEL 7
REMARK VINA RESULT:      -7.2      2.214      2.802
REMARK  Name = 
REMARK  9 active torsions:
REMARK  status: ('A' for Active; 'I' for Inactive)
REMARK    1  A    between atoms: C_2  and  C_3
REMARK    2  A    between atoms: C_4  and  C_5
REMARK    3  A    between atoms: N_15  and  C_16
REMARK    4  A    between atoms: C_16  and  C_17
REMARK    5  A    between atoms: C_17  and  C_18
REMARK    6  A    between atoms: C_18  and  C_19
REMARK    7  A    between atoms: C_19  and  C_20
REMARK    8  A    between atoms: C_20  and  C_21
REMARK    9  A    between atoms: N_23  and  O_24
REMARK                            x       y       z     vdW  Elec       q    Type
REMARK                         _______ _______ _______ _____ _____    ______ ____
ROOT
ATOM      1  O   UNL     1       7.712   6.640  18.878  0.00  0.00    +0.000 OA
ATOM      2  C   UNL     1       7.832   7.339  17.881  0.00  0.00    +0.000 C 
ATOM      3  N   UNL     1       7.523   6.942  16.603  0.00  0.00    +0.000 N 
ATOM      4  H   UNL     1       7.555   7.615  15.848  0.00  0.00    +0.000 HD
ENDROOT
BRANCH   2   5
ATOM      5  C   UNL     1       8.348   8.733  17.930  0.00  0.00    +0.000 C 
ATOM      6  C   UNL     1       8.891   9.237  19.049  0.00  0.00    +0.000 C 
BRANCH   6   7
ATOM      7  C   UNL     1       9.425  10.606  19.146  0.00  0.00    +0.000 A 
ATOM      8  C   UNL     1       9.489  11.291  20.362  0.00  0.00    +0.000 A 
ATOM      9  C   UNL     1       9.991  12.596  20.426  0.00  0.00    +0.000 A 
ATOM     10  C   UNL     1      10.462  13.250  19.301  0.00  0.00    +0.000 A 
ATOM     11  N   UNL     1      10.924  14.507  19.422  0.00  0.00    +0.000 NA
ATOM     12  C   UNL     1      11.382  15.122  18.311  0.00  0.00    +0.000 A 
ATOM     13  C   UNL     1      11.410  14.532  17.063  0.00  0.00    +0.000 A 
ATOM     14  C   UNL     1      10.931  13.231  16.943  0.00  0.00    +0.000 A 
ATOM     15  C   UNL     1      10.439  12.560  18.073  0.00  0.00    +0.000 A 
ATOM     16  C   UNL     1       9.927  11.243  18.005  0.00  0.00    +0.000 A 
ENDBRANCH   6   7
ENDBRANCH   2   5
BRANCH   3  17
ATOM     17  C   UNL     1       6.984   5.628  16.310  0.00  0.00    +0.000 C 
BRANCH  17  18
ATOM     18  C   UNL     1       5.521   5.705  15.874  0.00  0.00    +0.000 C 
BRANCH  18  19
ATOM     19  C   UNL     1       4.670   4.614  16.532  0.00  0.00    +0.000 C 
BRANCH  19  20
ATOM     20  C   UNL     1       5.291   4.129  17.840  0.00  0.00    +0.000 C 
BRANCH  20  21
ATOM     21  C   UNL     1       4.286   4.180  18.990  0.00  0.00    +0.000 C 
BRANCH  21  22
ATOM     22  C   UNL     1       3.744   2.807  19.317  0.00  0.00    +0.000 C 
ATOM     23  O   UNL     1       3.044   2.548  20.294  0.00  0.00    +0.000 OA
ATOM     24  N   UNL     1       4.100   1.840  18.411  0.00  0.00    +0.000 N 
ATOM     25  H   UNL     1       4.652   1.984  17.574  0.00  0.00    +0.000 HD
BRANCH  24  26
ATOM     26  O   UNL     1       3.612   0.539  18.657  0.00  0.00    +0.000 OA
ATOM     27  H   UNL     1       3.242   0.287  17.781  0.00  0.00    +0.000 HD
ENDBRANCH  24  26
ENDBRANCH  21  22
ENDBRANCH  20  21
ENDBRANCH  19  20
ENDBRANCH  18  19
ENDBRANCH  17  18
ENDBRANCH   3  17
TORSDOF 9
ENDMDL
MODEL 8
REMARK VINA RESULT:      -7.2      2.870      3.404
REMARK  Name = 
REMARK  9 active torsions:
REMARK  status: ('A' for Active; 'I' for Inactive)
REMARK    1  A    between atoms: C_2  and  C_3
REMARK    2  A    between atoms: C_4  and  C_5
REMARK    3  A    between atoms: N_15  and  C_16
REMARK    4  A    between atoms: C_16  and  C_17
REMARK    5  A    between atoms: C_17  and  C_18
REMARK    6  A    between atoms: C_18  and  C_19
REMARK    7  A    between atoms: C_19  and  C_20
REMARK    8  A    between atoms: C_20  and  C_21
REMARK    9  A    between atoms: N_23  and  O_24
REMARK                            x       y       z     vdW  Elec       q    Type
REMARK                         _______ _______ _______ _____ _____    ______ ____
ROOT
ATOM      1  O   UNL     1       8.216   7.056  18.782  0.00  0.00    +0.000 OA
ATOM      2  C   UNL     1       7.741   7.735  17.883  0.00  0.00    +0.000 C 
ATOM      3  N   UNL     1       6.707   7.345  17.068  0.00  0.00    +0.000 N 
ATOM      4  H   UNL     1       6.306   8.006  16.416  0.00  0.00    +0.000 HD
ENDROOT
BRANCH   2   5
ATOM      5  C   UNL     1       8.242   9.094  17.547  0.00  0.00    +0.000 C 
ATOM      6  C   UNL     1       8.907   9.836  18.448  0.00  0.00    +0.000 C 
BRANCH   6   7
ATOM      7  C   UNL     1       9.432  11.181  18.162  0.00  0.00    +0.000 A 
ATOM      8  C   UNL     1      10.757  11.390  17.770  0.00  0.00    +0.000 A 
ATOM      9  C   UNL     1      11.235  12.681  17.514  0.00  0.00    +0.000 A 
ATOM     10  C   UNL     1      10.418  13.793  17.616  0.00  0.00    +0.000 A 
ATOM     11  N   UNL     1      10.935  15.009  17.368  0.00  0.00    +0.000 NA
ATOM     12  C   UNL     1      10.117  16.077  17.470  0.00  0.00    +0.000 A 
ATOM     13  C   UNL     1       8.780  15.992  17.807  0.00  0.00    +0.000 A 
ATOM     14  C   UNL     1       8.250  14.731  18.063  0.00  0.00    +0.000 A 
ATOM     15  C   UNL     1       9.070  13.596  17.975  0.00  0.00    +0.000 A 
ATOM     16  C   UNL     1       8.586  12.294  18.239  0.00  0.00    +0.000 A 
ENDBRANCH   6   7
ENDBRANCH   2   5
BRANCH   3  17
ATOM     17  C   UNL     1       6.044   6.064  17.220  0.00  0.00    +0.000 C 
BRANCH  17  18
ATOM     18  C   UNL     1       4.524   6.221  17.281  0.00  0.00    +0.000 C 
BRANCH  18  19
ATOM     19  C   UNL     1       3.862   5.074  18.049  0.00  0.00    +0.000 C 
BRANCH  19  20
ATOM     20  C   UNL     1       4.341   3.713  17.550  0.00  0.00    +0.000 C 
BRANCH  20  21
ATOM     21  C   UNL     1       3.557   2.571  18.196  0.00  0.00    +0.000 C 
BRANCH  21  22
ATOM     22  C   UNL     1       3.827   2.481  19.682  0.00  0.00    +0.000 C 
ATOM     23  O   UNL     1       4.938   2.308  20.179  0.00  0.00    +0.000 OA
ATOM     24  N   UNL     1       2.704   2.615  20.459  0.00  0.00    +0.000 N 
ATOM     25  H   UNL     1       1.764   2.783  20.121  0.00  0.00    +0.000 HD
BRANCH  24  26
ATOM     26  O   UNL     1       2.896   2.552  21.856  0.00  0.00    +0.000 OA
ATOM     27  H   UNL     1       2.323   3.285  22.177  0.00  0.00    +0.000 HD
ENDBRANCH  24  26
ENDBRANCH  21  22
ENDBRANCH  20  21
ENDBRANCH  19  20
ENDBRANCH  18  19
ENDBRANCH  17  18
ENDBRANCH   3  17
TORSDOF 9
ENDMDL
MODEL 9
REMARK VINA RESULT:      -7.1      2.797      3.500
REMARK  Name = 
REMARK  9 active torsions:
REMARK  status: ('A' for Active; 'I' for Inactive)
REMARK    1  A    between atoms: C_2  and  C_3
REMARK    2  A    between atoms: C_4  and  C_5
REMARK    3  A    between atoms: N_15  and  C_16
REMARK    4  A    between atoms: C_16  and  C_17
REMARK    5  A    between atoms: C_17  and  C_18
REMARK    6  A    between atoms: C_18  and  C_19
REMARK    7  A    between atoms: C_19  and  C_20
REMARK    8  A    between atoms: C_20  and  C_21
REMARK    9  A    between atoms: N_23  and  O_24
REMARK                            x       y       z     vdW  Elec       q    Type
REMARK                         _______ _______ _______ _____ _____    ______ ____
ROOT
ATOM      1  O   UNL     1       7.447   6.043  16.277  0.00  0.00    +0.000 OA
ATOM      2  C   UNL     1       7.301   6.712  17.290  0.00  0.00    +0.000 C 
ATOM      3  N   UNL     1       6.837   6.229  18.489  0.00  0.00    +0.000 N 
ATOM      4  H   UNL     1       6.843   6.826  19.305  0.00  0.00    +0.000 HD
ENDROOT
BRANCH   2   5
ATOM      5  C   UNL     1       7.606   8.166  17.348  0.00  0.00    +0.000 C 
ATOM      6  C   UNL     1       8.404   8.675  18.300  0.00  0.00    +0.000 C 
BRANCH   6   7
ATOM      7  C   UNL     1       8.745  10.104  18.395  0.00  0.00    +0.000 A 
ATOM      8  C   UNL     1       8.176  11.058  17.548  0.00  0.00    +0.000 A 
ATOM      9  C   UNL     1       8.525  12.410  17.651  0.00  0.00    +0.000 A 
ATOM     10  C   UNL     1       9.424  12.858  18.603  0.00  0.00    +0.000 A 
ATOM     11  N   UNL     1       9.729  14.167  18.647  0.00  0.00    +0.000 NA
ATOM     12  C   UNL     1      10.604  14.581  19.588  0.00  0.00    +0.000 A 
ATOM     13  C   UNL     1      11.199  13.739  20.507  0.00  0.00    +0.000 A 
ATOM     14  C   UNL     1      10.880  12.386  20.457  0.00  0.00    +0.000 A 
ATOM     15  C   UNL     1       9.979  11.915  19.489  0.00  0.00    +0.000 A 
ATOM     16  C   UNL     1       9.632  10.548  19.383  0.00  0.00    +0.000 A 
ENDBRANCH   6   7
ENDBRANCH   2   5
BRANCH   3  17
ATOM     17  C   UNL     1       6.493   4.833  18.679  0.00  0.00    +0.000 C 
BRANCH  17  18
ATOM     18  C   UNL     1       5.041   4.668  19.129  0.00  0.00    +0.000 C 
BRANCH  18  19
ATOM     19  C   UNL     1       4.057   4.878  17.973  0.00  0.00    +0.000 C 
BRANCH  19  20
ATOM     20  C   UNL     1       3.947   3.633  17.096  0.00  0.00    +0.000 C 
BRANCH  20  21
ATOM     21  C   UNL     1       3.170   2.520  17.799  0.00  0.00    +0.000 C 
BRANCH  21  22
ATOM     22  C   UNL     1       1.850   3.020  18.342  0.00  0.00    +0.000 C 
ATOM     23  O   UNL     1       0.995   3.598  17.674  0.00  0.00    +0.000 OA
ATOM     24  N   UNL     1       1.670   2.769  19.679  0.00  0.00    +0.000 N 
ATOM     25  H   UNL     1       2.318   2.280  20.285  0.00  0.00    +0.000 HD
BRANCH  24  26
ATOM     26  O   UNL     1       0.450   3.202  20.240  0.00  0.00    +0.000 OA
ATOM     27  H   UNL     1       0.136   2.393  20.704  0.00  0.00    +0.000 HD
ENDBRANCH  24  26
ENDBRANCH  21  22
ENDBRANCH  20  21
ENDBRANCH  19  20
ENDBRANCH  18  19
ENDBRANCH  17  18
ENDBRANCH   3  17
TORSDOF 9
ENDMDL
