MODEL 1
REMARK VINA RESULT:      -9.7      0.000      0.000
REMARK  Name = 
REMARK  8 active torsions:
REMARK  status: ('A' for Active; 'I' for Inactive)
REMARK    1  A    between atoms: C_1  and  O_2
REMARK    2  A    between atoms: O_2  and  C_3
REMARK    3  A    between atoms: C_5  and  C_6
REMARK    4  A    between atoms: C_24  and  C_25
REMARK    5  A    between atoms: N_27  and  C_28
REMARK    6  A    between atoms: C_28  and  C_29
REMARK    7  A    between atoms: C_32  and  O_33
REMARK    8  A    between atoms: C_34  and  O_35
REMARK                            x       y       z     vdW  Elec       q    Type
REMARK                         _______ _______ _______ _____ _____    ______ ____
ROOT
ATOM      1  C   UNL     1       1.244   9.029  21.282  0.00  0.00    +0.000 A 
ATOM      2  C   UNL     1       1.472   7.655  21.039  0.00  0.00    +0.000 A 
ATOM      3  C   UNL     1       1.697   7.141  19.751  0.00  0.00    +0.000 A 
ATOM      4  C   UNL     1       1.633   8.063  18.692  0.00  0.00    +0.000 A 
ATOM      5  C   UNL     1       1.461   9.430  18.915  0.00  0.00    +0.000 A 
ATOM      6  C   UNL     1       1.295   9.938  20.210  0.00  0.00    +0.000 A 
ENDROOT
BRANCH   3   7
ATOM      7  C   UNL     1       1.897   5.691  19.477  0.00  0.00    +0.000 A 
ATOM      8  C   UNL     1       1.758   4.747  20.513  0.00  0.00    +0.000 A 
ATOM      9  C   UNL     1       2.441   3.536  20.454  0.00  0.00    +0.000 A 
ATOM     10  C   UNL     1       3.204   3.269  19.321  0.00  0.00    +0.000 A 
ATOM     11  C   UNL     1       2.936   3.924  18.130  0.00  0.00    +0.000 A 
ATOM     12  C   UNL     1       2.386   5.210  18.245  0.00  0.00    +0.000 A 
ATOM     13  N   UNL     1       3.629   3.534  16.951  0.00  0.00    +0.000 N 
ATOM     14  C   UNL     1       4.915   4.102  16.760  0.00  0.00    +0.000 A 
ATOM     15  C   UNL     1       5.354   4.296  15.447  0.00  0.00    +0.000 A 
ATOM     16  C   UNL     1       6.477   5.079  15.205  0.00  0.00    +0.000 A 
ATOM     17  C   UNL     1       7.166   5.646  16.276  0.00  0.00    +0.000 A 
ATOM     18  C   UNL     1       6.814   5.326  17.592  0.00  0.00    +0.000 A 
ATOM     19  C   UNL     1       5.726   4.488  17.845  0.00  0.00    +0.000 A 
ATOM     20  N   UNL     1       5.547   4.005  19.174  0.00  0.00    +0.000 N 
ATOM     21  C   UNL     1       4.648   3.034  19.614  0.00  0.00    +0.000 C 
ATOM     22  O   UNL     1       4.973   2.184  20.435  0.00  0.00    +0.000 OA
ATOM     23  H   UNL     1       3.742   2.518  16.947  0.00  0.00    +0.000 HD
ATOM     24  H   UNL     1       6.327   4.144  19.804  0.00  0.00    +0.000 HD
ENDBRANCH   3   7
BRANCH   6  25
ATOM     25  C   UNL     1       1.184  11.433  20.299  0.00  0.00    +0.000 C 
ATOM     26  O   UNL     1       1.790  12.137  19.493  0.00  0.00    +0.000 OA
ATOM     27  N   UNL     1       0.416  11.972  21.300  0.00  0.00    +0.000 N 
ATOM     28  H   UNL     1      -0.025  11.346  21.964  0.00  0.00    +0.000 HD
BRANCH  27  29
ATOM     29  C   UNL     1       0.296  13.398  21.491  0.00  0.00    +0.000 C 
BRANCH  29  30
ATOM     30  C   UNL     1      -0.813  13.712  22.460  0.00  0.00    +0.000 A 
ATOM     31  C   UNL     1      -0.888  14.981  23.071  0.00  0.00    +0.000 A 
ATOM     32  C   UNL     1      -1.919  15.276  23.971  0.00  0.00    +0.000 A 
ATOM     33  C   UNL     1      -2.864  14.303  24.263  0.00  0.00    +0.000 A 
ATOM     34  C   UNL     1      -2.792  13.048  23.667  0.00  0.00    +0.000 A 
ATOM     35  C   UNL     1      -1.779  12.749  22.768  0.00  0.00    +0.000 A 
BRANCH  33  36
ATOM     36  O   UNL     1      -3.898  14.531  25.132  0.00  0.00    +0.000 OA
ATOM     37  H   UNL     1      -4.722  14.567  24.616  0.00  0.00    +0.000 HD
ENDBRANCH  33  36
BRANCH  34  38
ATOM     38  O   UNL     1      -3.725  12.096  23.961  0.00  0.00    +0.000 OA
ATOM     39  H   UNL     1      -4.428  12.236  23.296  0.00  0.00    +0.000 HD
ENDBRANCH  34  38
ENDBRANCH  29  30
ENDBRANCH  27  29
ENDBRANCH   6  25
BRANCH   1  41
ATOM     40  C   UNL     1      -0.309   9.288  23.067  0.00  0.00    +0.000 C 
ATOM     41  O   UNL     1       1.003   9.514  22.546  0.00  0.00    +0.000 OA
ENDBRANCH   1  41
TORSDOF 7
ENDMDL
MODEL 2
REMARK VINA RESULT:      -9.6      3.638     11.171
REMARK  Name = 
REMARK  8 active torsions:
REMARK  status: ('A' for Active; 'I' for Inactive)
REMARK    1  A    between atoms: C_1  and  O_2
REMARK    2  A    between atoms: O_2  and  C_3
REMARK    3  A    between atoms: C_5  and  C_6
REMARK    4  A    between atoms: C_24  and  C_25
REMARK    5  A    between atoms: N_27  and  C_28
REMARK    6  A    between atoms: C_28  and  C_29
REMARK    7  A    between atoms: C_32  and  O_33
REMARK    8  A    between atoms: C_34  and  O_35
REMARK                            x       y       z     vdW  Elec       q    Type
REMARK                         _______ _______ _______ _____ _____    ______ ____
ROOT
ATOM      1  C   UNL     1      -0.371  10.492  20.497  0.00  0.00    +0.000 A 
ATOM      2  C   UNL     1      -1.370  11.410  20.896  0.00  0.00    +0.000 A 
ATOM      3  C   UNL     1      -1.825  11.504  22.222  0.00  0.00    +0.000 A 
ATOM      4  C   UNL     1      -1.267  10.595  23.138  0.00  0.00    +0.000 A 
ATOM      5  C   UNL     1      -0.244   9.718  22.776  0.00  0.00    +0.000 A 
ATOM      6  C   UNL     1       0.241   9.673  21.462  0.00  0.00    +0.000 A 
ENDROOT
BRANCH   3   7
ATOM      7  C   UNL     1      -2.905  12.437  22.647  0.00  0.00    +0.000 A 
ATOM      8  C   UNL     1      -3.368  12.427  23.976  0.00  0.00    +0.000 A 
ATOM      9  C   UNL     1      -4.665  12.839  24.269  0.00  0.00    +0.000 A 
ATOM     10  C   UNL     1      -5.453  13.315  23.225  0.00  0.00    +0.000 A 
ATOM     11  C   UNL     1      -4.860  13.799  22.070  0.00  0.00    +0.000 A 
ATOM     12  C   UNL     1      -3.618  13.241  21.733  0.00  0.00    +0.000 A 
ATOM     13  N   UNL     1      -5.674  14.412  21.077  0.00  0.00    +0.000 N 
ATOM     14  C   UNL     1      -6.314  13.539  20.161  0.00  0.00    +0.000 A 
ATOM     15  C   UNL     1      -6.563  14.016  18.871  0.00  0.00    +0.000 A 
ATOM     16  C   UNL     1      -6.942  13.129  17.870  0.00  0.00    +0.000 A 
ATOM     17  C   UNL     1      -7.090  11.774  18.168  0.00  0.00    +0.000 A 
ATOM     18  C   UNL     1      -6.987  11.326  19.490  0.00  0.00    +0.000 A 
ATOM     19  C   UNL     1      -6.670  12.222  20.513  0.00  0.00    +0.000 A 
ATOM     20  N   UNL     1      -6.804  11.776  21.861  0.00  0.00    +0.000 N 
ATOM     21  C   UNL     1      -6.711  12.539  23.024  0.00  0.00    +0.000 C 
ATOM     22  O   UNL     1      -7.480  12.370  23.963  0.00  0.00    +0.000 OA
ATOM     23  H   UNL     1      -6.405  14.964  21.532  0.00  0.00    +0.000 HD
ATOM     24  H   UNL     1      -7.303  10.905  21.990  0.00  0.00    +0.000 HD
ENDBRANCH   3   7
BRANCH   6  25
ATOM     25  C   UNL     1       1.385   8.726  21.237  0.00  0.00    +0.000 C 
ATOM     26  O   UNL     1       2.190   8.517  22.143  0.00  0.00    +0.000 OA
ATOM     27  N   UNL     1       1.507   8.130  20.007  0.00  0.00    +0.000 N 
ATOM     28  H   UNL     1       0.840   8.373  19.282  0.00  0.00    +0.000 HD
BRANCH  27  29
ATOM     29  C   UNL     1       2.604   7.248  19.688  0.00  0.00    +0.000 C 
BRANCH  29  30
ATOM     30  C   UNL     1       2.100   5.859  19.400  0.00  0.00    +0.000 A 
ATOM     31  C   UNL     1       2.063   5.374  18.076  0.00  0.00    +0.000 A 
ATOM     32  C   UNL     1       1.598   4.081  17.806  0.00  0.00    +0.000 A 
ATOM     33  C   UNL     1       1.165   3.282  18.856  0.00  0.00    +0.000 A 
ATOM     34  C   UNL     1       1.194   3.758  20.162  0.00  0.00    +0.000 A 
ATOM     35  C   UNL     1       1.661   5.034  20.441  0.00  0.00    +0.000 A 
BRANCH  33  36
ATOM     36  O   UNL     1       0.702   2.009  18.656  0.00  0.00    +0.000 OA
ATOM     37  H   UNL     1       0.577   1.881  17.701  0.00  0.00    +0.000 HD
ENDBRANCH  33  36
BRANCH  34  38
ATOM     38  O   UNL     1       0.765   2.967  21.188  0.00  0.00    +0.000 OA
ATOM     39  H   UNL     1       1.399   3.147  21.912  0.00  0.00    +0.000 HD
ENDBRANCH  34  38
ENDBRANCH  29  30
ENDBRANCH  27  29
ENDBRANCH   6  25
BRANCH   1  41
ATOM     40  C   UNL     1      -0.982  10.268  18.207  0.00  0.00    +0.000 C 
ATOM     41  O   UNL     1       0.048  10.395  19.190  0.00  0.00    +0.000 OA
ENDBRANCH   1  41
TORSDOF 7
ENDMDL
MODEL 3
REMARK VINA RESULT:      -9.6      3.685     11.125
REMARK  Name = 
REMARK  8 active torsions:
REMARK  status: ('A' for Active; 'I' for Inactive)
REMARK    1  A    between atoms: C_1  and  O_2
REMARK    2  A    between atoms: O_2  and  C_3
REMARK    3  A    between atoms: C_5  and  C_6
REMARK    4  A    between atoms: C_24  and  C_25
REMARK    5  A    between atoms: N_27  and  C_28
REMARK    6  A    between atoms: C_28  and  C_29
REMARK    7  A    between atoms: C_32  and  O_33
REMARK    8  A    between atoms: C_34  and  O_35
REMARK                            x       y       z     vdW  Elec       q    Type
REMARK                         _______ _______ _______ _____ _____    ______ ____
ROOT
ATOM      1  C   UNL     1      -0.574  10.354  18.975  0.00  0.00    +0.000 A 
ATOM      2  C   UNL     1      -1.455  11.245  19.630  0.00  0.00    +0.000 A 
ATOM      3  C   UNL     1      -1.328  11.569  20.991  0.00  0.00    +0.000 A 
ATOM      4  C   UNL     1      -0.301  10.917  21.695  0.00  0.00    +0.000 A 
ATOM      5  C   UNL     1       0.610  10.075  21.055  0.00  0.00    +0.000 A 
ATOM      6  C   UNL     1       0.508   9.804  19.685  0.00  0.00    +0.000 A 
ENDROOT
BRANCH   3   7
ATOM      7  C   UNL     1      -2.273  12.474  21.703  0.00  0.00    +0.000 A 
ATOM      8  C   UNL     1      -2.468  12.346  23.091  0.00  0.00    +0.000 A 
ATOM      9  C   UNL     1      -3.667  12.748  23.671  0.00  0.00    +0.000 A 
ATOM     10  C   UNL     1      -4.628  13.332  22.850  0.00  0.00    +0.000 A 
ATOM     11  C   UNL     1      -4.257  13.914  21.649  0.00  0.00    +0.000 A 
ATOM     12  C   UNL     1      -3.124  13.371  21.024  0.00  0.00    +0.000 A 
ATOM     13  N   UNL     1      -5.228  14.629  20.895  0.00  0.00    +0.000 N 
ATOM     14  C   UNL     1      -6.064  13.856  20.049  0.00  0.00    +0.000 A 
ATOM     15  C   UNL     1      -6.545  14.456  18.881  0.00  0.00    +0.000 A 
ATOM     16  C   UNL     1      -7.141  13.673  17.900  0.00  0.00    +0.000 A 
ATOM     17  C   UNL     1      -7.272  12.299  18.100  0.00  0.00    +0.000 A 
ATOM     18  C   UNL     1      -6.928  11.727  19.330  0.00  0.00    +0.000 A 
ATOM     19  C   UNL     1      -6.388  12.518  20.346  0.00  0.00    +0.000 A 
ATOM     20  N   UNL     1      -6.270  11.948  21.648  0.00  0.00    +0.000 N 
ATOM     21  C   UNL     1      -5.927  12.597  22.833  0.00  0.00    +0.000 C 
ATOM     22  O   UNL     1      -6.503  12.353  23.887  0.00  0.00    +0.000 OA
ATOM     23  H   UNL     1      -5.837  15.147  21.533  0.00  0.00    +0.000 HD
ATOM     24  H   UNL     1      -6.763  11.077  21.795  0.00  0.00    +0.000 HD
ENDBRANCH   3   7
BRANCH   6  25
ATOM     25  C   UNL     1       1.595   8.932  19.124  0.00  0.00    +0.000 C 
ATOM     26  O   UNL     1       2.139   9.242  18.066  0.00  0.00    +0.000 OA
ATOM     27  N   UNL     1       1.938   7.795  19.811  0.00  0.00    +0.000 N 
ATOM     28  H   UNL     1       1.426   7.565  20.655  0.00  0.00    +0.000 HD
BRANCH  27  29
ATOM     29  C   UNL     1       2.935   6.873  19.318  0.00  0.00    +0.000 C 
BRANCH  29  30
ATOM     30  C   UNL     1       2.340   5.503  19.127  0.00  0.00    +0.000 A 
ATOM     31  C   UNL     1       2.335   4.900  17.852  0.00  0.00    +0.000 A 
ATOM     32  C   UNL     1       1.786   3.625  17.672  0.00  0.00    +0.000 A 
ATOM     33  C   UNL     1       1.237   2.962  18.761  0.00  0.00    +0.000 A 
ATOM     34  C   UNL     1       1.235   3.555  20.019  0.00  0.00    +0.000 A 
ATOM     35  C   UNL     1       1.784   4.813  20.210  0.00  0.00    +0.000 A 
BRANCH  33  36
ATOM     36  O   UNL     1       0.688   1.712  18.649  0.00  0.00    +0.000 OA
ATOM     37  H   UNL     1      -0.119   1.785  18.112  0.00  0.00    +0.000 HD
ENDBRANCH  33  36
BRANCH  34  38
ATOM     38  O   UNL     1       0.691   2.896  21.085  0.00  0.00    +0.000 OA
ATOM     39  H   UNL     1       0.786   1.949  20.854  0.00  0.00    +0.000 HD
ENDBRANCH  34  38
ENDBRANCH  29  30
ENDBRANCH  27  29
ENDBRANCH   6  25
BRANCH   1  41
ATOM     40  C   UNL     1      -2.069   9.923  17.173  0.00  0.00    +0.000 C 
ATOM     41  O   UNL     1      -0.724  10.029  17.646  0.00  0.00    +0.000 OA
ENDBRANCH   1  41
TORSDOF 7
ENDMDL
MODEL 4
REMARK VINA RESULT:      -9.5      1.186      2.064
REMARK  Name = 
REMARK  8 active torsions:
REMARK  status: ('A' for Active; 'I' for Inactive)
REMARK    1  A    between atoms: C_1  and  O_2
REMARK    2  A    between atoms: O_2  and  C_3
REMARK    3  A    between atoms: C_5  and  C_6
REMARK    4  A    between atoms: C_24  and  C_25
REMARK    5  A    between atoms: N_27  and  C_28
REMARK    6  A    between atoms: C_28  and  C_29
REMARK    7  A    between atoms: C_32  and  O_33
REMARK    8  A    between atoms: C_34  and  O_35
REMARK                            x       y       z     vdW  Elec       q    Type
REMARK                         _______ _______ _______ _____ _____    ______ ____
ROOT
ATOM      1  C   UNL     1       1.244   9.317  19.259  0.00  0.00    +0.000 A 
ATOM      2  C   UNL     1       1.441   7.955  18.935  0.00  0.00    +0.000 A 
ATOM      3  C   UNL     1       1.544   6.952  19.913  0.00  0.00    +0.000 A 
ATOM      4  C   UNL     1       1.491   7.377  21.251  0.00  0.00    +0.000 A 
ATOM      5  C   UNL     1       1.246   8.708  21.591  0.00  0.00    +0.000 A 
ATOM      6  C   UNL     1       1.088   9.691  20.606  0.00  0.00    +0.000 A 
ENDROOT
BRANCH   3   7
ATOM      7  C   UNL     1       1.792   5.520  19.586  0.00  0.00    +0.000 A 
ATOM      8  C   UNL     1       1.684   4.535  20.585  0.00  0.00    +0.000 A 
ATOM      9  C   UNL     1       2.406   3.350  20.483  0.00  0.00    +0.000 A 
ATOM     10  C   UNL     1       3.178   3.150  19.341  0.00  0.00    +0.000 A 
ATOM     11  C   UNL     1       2.889   3.840  18.176  0.00  0.00    +0.000 A 
ATOM     12  C   UNL     1       2.297   5.102  18.337  0.00  0.00    +0.000 A 
ATOM     13  N   UNL     1       3.595   3.517  16.984  0.00  0.00    +0.000 N 
ATOM     14  C   UNL     1       4.861   4.133  16.816  0.00  0.00    +0.000 A 
ATOM     15  C   UNL     1       5.294   4.390  15.511  0.00  0.00    +0.000 A 
ATOM     16  C   UNL     1       6.390   5.218  15.300  0.00  0.00    +0.000 A 
ATOM     17  C   UNL     1       7.060   5.768  16.392  0.00  0.00    +0.000 A 
ATOM     18  C   UNL     1       6.719   5.387  17.695  0.00  0.00    +0.000 A 
ATOM     19  C   UNL     1       5.659   4.505  17.915  0.00  0.00    +0.000 A 
ATOM     20  N   UNL     1       5.496   3.967  19.226  0.00  0.00    +0.000 N 
ATOM     21  C   UNL     1       4.629   2.952  19.628  0.00  0.00    +0.000 C 
ATOM     22  O   UNL     1       4.982   2.083  20.417  0.00  0.00    +0.000 OA
ATOM     23  H   UNL     1       3.741   2.505  16.942  0.00  0.00    +0.000 HD
ATOM     24  H   UNL     1       6.270   4.109  19.861  0.00  0.00    +0.000 HD
ENDBRANCH   3   7
BRANCH   6  25
ATOM     25  C   UNL     1       0.766  11.065  21.121  0.00  0.00    +0.000 C 
ATOM     26  O   UNL     1       1.663  11.899  21.232  0.00  0.00    +0.000 OA
ATOM     27  N   UNL     1      -0.531  11.344  21.472  0.00  0.00    +0.000 N 
ATOM     28  H   UNL     1      -1.222  10.605  21.402  0.00  0.00    +0.000 HD
BRANCH  27  29
ATOM     29  C   UNL     1      -0.918  12.620  22.024  0.00  0.00    +0.000 C 
BRANCH  29  30
ATOM     30  C   UNL     1      -2.381  12.621  22.381  0.00  0.00    +0.000 A 
ATOM     31  C   UNL     1      -3.361  12.757  21.375  0.00  0.00    +0.000 A 
ATOM     32  C   UNL     1      -4.721  12.754  21.704  0.00  0.00    +0.000 A 
ATOM     33  C   UNL     1      -5.098  12.625  23.034  0.00  0.00    +0.000 A 
ATOM     34  C   UNL     1      -4.136  12.496  24.030  0.00  0.00    +0.000 A 
ATOM     35  C   UNL     1      -2.786  12.489  23.714  0.00  0.00    +0.000 A 
BRANCH  33  36
ATOM     36  O   UNL     1      -6.413  12.613  23.418  0.00  0.00    +0.000 OA
ATOM     37  H   UNL     1      -6.711  13.535  23.500  0.00  0.00    +0.000 HD
ENDBRANCH  33  36
BRANCH  34  38
ATOM     38  O   UNL     1      -4.516  12.371  25.336  0.00  0.00    +0.000 OA
ATOM     39  H   UNL     1      -3.926  11.676  25.691  0.00  0.00    +0.000 HD
ENDBRANCH  34  38
ENDBRANCH  29  30
ENDBRANCH  27  29
ENDBRANCH   6  25
BRANCH   1  41
ATOM     40  C   UNL     1       2.410  10.875  17.888  0.00  0.00    +0.000 C 
ATOM     41  O   UNL     1       1.168  10.292  18.292  0.00  0.00    +0.000 OA
ENDBRANCH   1  41
TORSDOF 7
ENDMDL
MODEL 5
REMARK VINA RESULT:      -9.4      0.765      1.158
REMARK  Name = 
REMARK  8 active torsions:
REMARK  status: ('A' for Active; 'I' for Inactive)
REMARK    1  A    between atoms: C_1  and  O_2
REMARK    2  A    between atoms: O_2  and  C_3
REMARK    3  A    between atoms: C_5  and  C_6
REMARK    4  A    between atoms: C_24  and  C_25
REMARK    5  A    between atoms: N_27  and  C_28
REMARK    6  A    between atoms: C_28  and  C_29
REMARK    7  A    between atoms: C_32  and  O_33
REMARK    8  A    between atoms: C_34  and  O_35
REMARK                            x       y       z     vdW  Elec       q    Type
REMARK                         _______ _______ _______ _____ _____    ______ ____
ROOT
ATOM      1  C   UNL     1       1.154   9.041  21.545  0.00  0.00    +0.000 A 
ATOM      2  C   UNL     1       1.400   7.681  21.247  0.00  0.00    +0.000 A 
ATOM      3  C   UNL     1       1.600   7.217  19.936  0.00  0.00    +0.000 A 
ATOM      4  C   UNL     1       1.491   8.174  18.913  0.00  0.00    +0.000 A 
ATOM      5  C   UNL     1       1.300   9.529  19.189  0.00  0.00    +0.000 A 
ATOM      6  C   UNL     1       1.159   9.988  20.505  0.00  0.00    +0.000 A 
ENDROOT
BRANCH   3   7
ATOM      7  C   UNL     1       1.820   5.781  19.606  0.00  0.00    +0.000 A 
ATOM      8  C   UNL     1       1.664   4.794  20.596  0.00  0.00    +0.000 A 
ATOM      9  C   UNL     1       2.358   3.592  20.503  0.00  0.00    +0.000 A 
ATOM     10  C   UNL     1       3.151   3.379  19.378  0.00  0.00    +0.000 A 
ATOM     11  C   UNL     1       2.906   4.083  18.211  0.00  0.00    +0.000 A 
ATOM     12  C   UNL     1       2.343   5.358  18.366  0.00  0.00    +0.000 A 
ATOM     13  N   UNL     1       3.631   3.749  17.034  0.00  0.00    +0.000 N 
ATOM     14  C   UNL     1       4.916   4.334  16.898  0.00  0.00    +0.000 A 
ATOM     15  C   UNL     1       5.384   4.587  15.605  0.00  0.00    +0.000 A 
ATOM     16  C   UNL     1       6.506   5.389  15.425  0.00  0.00    +0.000 A 
ATOM     17  C   UNL     1       7.164   5.915  16.536  0.00  0.00    +0.000 A 
ATOM     18  C   UNL     1       6.784   5.536  17.828  0.00  0.00    +0.000 A 
ATOM     19  C   UNL     1       5.698   4.679  18.018  0.00  0.00    +0.000 A 
ATOM     20  N   UNL     1       5.491   4.138  19.321  0.00  0.00    +0.000 N 
ATOM     21  C   UNL     1       4.589   3.143  19.696  0.00  0.00    +0.000 C 
ATOM     22  O   UNL     1       4.902   2.261  20.488  0.00  0.00    +0.000 OA
ATOM     23  H   UNL     1       3.753   2.734  16.988  0.00  0.00    +0.000 HD
ATOM     24  H   UNL     1       6.254   4.257  19.975  0.00  0.00    +0.000 HD
ENDBRANCH   3   7
BRANCH   6  25
ATOM     25  C   UNL     1       1.023  11.477  20.650  0.00  0.00    +0.000 C 
ATOM     26  O   UNL     1       2.004  12.149  20.965  0.00  0.00    +0.000 OA
ATOM     27  N   UNL     1      -0.209  12.043  20.440  0.00  0.00    +0.000 N 
ATOM     28  H   UNL     1      -0.992  11.436  20.226  0.00  0.00    +0.000 HD
BRANCH  27  29
ATOM     29  C   UNL     1      -0.440  13.459  20.609  0.00  0.00    +0.000 C 
BRANCH  29  30
ATOM     30  C   UNL     1      -1.236  13.719  21.860  0.00  0.00    +0.000 A 
ATOM     31  C   UNL     1      -2.585  13.315  21.944  0.00  0.00    +0.000 A 
ATOM     32  C   UNL     1      -3.326  13.554  23.107  0.00  0.00    +0.000 A 
ATOM     33  C   UNL     1      -2.723  14.200  24.177  0.00  0.00    +0.000 A 
ATOM     34  C   UNL     1      -1.395  14.606  24.097  0.00  0.00    +0.000 A 
ATOM     35  C   UNL     1      -0.649  14.366  22.953  0.00  0.00    +0.000 A 
BRANCH  33  36
ATOM     36  O   UNL     1      -3.394  14.459  25.342  0.00  0.00    +0.000 OA
ATOM     37  H   UNL     1      -3.775  13.624  25.661  0.00  0.00    +0.000 HD
ENDBRANCH  33  36
BRANCH  34  38
ATOM     38  O   UNL     1      -0.809  15.243  25.153  0.00  0.00    +0.000 OA
ATOM     39  H   UNL     1      -0.373  16.021  24.751  0.00  0.00    +0.000 HD
ENDBRANCH  34  38
ENDBRANCH  29  30
ENDBRANCH  27  29
ENDBRANCH   6  25
BRANCH   1  41
ATOM     40  C   UNL     1      -0.428   9.592  23.235  0.00  0.00    +0.000 C 
ATOM     41  O   UNL     1       0.938   9.477  22.832  0.00  0.00    +0.000 OA
ENDBRANCH   1  41
TORSDOF 7
ENDMDL
MODEL 6
REMARK VINA RESULT:      -9.4      1.269      2.080
REMARK  Name = 
REMARK  8 active torsions:
REMARK  status: ('A' for Active; 'I' for Inactive)
REMARK    1  A    between atoms: C_1  and  O_2
REMARK    2  A    between atoms: O_2  and  C_3
REMARK    3  A    between atoms: C_5  and  C_6
REMARK    4  A    between atoms: C_24  and  C_25
REMARK    5  A    between atoms: N_27  and  C_28
REMARK    6  A    between atoms: C_28  and  C_29
REMARK    7  A    between atoms: C_32  and  O_33
REMARK    8  A    between atoms: C_34  and  O_35
REMARK                            x       y       z     vdW  Elec       q    Type
REMARK                         _______ _______ _______ _____ _____    ______ ____
ROOT
ATOM      1  C   UNL     1       1.357   9.220  18.903  0.00  0.00    +0.000 A 
ATOM      2  C   UNL     1       1.587   7.851  18.633  0.00  0.00    +0.000 A 
ATOM      3  C   UNL     1       1.580   6.870  19.639  0.00  0.00    +0.000 A 
ATOM      4  C   UNL     1       1.380   7.325  20.953  0.00  0.00    +0.000 A 
ATOM      5  C   UNL     1       1.101   8.664  21.234  0.00  0.00    +0.000 A 
ATOM      6  C   UNL     1       1.054   9.624  20.216  0.00  0.00    +0.000 A 
ENDROOT
BRANCH   3   7
ATOM      7  C   UNL     1       1.861   5.431  19.373  0.00  0.00    +0.000 A 
ATOM      8  C   UNL     1       1.730   4.481  20.403  0.00  0.00    +0.000 A 
ATOM      9  C   UNL     1       2.472   3.305  20.371  0.00  0.00    +0.000 A 
ATOM     10  C   UNL     1       3.288   3.076  19.266  0.00  0.00    +0.000 A 
ATOM     11  C   UNL     1       3.032   3.719  18.066  0.00  0.00    +0.000 A 
ATOM     12  C   UNL     1       2.417   4.977  18.159  0.00  0.00    +0.000 A 
ATOM     13  N   UNL     1       3.786   3.365  16.914  0.00  0.00    +0.000 N 
ATOM     14  C   UNL     1       5.049   3.994  16.769  0.00  0.00    +0.000 A 
ATOM     15  C   UNL     1       5.525   4.210  15.472  0.00  0.00    +0.000 A 
ATOM     16  C   UNL     1       6.616   5.048  15.271  0.00  0.00    +0.000 A 
ATOM     17  C   UNL     1       7.238   5.647  16.366  0.00  0.00    +0.000 A 
ATOM     18  C   UNL     1       6.854   5.308  17.669  0.00  0.00    +0.000 A 
ATOM     19  C   UNL     1       5.800   4.418  17.882  0.00  0.00    +0.000 A 
ATOM     20  N   UNL     1       5.597   3.925  19.204  0.00  0.00    +0.000 N 
ATOM     21  C   UNL     1       4.730   2.911  19.611  0.00  0.00    +0.000 C 
ATOM     22  O   UNL     1       5.066   2.078  20.444  0.00  0.00    +0.000 OA
ATOM     23  H   UNL     1       3.948   2.355  16.913  0.00  0.00    +0.000 HD
ATOM     24  H   UNL     1       6.345   4.102  19.862  0.00  0.00    +0.000 HD
ENDBRANCH   3   7
BRANCH   6  25
ATOM     25  C   UNL     1       0.680  11.009  20.661  0.00  0.00    +0.000 C 
ATOM     26  O   UNL     1       1.329  11.559  21.549  0.00  0.00    +0.000 OA
ATOM     27  N   UNL     1      -0.399  11.616  20.068  0.00  0.00    +0.000 N 
ATOM     28  H   UNL     1      -0.925  11.099  19.373  0.00  0.00    +0.000 HD
BRANCH  27  29
ATOM     29  C   UNL     1      -0.859  12.924  20.471  0.00  0.00    +0.000 C 
BRANCH  29  30
ATOM     30  C   UNL     1      -2.076  12.809  21.351  0.00  0.00    +0.000 A 
ATOM     31  C   UNL     1      -1.935  12.624  22.742  0.00  0.00    +0.000 A 
ATOM     32  C   UNL     1      -3.065  12.520  23.562  0.00  0.00    +0.000 A 
ATOM     33  C   UNL     1      -4.328  12.592  22.991  0.00  0.00    +0.000 A 
ATOM     34  C   UNL     1      -4.472  12.768  21.619  0.00  0.00    +0.000 A 
ATOM     35  C   UNL     1      -3.360  12.881  20.799  0.00  0.00    +0.000 A 
BRANCH  33  36
ATOM     36  O   UNL     1      -5.470  12.500  23.741  0.00  0.00    +0.000 OA
ATOM     37  H   UNL     1      -5.578  11.572  24.012  0.00  0.00    +0.000 HD
ENDBRANCH  33  36
BRANCH  34  38
ATOM     38  O   UNL     1      -5.718  12.836  21.065  0.00  0.00    +0.000 OA
ATOM     39  H   UNL     1      -5.727  13.697  20.601  0.00  0.00    +0.000 HD
ENDBRANCH  34  38
ENDBRANCH  29  30
ENDBRANCH  27  29
ENDBRANCH   6  25
BRANCH   1  41
ATOM     40  C   UNL     1       2.559  10.994  17.867  0.00  0.00    +0.000 C 
ATOM     41  O   UNL     1       1.390  10.173  17.911  0.00  0.00    +0.000 OA
ENDBRANCH   1  41
TORSDOF 7
ENDMDL
MODEL 7
REMARK VINA RESULT:      -9.4      2.403      4.041
REMARK  Name = 
REMARK  8 active torsions:
REMARK  status: ('A' for Active; 'I' for Inactive)
REMARK    1  A    between atoms: C_1  and  O_2
REMARK    2  A    between atoms: O_2  and  C_3
REMARK    3  A    between atoms: C_5  and  C_6
REMARK    4  A    between atoms: C_24  and  C_25
REMARK    5  A    between atoms: N_27  and  C_28
REMARK    6  A    between atoms: C_28  and  C_29
REMARK    7  A    between atoms: C_32  and  O_33
REMARK    8  A    between atoms: C_34  and  O_35
REMARK                            x       y       z     vdW  Elec       q    Type
REMARK                         _______ _______ _______ _____ _____    ______ ____
ROOT
ATOM      1  C   UNL     1       1.150   9.032  20.854  0.00  0.00    +0.000 A 
ATOM      2  C   UNL     1       1.414   7.651  20.699  0.00  0.00    +0.000 A 
ATOM      3  C   UNL     1       1.705   7.072  19.453  0.00  0.00    +0.000 A 
ATOM      4  C   UNL     1       1.672   7.932  18.342  0.00  0.00    +0.000 A 
ATOM      5  C   UNL     1       1.464   9.306  18.480  0.00  0.00    +0.000 A 
ATOM      6  C   UNL     1       1.231   9.881  19.736  0.00  0.00    +0.000 A 
ENDROOT
BRANCH   3   7
ATOM      7  C   UNL     1       1.945   5.613  19.271  0.00  0.00    +0.000 A 
ATOM      8  C   UNL     1       1.809   4.730  20.358  0.00  0.00    +0.000 A 
ATOM      9  C   UNL     1       2.521   3.535  20.385  0.00  0.00    +0.000 A 
ATOM     10  C   UNL     1       3.311   3.220  19.282  0.00  0.00    +0.000 A 
ATOM     11  C   UNL     1       3.050   3.796  18.050  0.00  0.00    +0.000 A 
ATOM     12  C   UNL     1       2.468   5.072  18.078  0.00  0.00    +0.000 A 
ATOM     13  N   UNL     1       3.774   3.354  16.909  0.00  0.00    +0.000 N 
ATOM     14  C   UNL     1       5.049   3.940  16.706  0.00  0.00    +0.000 A 
ATOM     15  C   UNL     1       5.508   4.066  15.391  0.00  0.00    +0.000 A 
ATOM     16  C   UNL     1       6.616   4.861  15.122  0.00  0.00    +0.000 A 
ATOM     17  C   UNL     1       7.272   5.508  16.169  0.00  0.00    +0.000 A 
ATOM     18  C   UNL     1       6.903   5.258  17.496  0.00  0.00    +0.000 A 
ATOM     19  C   UNL     1       5.831   4.410  17.780  0.00  0.00    +0.000 A 
ATOM     20  N   UNL     1       5.639   4.003  19.132  0.00  0.00    +0.000 N 
ATOM     21  C   UNL     1       4.754   3.038  19.614  0.00  0.00    +0.000 C 
ATOM     22  O   UNL     1       5.084   2.247  20.489  0.00  0.00    +0.000 OA
ATOM     23  H   UNL     1       3.911   2.341  16.967  0.00  0.00    +0.000 HD
ATOM     24  H   UNL     1       6.403   4.199  19.766  0.00  0.00    +0.000 HD
ENDBRANCH   3   7
BRANCH   6  25
ATOM     25  C   UNL     1       1.089  11.376  19.736  0.00  0.00    +0.000 C 
ATOM     26  O   UNL     1       0.536  11.935  18.790  0.00  0.00    +0.000 OA
ATOM     27  N   UNL     1       1.601  12.081  20.796  0.00  0.00    +0.000 N 
ATOM     28  H   UNL     1       2.086  11.573  21.527  0.00  0.00    +0.000 HD
BRANCH  27  29
ATOM     29  C   UNL     1       1.554  13.523  20.852  0.00  0.00    +0.000 C 
BRANCH  29  30
ATOM     30  C   UNL     1       2.837  14.115  20.332  0.00  0.00    +0.000 A 
ATOM     31  C   UNL     1       3.894  14.416  21.217  0.00  0.00    +0.000 A 
ATOM     32  C   UNL     1       5.088  14.964  20.735  0.00  0.00    +0.000 A 
ATOM     33  C   UNL     1       5.221  15.217  19.377  0.00  0.00    +0.000 A 
ATOM     34  C   UNL     1       4.179  14.928  18.501  0.00  0.00    +0.000 A 
ATOM     35  C   UNL     1       2.995  14.377  18.967  0.00  0.00    +0.000 A 
BRANCH  33  36
ATOM     36  O   UNL     1       6.365  15.749  18.845  0.00  0.00    +0.000 OA
ATOM     37  H   UNL     1       6.825  15.044  18.358  0.00  0.00    +0.000 HD
ENDBRANCH  33  36
BRANCH  34  38
ATOM     38  O   UNL     1       4.317  15.182  17.167  0.00  0.00    +0.000 OA
ATOM     39  H   UNL     1       4.129  14.322  16.739  0.00  0.00    +0.000 HD
ENDBRANCH  34  38
ENDBRANCH  29  30
ENDBRANCH  27  29
ENDBRANCH   6  25
BRANCH   1  41
ATOM     40  C   UNL     1      -0.447   9.266  22.603  0.00  0.00    +0.000 C 
ATOM     41  O   UNL     1       0.844   9.582  22.078  0.00  0.00    +0.000 OA
ENDBRANCH   1  41
TORSDOF 7
ENDMDL
MODEL 8
REMARK VINA RESULT:      -9.3      3.689     11.187
REMARK  Name = 
REMARK  8 active torsions:
REMARK  status: ('A' for Active; 'I' for Inactive)
REMARK    1  A    between atoms: C_1  and  O_2
REMARK    2  A    between atoms: O_2  and  C_3
REMARK    3  A    between atoms: C_5  and  C_6
REMARK    4  A    between atoms: C_24  and  C_25
REMARK    5  A    between atoms: N_27  and  C_28
REMARK    6  A    between atoms: C_28  and  C_29
REMARK    7  A    between atoms: C_32  and  O_33
REMARK    8  A    between atoms: C_34  and  O_35
REMARK                            x       y       z     vdW  Elec       q    Type
REMARK                         _______ _______ _______ _____ _____    ______ ____
ROOT
ATOM      1  C   UNL     1      -0.540  10.321  19.184  0.00  0.00    +0.000 A 
ATOM      2  C   UNL     1      -1.427  11.237  19.797  0.00  0.00    +0.000 A 
ATOM      3  C   UNL     1      -1.381  11.529  21.170  0.00  0.00    +0.000 A 
ATOM      4  C   UNL     1      -0.433  10.821  21.928  0.00  0.00    +0.000 A 
ATOM      5  C   UNL     1       0.484   9.953  21.335  0.00  0.00    +0.000 A 
ATOM      6  C   UNL     1       0.466   9.712  19.955  0.00  0.00    +0.000 A 
ENDROOT
BRANCH   3   7
ATOM      7  C   UNL     1      -2.335  12.461  21.835  0.00  0.00    +0.000 A 
ATOM      8  C   UNL     1      -2.558  12.377  23.222  0.00  0.00    +0.000 A 
ATOM      9  C   UNL     1      -3.767  12.802  23.765  0.00  0.00    +0.000 A 
ATOM     10  C   UNL     1      -4.707  13.366  22.907  0.00  0.00    +0.000 A 
ATOM     11  C   UNL     1      -4.309  13.909  21.697  0.00  0.00    +0.000 A 
ATOM     12  C   UNL     1      -3.167  13.341  21.112  0.00  0.00    +0.000 A 
ATOM     13  N   UNL     1      -5.260  14.606  20.901  0.00  0.00    +0.000 N 
ATOM     14  C   UNL     1      -6.083  13.811  20.063  0.00  0.00    +0.000 A 
ATOM     15  C   UNL     1      -6.537  14.378  18.868  0.00  0.00    +0.000 A 
ATOM     16  C   UNL     1      -7.119  13.567  17.900  0.00  0.00    +0.000 A 
ATOM     17  C   UNL     1      -7.262  12.201  18.138  0.00  0.00    +0.000 A 
ATOM     18  C   UNL     1      -6.946  11.665  19.392  0.00  0.00    +0.000 A 
ATOM     19  C   UNL     1      -6.421  12.484  20.394  0.00  0.00    +0.000 A 
ATOM     20  N   UNL     1      -6.333  11.955  21.715  0.00  0.00    +0.000 N 
ATOM     21  C   UNL     1      -6.010  12.638  22.887  0.00  0.00    +0.000 C 
ATOM     22  O   UNL     1      -6.608  12.429  23.936  0.00  0.00    +0.000 OA
ATOM     23  H   UNL     1      -5.879  15.146  21.511  0.00  0.00    +0.000 HD
ATOM     24  H   UNL     1      -6.834  11.091  21.879  0.00  0.00    +0.000 HD
ENDBRANCH   3   7
BRANCH   6  25
ATOM     25  C   UNL     1       1.552   8.804  19.452  0.00  0.00    +0.000 C 
ATOM     26  O   UNL     1       2.098   9.047  18.377  0.00  0.00    +0.000 OA
ATOM     27  N   UNL     1       1.892   7.711  20.209  0.00  0.00    +0.000 N 
ATOM     28  H   UNL     1       1.378   7.535  21.065  0.00  0.00    +0.000 HD
BRANCH  27  29
ATOM     29  C   UNL     1       2.887   6.759  19.776  0.00  0.00    +0.000 C 
BRANCH  29  30
ATOM     30  C   UNL     1       2.252   5.424  19.488  0.00  0.00    +0.000 A 
ATOM     31  C   UNL     1       1.443   4.795  20.457  0.00  0.00    +0.000 A 
ATOM     32  C   UNL     1       0.849   3.556  20.190  0.00  0.00    +0.000 A 
ATOM     33  C   UNL     1       1.072   2.946  18.963  0.00  0.00    +0.000 A 
ATOM     34  C   UNL     1       1.874   3.559  18.007  0.00  0.00    +0.000 A 
ATOM     35  C   UNL     1       2.460   4.790  18.258  0.00  0.00    +0.000 A 
BRANCH  33  36
ATOM     36  O   UNL     1       0.517   1.736  18.642  0.00  0.00    +0.000 OA
ATOM     37  H   UNL     1      -0.420   1.757  18.900  0.00  0.00    +0.000 HD
ENDBRANCH  33  36
BRANCH  34  38
ATOM     38  O   UNL     1       2.090   2.951  16.803  0.00  0.00    +0.000 OA
ATOM     39  H   UNL     1       1.434   2.225  16.781  0.00  0.00    +0.000 HD
ENDBRANCH  34  38
ENDBRANCH  29  30
ENDBRANCH  27  29
ENDBRANCH   6  25
BRANCH   1  41
ATOM     40  C   UNL     1      -1.923   9.977  17.278  0.00  0.00    +0.000 C 
ATOM     41  O   UNL     1      -0.611  10.027  17.842  0.00  0.00    +0.000 OA
ENDBRANCH   1  41
TORSDOF 7
ENDMDL
MODEL 9
REMARK VINA RESULT:      -9.3      2.153      3.942
REMARK  Name = 
REMARK  8 active torsions:
REMARK  status: ('A' for Active; 'I' for Inactive)
REMARK    1  A    between atoms: C_1  and  O_2
REMARK    2  A    between atoms: O_2  and  C_3
REMARK    3  A    between atoms: C_5  and  C_6
REMARK    4  A    between atoms: C_24  and  C_25
REMARK    5  A    between atoms: N_27  and  C_28
REMARK    6  A    between atoms: C_28  and  C_29
REMARK    7  A    between atoms: C_32  and  O_33
REMARK    8  A    between atoms: C_34  and  O_35
REMARK                            x       y       z     vdW  Elec       q    Type
REMARK                         _______ _______ _______ _____ _____    ______ ____
ROOT
ATOM      1  C   UNL     1       1.305   9.316  19.352  0.00  0.00    +0.000 A 
ATOM      2  C   UNL     1       1.494   7.959  19.001  0.00  0.00    +0.000 A 
ATOM      3  C   UNL     1       1.546   6.931  19.957  0.00  0.00    +0.000 A 
ATOM      4  C   UNL     1       1.453   7.325  21.303  0.00  0.00    +0.000 A 
ATOM      5  C   UNL     1       1.215   8.651  21.667  0.00  0.00    +0.000 A 
ATOM      6  C   UNL     1       1.107   9.660  20.701  0.00  0.00    +0.000 A 
ENDROOT
BRANCH   3   7
ATOM      7  C   UNL     1       1.785   5.503  19.604  0.00  0.00    +0.000 A 
ATOM      8  C   UNL     1       1.650   4.499  20.581  0.00  0.00    +0.000 A 
ATOM      9  C   UNL     1       2.361   3.309  20.465  0.00  0.00    +0.000 A 
ATOM     10  C   UNL     1       3.149   3.124  19.332  0.00  0.00    +0.000 A 
ATOM     11  C   UNL     1       2.886   3.841  18.177  0.00  0.00    +0.000 A 
ATOM     12  C   UNL     1       2.306   5.106  18.355  0.00  0.00    +0.000 A 
ATOM     13  N   UNL     1       3.608   3.536  16.990  0.00  0.00    +0.000 N 
ATOM     14  C   UNL     1       4.883   4.141  16.855  0.00  0.00    +0.000 A 
ATOM     15  C   UNL     1       5.339   4.420  15.563  0.00  0.00    +0.000 A 
ATOM     16  C   UNL     1       6.448   5.240  15.387  0.00  0.00    +0.000 A 
ATOM     17  C   UNL     1       7.106   5.760  16.501  0.00  0.00    +0.000 A 
ATOM     18  C   UNL     1       6.740   5.356  17.790  0.00  0.00    +0.000 A 
ATOM     19  C   UNL     1       5.668   4.481  17.975  0.00  0.00    +0.000 A 
ATOM     20  N   UNL     1       5.477   3.918  19.271  0.00  0.00    +0.000 N 
ATOM     21  C   UNL     1       4.593   2.904  19.637  0.00  0.00    +0.000 C 
ATOM     22  O   UNL     1       4.924   2.016  20.414  0.00  0.00    +0.000 OA
ATOM     23  H   UNL     1       3.744   2.523  16.929  0.00  0.00    +0.000 HD
ATOM     24  H   UNL     1       6.243   4.038  19.922  0.00  0.00    +0.000 HD
ENDBRANCH   3   7
BRANCH   6  25
ATOM     25  C   UNL     1       0.788  11.026  21.238  0.00  0.00    +0.000 C 
ATOM     26  O   UNL     1       0.126  11.135  22.269  0.00  0.00    +0.000 OA
ATOM     27  N   UNL     1       1.236  12.121  20.544  0.00  0.00    +0.000 N 
ATOM     28  H   UNL     1       1.739  11.973  19.676  0.00  0.00    +0.000 HD
BRANCH  27  29
ATOM     29  C   UNL     1       0.931  13.470  20.960  0.00  0.00    +0.000 C 
BRANCH  29  30
ATOM     30  C   UNL     1       1.495  14.466  19.982  0.00  0.00    +0.000 A 
ATOM     31  C   UNL     1       0.969  15.773  19.913  0.00  0.00    +0.000 A 
ATOM     32  C   UNL     1       1.494  16.702  19.006  0.00  0.00    +0.000 A 
ATOM     33  C   UNL     1       2.534  16.322  18.170  0.00  0.00    +0.000 A 
ATOM     34  C   UNL     1       3.053  15.033  18.231  0.00  0.00    +0.000 A 
ATOM     35  C   UNL     1       2.546  14.108  19.131  0.00  0.00    +0.000 A 
BRANCH  33  36
ATOM     36  O   UNL     1       3.092  17.186  17.265  0.00  0.00    +0.000 OA
ATOM     37  H   UNL     1       3.999  17.380  17.555  0.00  0.00    +0.000 HD
ENDBRANCH  33  36
BRANCH  34  38
ATOM     38  O   UNL     1       4.075  14.666  17.403  0.00  0.00    +0.000 OA
ATOM     39  H   UNL     1       3.624  14.296  16.616  0.00  0.00    +0.000 HD
ENDBRANCH  34  38
ENDBRANCH  29  30
ENDBRANCH  27  29
ENDBRANCH   6  25
BRANCH   1  41
ATOM     40  C   UNL     1       2.522  10.606  17.764  0.00  0.00    +0.000 C 
ATOM     41  O   UNL     1       1.278  10.315  18.406  0.00  0.00    +0.000 OA
ENDBRANCH   1  41
TORSDOF 7
ENDMDL
