MODEL 1
REMARK VINA RESULT:      -7.8      0.000      0.000
REMARK  Name = 
REMARK  4 active torsions:
REMARK  status: ('A' for Active; 'I' for Inactive)
REMARK    1  A    between atoms: C_1  and  C_2
REMARK    2  A    between atoms: C_2  and  C_3
REMARK    3  A    between atoms: C_8  and  N_9
REMARK    4  A    between atoms: C_10  and  C_12
REMARK                            x       y       z     vdW  Elec       q    Type
REMARK                         _______ _______ _______ _____ _____    ______ ____
ROOT
ATOM      1  C   UNL     1       0.513   3.177  20.177  0.00  0.00    +0.000 C 
ATOM      2  C   UNL     1       2.011   3.390  20.407  0.00  0.00    +0.000 C 
ATOM      3  C   UNL     1       2.436   2.783  21.744  0.00  0.00    +0.000 C 
ATOM      4  O   UNL     1       2.255   4.815  20.465  0.00  0.00    +0.000 OA
ATOM      5  C   UNL     1       2.996   4.997  19.340  0.00  0.00    +0.000 A 
ATOM      6  C   UNL     1       3.425   6.209  18.861  0.00  0.00    +0.000 A 
ATOM      7  C   UNL     1       4.155   6.215  17.668  0.00  0.00    +0.000 A 
ATOM      8  C   UNL     1       4.451   5.020  16.980  0.00  0.00    +0.000 A 
ATOM      9  C   UNL     1       4.009   3.797  17.512  0.00  0.00    +0.000 A 
ATOM     10  C   UNL     1       3.278   3.820  18.688  0.00  0.00    +0.000 A 
ATOM     11  O   UNL     1       2.745   2.743  19.333  0.00  0.00    +0.000 OA
ENDROOT
BRANCH   8  12
ATOM     12  N   UNL     1       5.179   4.991  15.768  0.00  0.00    +0.000 N 
ATOM     13  C   UNL     1       6.527   4.708  15.602  0.00  0.00    +0.000 C 
ATOM     14  O   UNL     1       7.315   4.456  16.508  0.00  0.00    +0.000 OA
ATOM     15  H   UNL     1       4.677   5.211  14.915  0.00  0.00    +0.000 HD
BRANCH  13  16
ATOM     16  C   UNL     1       6.971   4.731  14.220  0.00  0.00    +0.000 A 
ATOM     17  C   UNL     1       6.561   3.974  13.139  0.00  0.00    +0.000 A 
ATOM     18  C   UNL     1       7.306   4.416  12.021  0.00  0.00    +0.000 A 
ATOM     19  C   UNL     1       8.131   5.412  12.486  0.00  0.00    +0.000 A 
ATOM     20  O   UNL     1       7.942   5.614  13.819  0.00  0.00    +0.000 OA
ENDBRANCH  13  16
ENDBRANCH   8  12
TORSDOF 2
ENDMDL
MODEL 2
REMARK VINA RESULT:      -7.4      0.842      1.033
REMARK  Name = 
REMARK  4 active torsions:
REMARK  status: ('A' for Active; 'I' for Inactive)
REMARK    1  A    between atoms: C_1  and  C_2
REMARK    2  A    between atoms: C_2  and  C_3
REMARK    3  A    between atoms: C_8  and  N_9
REMARK    4  A    between atoms: C_10  and  C_12
REMARK                            x       y       z     vdW  Elec       q    Type
REMARK                         _______ _______ _______ _____ _____    ______ ____
ROOT
ATOM      1  C   UNL     1       0.682   3.423  20.405  0.00  0.00    +0.000 C 
ATOM      2  C   UNL     1       2.205   3.292  20.474  0.00  0.00    +0.000 C 
ATOM      3  C   UNL     1       2.617   2.506  21.718  0.00  0.00    +0.000 C 
ATOM      4  O   UNL     1       2.762   4.623  20.580  0.00  0.00    +0.000 OA
ATOM      5  C   UNL     1       3.409   4.729  19.389  0.00  0.00    +0.000 A 
ATOM      6  C   UNL     1       4.045   5.854  18.930  0.00  0.00    +0.000 A 
ATOM      7  C   UNL     1       4.634   5.797  17.663  0.00  0.00    +0.000 A 
ATOM      8  C   UNL     1       4.589   4.624  16.882  0.00  0.00    +0.000 A 
ATOM      9  C   UNL     1       3.943   3.486  17.394  0.00  0.00    +0.000 A 
ATOM     10  C   UNL     1       3.357   3.574  18.646  0.00  0.00    +0.000 A 
ATOM     11  O   UNL     1       2.666   2.589  19.289  0.00  0.00    +0.000 OA
ENDROOT
BRANCH   8  12
ATOM     12  N   UNL     1       5.166   4.535  15.594  0.00  0.00    +0.000 N 
ATOM     13  C   UNL     1       6.517   4.549  15.275  0.00  0.00    +0.000 C 
ATOM     14  O   UNL     1       7.435   4.666  16.080  0.00  0.00    +0.000 OA
ATOM     15  H   UNL     1       4.538   4.463  14.802  0.00  0.00    +0.000 HD
BRANCH  13  16
ATOM     16  C   UNL     1       6.790   4.410  13.855  0.00  0.00    +0.000 A 
ATOM     17  C   UNL     1       7.633   5.136  13.034  0.00  0.00    +0.000 A 
ATOM     18  C   UNL     1       7.534   4.571  11.742  0.00  0.00    +0.000 A 
ATOM     19  C   UNL     1       6.631   3.540  11.847  0.00  0.00    +0.000 A 
ATOM     20  O   UNL     1       6.169   3.431  13.122  0.00  0.00    +0.000 OA
ENDBRANCH  13  16
ENDBRANCH   8  12
TORSDOF 2
ENDMDL
MODEL 3
REMARK VINA RESULT:      -6.6      1.501      1.705
REMARK  Name = 
REMARK  4 active torsions:
REMARK  status: ('A' for Active; 'I' for Inactive)
REMARK    1  A    between atoms: C_1  and  C_2
REMARK    2  A    between atoms: C_2  and  C_3
REMARK    3  A    between atoms: C_8  and  N_9
REMARK    4  A    between atoms: C_10  and  C_12
REMARK                            x       y       z     vdW  Elec       q    Type
REMARK                         _______ _______ _______ _____ _____    ______ ____
ROOT
ATOM      1  C   UNL     1       1.020   5.348  20.508  0.00  0.00    +0.000 C 
ATOM      2  C   UNL     1       1.827   4.062  20.318  0.00  0.00    +0.000 C 
ATOM      3  C   UNL     1       1.245   2.936  21.173  0.00  0.00    +0.000 C 
ATOM      4  O   UNL     1       3.179   4.313  20.769  0.00  0.00    +0.000 OA
ATOM      5  C   UNL     1       3.863   4.224  19.598  0.00  0.00    +0.000 A 
ATOM      6  C   UNL     1       5.204   4.473  19.443  0.00  0.00    +0.000 A 
ATOM      7  C   UNL     1       5.740   4.364  18.156  0.00  0.00    +0.000 A 
ATOM      8  C   UNL     1       4.941   4.001  17.053  0.00  0.00    +0.000 A 
ATOM      9  C   UNL     1       3.575   3.737  17.256  0.00  0.00    +0.000 A 
ATOM     10  C   UNL     1       3.067   3.865  18.538  0.00  0.00    +0.000 A 
ATOM     11  O   UNL     1       1.770   3.679  18.918  0.00  0.00    +0.000 OA
ENDROOT
BRANCH   8  12
ATOM     12  N   UNL     1       5.449   3.890  15.738  0.00  0.00    +0.000 N 
ATOM     13  C   UNL     1       5.934   4.912  14.935  0.00  0.00    +0.000 C 
ATOM     14  O   UNL     1       5.974   6.099  15.244  0.00  0.00    +0.000 OA
ATOM     15  H   UNL     1       5.458   2.969  15.315  0.00  0.00    +0.000 HD
BRANCH  13  16
ATOM     16  C   UNL     1       6.414   4.467  13.638  0.00  0.00    +0.000 A 
ATOM     17  C   UNL     1       7.422   4.972  12.839  0.00  0.00    +0.000 A 
ATOM     18  C   UNL     1       7.485   4.151  11.689  0.00  0.00    +0.000 A 
ATOM     19  C   UNL     1       6.507   3.199  11.850  0.00  0.00    +0.000 A 
ATOM     20  O   UNL     1       5.846   3.379  13.025  0.00  0.00    +0.000 OA
ENDBRANCH  13  16
ENDBRANCH   8  12
TORSDOF 2
ENDMDL
MODEL 4
REMARK VINA RESULT:      -6.5      3.749      7.468
REMARK  Name = 
REMARK  4 active torsions:
REMARK  status: ('A' for Active; 'I' for Inactive)
REMARK    1  A    between atoms: C_1  and  C_2
REMARK    2  A    between atoms: C_2  and  C_3
REMARK    3  A    between atoms: C_8  and  N_9
REMARK    4  A    between atoms: C_10  and  C_12
REMARK                            x       y       z     vdW  Elec       q    Type
REMARK                         _______ _______ _______ _____ _____    ______ ____
ROOT
ATOM      1  C   UNL     1       5.814   4.793  14.495  0.00  0.00    +0.000 C 
ATOM      2  C   UNL     1       5.977   4.809  16.016  0.00  0.00    +0.000 C 
ATOM      3  C   UNL     1       7.367   4.307  16.409  0.00  0.00    +0.000 C 
ATOM      4  O   UNL     1       4.999   3.904  16.580  0.00  0.00    +0.000 OA
ATOM      5  C   UNL     1       4.191   4.774  17.242  0.00  0.00    +0.000 A 
ATOM      6  C   UNL     1       3.029   4.440  17.890  0.00  0.00    +0.000 A 
ATOM      7  C   UNL     1       2.303   5.471  18.495  0.00  0.00    +0.000 A 
ATOM      8  C   UNL     1       2.749   6.808  18.454  0.00  0.00    +0.000 A 
ATOM      9  C   UNL     1       3.953   7.107  17.795  0.00  0.00    +0.000 A 
ATOM     10  C   UNL     1       4.646   6.070  17.194  0.00  0.00    +0.000 A 
ATOM     11  O   UNL     1       5.810   6.173  16.490  0.00  0.00    +0.000 OA
ENDROOT
BRANCH   8  12
ATOM     12  N   UNL     1       2.035   7.875  19.048  0.00  0.00    +0.000 N 
ATOM     13  C   UNL     1       1.642   9.062  18.446  0.00  0.00    +0.000 C 
ATOM     14  O   UNL     1       1.881   9.382  17.286  0.00  0.00    +0.000 OA
ATOM     15  H   UNL     1       1.784   7.784  20.025  0.00  0.00    +0.000 HD
BRANCH  13  16
ATOM     16  C   UNL     1       0.895   9.949  19.320  0.00  0.00    +0.000 A 
ATOM     17  C   UNL     1       0.621   9.847  20.671  0.00  0.00    +0.000 A 
ATOM     18  C   UNL     1      -0.130  10.991  21.025  0.00  0.00    +0.000 A 
ATOM     19  C   UNL     1      -0.276  11.721  19.870  0.00  0.00    +0.000 A 
ATOM     20  O   UNL     1       0.337  11.101  18.825  0.00  0.00    +0.000 OA
ENDBRANCH  13  16
ENDBRANCH   8  12
TORSDOF 2
ENDMDL
MODEL 5
REMARK VINA RESULT:      -6.4      3.675      7.446
REMARK  Name = 
REMARK  4 active torsions:
REMARK  status: ('A' for Active; 'I' for Inactive)
REMARK    1  A    between atoms: C_1  and  C_2
REMARK    2  A    between atoms: C_2  and  C_3
REMARK    3  A    between atoms: C_8  and  N_9
REMARK    4  A    between atoms: C_10  and  C_12
REMARK                            x       y       z     vdW  Elec       q    Type
REMARK                         _______ _______ _______ _____ _____    ______ ____
ROOT
ATOM      1  C   UNL     1       6.532   4.619  15.128  0.00  0.00    +0.000 C 
ATOM      2  C   UNL     1       6.375   4.876  16.628  0.00  0.00    +0.000 C 
ATOM      3  C   UNL     1       7.656   4.498  17.371  0.00  0.00    +0.000 C 
ATOM      4  O   UNL     1       5.308   4.031  17.117  0.00  0.00    +0.000 OA
ATOM      5  C   UNL     1       4.374   4.959  17.452  0.00  0.00    +0.000 A 
ATOM      6  C   UNL     1       3.104   4.683  17.894  0.00  0.00    +0.000 A 
ATOM      7  C   UNL     1       2.261   5.765  18.166  0.00  0.00    +0.000 A 
ATOM      8  C   UNL     1       2.696   7.096  18.004  0.00  0.00    +0.000 A 
ATOM      9  C   UNL     1       4.009   7.339  17.566  0.00  0.00    +0.000 A 
ATOM     10  C   UNL     1       4.819   6.249  17.292  0.00  0.00    +0.000 A 
ATOM     11  O   UNL     1       6.103   6.289  16.833  0.00  0.00    +0.000 OA
ENDROOT
BRANCH   8  12
ATOM     12  N   UNL     1       1.866   8.213  18.261  0.00  0.00    +0.000 N 
ATOM     13  C   UNL     1       1.443   8.679  19.498  0.00  0.00    +0.000 C 
ATOM     14  O   UNL     1       1.712   8.166  20.579  0.00  0.00    +0.000 OA
ATOM     15  H   UNL     1       1.525   8.737  17.464  0.00  0.00    +0.000 HD
BRANCH  13  16
ATOM     16  C   UNL     1       0.617   9.871  19.429  0.00  0.00    +0.000 A 
ATOM     17  C   UNL     1       0.464  10.904  20.335  0.00  0.00    +0.000 A 
ATOM     18  C   UNL     1      -0.449  11.820  19.763  0.00  0.00    +0.000 A 
ATOM     19  C   UNL     1      -0.805  11.290  18.546  0.00  0.00    +0.000 A 
ATOM     20  O   UNL     1      -0.170  10.106  18.329  0.00  0.00    +0.000 OA
ENDBRANCH  13  16
ENDBRANCH   8  12
TORSDOF 2
ENDMDL
MODEL 6
REMARK VINA RESULT:      -6.3      2.475      3.532
REMARK  Name = 
REMARK  4 active torsions:
REMARK  status: ('A' for Active; 'I' for Inactive)
REMARK    1  A    between atoms: C_1  and  C_2
REMARK    2  A    between atoms: C_2  and  C_3
REMARK    3  A    between atoms: C_8  and  N_9
REMARK    4  A    between atoms: C_10  and  C_12
REMARK                            x       y       z     vdW  Elec       q    Type
REMARK                         _______ _______ _______ _____ _____    ______ ____
ROOT
ATOM      1  C   UNL     1       1.852   9.200  22.133  0.00  0.00    +0.000 C 
ATOM      2  C   UNL     1       1.047   8.481  21.050  0.00  0.00    +0.000 C 
ATOM      3  C   UNL     1      -0.390   9.001  21.019  0.00  0.00    +0.000 C 
ATOM      4  O   UNL     1       1.007   7.074  21.384  0.00  0.00    +0.000 OA
ATOM      5  C   UNL     1       1.741   6.545  20.370  0.00  0.00    +0.000 A 
ATOM      6  C   UNL     1       2.096   5.224  20.254  0.00  0.00    +0.000 A 
ATOM      7  C   UNL     1       2.883   4.857  19.158  0.00  0.00    +0.000 A 
ATOM      8  C   UNL     1       3.293   5.803  18.196  0.00  0.00    +0.000 A 
ATOM      9  C   UNL     1       2.895   7.143  18.341  0.00  0.00    +0.000 A 
ATOM     10  C   UNL     1       2.126   7.482  19.442  0.00  0.00    +0.000 A 
ATOM     11  O   UNL     1       1.673   8.728  19.762  0.00  0.00    +0.000 OA
ENDROOT
BRANCH   8  12
ATOM     12  N   UNL     1       4.096   5.467  17.081  0.00  0.00    +0.000 N 
ATOM     13  C   UNL     1       5.479   5.545  16.987  0.00  0.00    +0.000 C 
ATOM     14  O   UNL     1       6.229   5.949  17.870  0.00  0.00    +0.000 OA
ATOM     15  H   UNL     1       3.625   5.142  16.245  0.00  0.00    +0.000 HD
BRANCH  13  16
ATOM     16  C   UNL     1       6.010   5.099  15.711  0.00  0.00    +0.000 A 
ATOM     17  C   UNL     1       5.479   4.226  14.780  0.00  0.00    +0.000 A 
ATOM     18  C   UNL     1       6.399   4.158  13.709  0.00  0.00    +0.000 A 
ATOM     19  C   UNL     1       7.441   4.987  14.051  0.00  0.00    +0.000 A 
ATOM     20  O   UNL     1       7.221   5.563  15.264  0.00  0.00    +0.000 OA
ENDBRANCH  13  16
ENDBRANCH   8  12
TORSDOF 2
ENDMDL
MODEL 7
REMARK VINA RESULT:      -6.3      4.983      8.598
REMARK  Name = 
REMARK  4 active torsions:
REMARK  status: ('A' for Active; 'I' for Inactive)
REMARK    1  A    between atoms: C_1  and  C_2
REMARK    2  A    between atoms: C_2  and  C_3
REMARK    3  A    between atoms: C_8  and  N_9
REMARK    4  A    between atoms: C_10  and  C_12
REMARK                            x       y       z     vdW  Elec       q    Type
REMARK                         _______ _______ _______ _____ _____    ______ ____
ROOT
ATOM      1  C   UNL     1       5.653   5.006  19.316  0.00  0.00    +0.000 C 
ATOM      2  C   UNL     1       4.245   4.975  18.717  0.00  0.00    +0.000 C 
ATOM      3  C   UNL     1       3.946   3.595  18.130  0.00  0.00    +0.000 C 
ATOM      4  O   UNL     1       4.198   5.939  17.639  0.00  0.00    +0.000 OA
ATOM      5  C   UNL     1       3.330   6.853  18.147  0.00  0.00    +0.000 A 
ATOM      6  C   UNL     1       2.995   8.044  17.553  0.00  0.00    +0.000 A 
ATOM      7  C   UNL     1       2.105   8.882  18.232  0.00  0.00    +0.000 A 
ATOM      8  C   UNL     1       1.560   8.519  19.481  0.00  0.00    +0.000 A 
ATOM      9  C   UNL     1       1.913   7.283  20.049  0.00  0.00    +0.000 A 
ATOM     10  C   UNL     1       2.806   6.478  19.361  0.00  0.00    +0.000 A 
ATOM     11  O   UNL     1       3.284   5.267  19.767  0.00  0.00    +0.000 OA
ENDROOT
BRANCH   8  12
ATOM     12  N   UNL     1       0.665   9.346  20.199  0.00  0.00    +0.000 N 
ATOM     13  C   UNL     1       0.819   9.830  21.490  0.00  0.00    +0.000 C 
ATOM     14  O   UNL     1       1.767   9.589  22.229  0.00  0.00    +0.000 OA
ATOM     15  H   UNL     1      -0.196   9.616  19.737  0.00  0.00    +0.000 HD
BRANCH  13  16
ATOM     16  C   UNL     1      -0.270  10.683  21.935  0.00  0.00    +0.000 A 
ATOM     17  C   UNL     1      -1.018  10.640  23.096  0.00  0.00    +0.000 A 
ATOM     18  C   UNL     1      -1.937  11.713  23.033  0.00  0.00    +0.000 A 
ATOM     19  C   UNL     1      -1.700  12.343  21.835  0.00  0.00    +0.000 A 
ATOM     20  O   UNL     1      -0.694  11.729  21.156  0.00  0.00    +0.000 OA
ENDBRANCH  13  16
ENDBRANCH   8  12
TORSDOF 2
ENDMDL
MODEL 8
REMARK VINA RESULT:      -6.2      3.816      5.235
REMARK  Name = 
REMARK  4 active torsions:
REMARK  status: ('A' for Active; 'I' for Inactive)
REMARK    1  A    between atoms: C_1  and  C_2
REMARK    2  A    between atoms: C_2  and  C_3
REMARK    3  A    between atoms: C_8  and  N_9
REMARK    4  A    between atoms: C_10  and  C_12
REMARK                            x       y       z     vdW  Elec       q    Type
REMARK                         _______ _______ _______ _____ _____    ______ ____
ROOT
ATOM      1  C   UNL     1       1.031  12.117  20.628  0.00  0.00    +0.000 C 
ATOM      2  C   UNL     1       0.265  10.959  19.984  0.00  0.00    +0.000 C 
ATOM      3  C   UNL     1      -1.207  11.330  19.801  0.00  0.00    +0.000 C 
ATOM      4  O   UNL     1       0.333   9.826  20.881  0.00  0.00    +0.000 OA
ATOM      5  C   UNL     1       1.088   8.963  20.152  0.00  0.00    +0.000 A 
ATOM      6  C   UNL     1       1.537   7.741  20.586  0.00  0.00    +0.000 A 
ATOM      7  C   UNL     1       2.333   6.993  19.713  0.00  0.00    +0.000 A 
ATOM      8  C   UNL     1       2.659   7.467  18.425  0.00  0.00    +0.000 A 
ATOM      9  C   UNL     1       2.165   8.716  18.011  0.00  0.00    +0.000 A 
ATOM     10  C   UNL     1       1.390   9.441  18.900  0.00  0.00    +0.000 A 
ATOM     11  O   UNL     1       0.852  10.676  18.686  0.00  0.00    +0.000 OA
ENDROOT
BRANCH   8  12
ATOM     12  N   UNL     1       3.468   6.741  17.521  0.00  0.00    +0.000 N 
ATOM     13  C   UNL     1       4.557   5.936  17.825  0.00  0.00    +0.000 C 
ATOM     14  O   UNL     1       5.007   5.748  18.951  0.00  0.00    +0.000 OA
ATOM     15  H   UNL     1       3.249   6.813  16.534  0.00  0.00    +0.000 HD
BRANCH  13  16
ATOM     16  C   UNL     1       5.164   5.300  16.669  0.00  0.00    +0.000 A 
ATOM     17  C   UNL     1       5.177   3.973  16.286  0.00  0.00    +0.000 A 
ATOM     18  C   UNL     1       5.894   3.903  15.070  0.00  0.00    +0.000 A 
ATOM     19  C   UNL     1       6.284   5.190  14.786  0.00  0.00    +0.000 A 
ATOM     20  O   UNL     1       5.851   6.049  15.748  0.00  0.00    +0.000 OA
ENDBRANCH  13  16
ENDBRANCH   8  12
TORSDOF 2
ENDMDL
MODEL 9
REMARK VINA RESULT:      -6.2      3.811      4.907
REMARK  Name = 
REMARK  4 active torsions:
REMARK  status: ('A' for Active; 'I' for Inactive)
REMARK    1  A    between atoms: C_1  and  C_2
REMARK    2  A    between atoms: C_2  and  C_3
REMARK    3  A    between atoms: C_8  and  N_9
REMARK    4  A    between atoms: C_10  and  C_12
REMARK                            x       y       z     vdW  Elec       q    Type
REMARK                         _______ _______ _______ _____ _____    ______ ____
ROOT
ATOM      1  C   UNL     1       3.895   1.888  18.848  0.00  0.00    +0.000 C 
ATOM      2  C   UNL     1       3.278   3.112  18.170  0.00  0.00    +0.000 C 
ATOM      3  C   UNL     1       1.755   2.990  18.134  0.00  0.00    +0.000 C 
ATOM      4  O   UNL     1       3.756   3.155  16.806  0.00  0.00    +0.000 OA
ATOM      5  C   UNL     1       4.518   4.280  16.833  0.00  0.00    +0.000 A 
ATOM      6  C   UNL     1       5.289   4.741  15.796  0.00  0.00    +0.000 A 
ATOM      7  C   UNL     1       6.037   5.904  16.008  0.00  0.00    +0.000 A 
ATOM      8  C   UNL     1       5.997   6.590  17.239  0.00  0.00    +0.000 A 
ATOM      9  C   UNL     1       5.181   6.097  18.271  0.00  0.00    +0.000 A 
ATOM     10  C   UNL     1       4.461   4.937  18.039  0.00  0.00    +0.000 A 
ATOM     11  O   UNL     1       3.645   4.298  18.926  0.00  0.00    +0.000 OA
ENDROOT
BRANCH   8  12
ATOM     12  N   UNL     1       6.746   7.763  17.490  0.00  0.00    +0.000 N 
ATOM     13  C   UNL     1       7.904   7.876  18.247  0.00  0.00    +0.000 C 
ATOM     14  O   UNL     1       8.451   6.956  18.847  0.00  0.00    +0.000 OA
ATOM     15  H   UNL     1       6.409   8.630  17.088  0.00  0.00    +0.000 HD
BRANCH  13  16
ATOM     16  C   UNL     1       8.453   9.220  18.290  0.00  0.00    +0.000 A 
ATOM     17  C   UNL     1       8.200  10.313  17.484  0.00  0.00    +0.000 A 
ATOM     18  C   UNL     1       8.990  11.377  17.975  0.00  0.00    +0.000 A 
ATOM     19  C   UNL     1       9.686  10.870  19.047  0.00  0.00    +0.000 A 
ATOM     20  O   UNL     1       9.373   9.561  19.249  0.00  0.00    +0.000 OA
ENDBRANCH  13  16
ENDBRANCH   8  12
TORSDOF 2
ENDMDL
