MODEL 1
REMARK VINA RESULT:      -8.2      0.000      0.000
REMARK  Name = 
REMARK  10 active torsions:
REMARK  status: ('A' for Active; 'I' for Inactive)
REMARK    1  A    between atoms: C_1  and  O_2
REMARK    2  A    between atoms: O_2  and  C_3
REMARK    3  A    between atoms: C_5  and  C_6
REMARK    4  A    between atoms: C_7  and  C_8
REMARK    5  A    between atoms: C_12  and  C_13
REMARK    6  A    between atoms: C_16  and  O_17
REMARK    7  A    between atoms: C_18  and  O_19
REMARK    8  A    between atoms: C_21  and  C_22
REMARK    9  A    between atoms: C_22  and  C_23
REMARK   10  A    between atoms: C_31  and  O_32
REMARK                            x       y       z     vdW  Elec       q    Type
REMARK                         _______ _______ _______ _____ _____    ______ ____
ROOT
ATOM      1  C   UNL     1       1.386   8.363  20.452  0.00  0.00    +0.000 A 
ATOM      2  C   UNL     1       0.921   8.876  21.602  0.00  0.00    +0.000 A 
ATOM      3  C   UNL     1       0.099  10.018  21.484  0.00  0.00    +0.000 A 
ATOM      4  O   UNL     1      -0.480  10.697  22.509  0.00  0.00    +0.000 OA
ATOM      5  C   UNL     1      -1.193  11.738  21.984  0.00  0.00    +0.000 A 
ATOM      6  C   UNL     1      -1.091  11.738  20.593  0.00  0.00    +0.000 A 
ATOM      7  C   UNL     1      -0.252  10.611  20.286  0.00  0.00    +0.000 A 
ATOM      8  C   UNL     1       0.211  10.013  19.050  0.00  0.00    +0.000 A 
ATOM      9  O   UNL     1      -0.117  10.430  17.946  0.00  0.00    +0.000 OA
ATOM     10  O   UNL     1       1.048   8.915  19.181  0.00  0.00    +0.000 OA
ENDROOT
BRANCH   5  11
ATOM     11  C   UNL     1      -1.818  12.605  22.984  0.00  0.00    +0.000 A 
ATOM     12  C   UNL     1      -1.210  13.811  23.380  0.00  0.00    +0.000 A 
ATOM     13  C   UNL     1      -1.828  14.668  24.303  0.00  0.00    +0.000 A 
ATOM     14  C   UNL     1      -3.063  14.314  24.831  0.00  0.00    +0.000 A 
ATOM     15  C   UNL     1      -3.668  13.123  24.452  0.00  0.00    +0.000 A 
ATOM     16  C   UNL     1      -3.062  12.274  23.538  0.00  0.00    +0.000 A 
BRANCH  14  17
ATOM     17  O   UNL     1      -3.732  15.110  25.716  0.00  0.00    +0.000 OA
ATOM     18  H   UNL     1      -3.838  15.988  25.312  0.00  0.00    +0.000 HD
ENDBRANCH  14  17
BRANCH  15  19
ATOM     19  O   UNL     1      -4.889  12.780  24.961  0.00  0.00    +0.000 OA
ATOM     20  H   UNL     1      -5.374  12.400  24.202  0.00  0.00    +0.000 HD
ENDBRANCH  15  19
ENDBRANCH   5  11
BRANCH   6  21
ATOM     21  C   UNL     1      -1.780  12.698  19.730  0.00  0.00    +0.000 C 
ATOM     22  C   UNL     1      -1.298  14.113  19.567  0.00  0.00    +0.000 C 
ATOM     23  O   UNL     1      -2.812  12.373  19.139  0.00  0.00    +0.000 OA
ENDBRANCH   6  21
BRANCH   1  25
ATOM     24  C   UNL     1       1.827   5.931  20.156  0.00  0.00    +0.000 C 
ATOM     25  C   UNL     1       2.241   7.185  20.409  0.00  0.00    +0.000 C 
BRANCH  24  28
ATOM     26  C   UNL     1       4.802   3.683  19.427  0.00  0.00    +0.000 A 
ATOM     27  C   UNL     1       3.940   4.791  19.472  0.00  0.00    +0.000 A 
ATOM     28  C   UNL     1       2.710   4.748  20.149  0.00  0.00    +0.000 A 
ATOM     29  C   UNL     1       2.329   3.546  20.754  0.00  0.00    +0.000 A 
ATOM     30  C   UNL     1       3.175   2.433  20.719  0.00  0.00    +0.000 A 
ATOM     31  C   UNL     1       4.404   2.500  20.065  0.00  0.00    +0.000 A 
BRANCH  26  33
ATOM     32  C   UNL     1       5.869   4.379  17.398  0.00  0.00    +0.000 C 
ATOM     33  O   UNL     1       5.963   3.914  18.738  0.00  0.00    +0.000 OA
ENDBRANCH  26  33
BRANCH  31  34
ATOM     34  O   UNL     1       5.188   1.380  20.058  0.00  0.00    +0.000 OA
ATOM     35  H   UNL     1       5.824   1.439  19.325  0.00  0.00    +0.000 HD
ENDBRANCH  31  34
ENDBRANCH  24  28
ENDBRANCH   1  25
TORSDOF 8
ENDMDL
MODEL 2
REMARK VINA RESULT:      -8.0      2.193      3.011
REMARK  Name = 
REMARK  10 active torsions:
REMARK  status: ('A' for Active; 'I' for Inactive)
REMARK    1  A    between atoms: C_1  and  O_2
REMARK    2  A    between atoms: O_2  and  C_3
REMARK    3  A    between atoms: C_5  and  C_6
REMARK    4  A    between atoms: C_7  and  C_8
REMARK    5  A    between atoms: C_12  and  C_13
REMARK    6  A    between atoms: C_16  and  O_17
REMARK    7  A    between atoms: C_18  and  O_19
REMARK    8  A    between atoms: C_21  and  C_22
REMARK    9  A    between atoms: C_22  and  C_23
REMARK   10  A    between atoms: C_31  and  O_32
REMARK                            x       y       z     vdW  Elec       q    Type
REMARK                         _______ _______ _______ _____ _____    ______ ____
ROOT
ATOM      1  C   UNL     1       1.700   9.853  18.438  0.00  0.00    +0.000 A 
ATOM      2  C   UNL     1       0.610   9.679  19.202  0.00  0.00    +0.000 A 
ATOM      3  C   UNL     1       0.013  10.853  19.710  0.00  0.00    +0.000 A 
ATOM      4  O   UNL     1      -1.092  10.914  20.497  0.00  0.00    +0.000 OA
ATOM      5  C   UNL     1      -1.348  12.227  20.776  0.00  0.00    +0.000 A 
ATOM      6  C   UNL     1      -0.405  13.043  20.153  0.00  0.00    +0.000 A 
ATOM      7  C   UNL     1       0.469  12.134  19.462  0.00  0.00    +0.000 A 
ATOM      8  C   UNL     1       1.613  12.311  18.590  0.00  0.00    +0.000 A 
ATOM      9  O   UNL     1       2.032  13.412  18.258  0.00  0.00    +0.000 OA
ATOM     10  O   UNL     1       2.212  11.148  18.128  0.00  0.00    +0.000 OA
ENDROOT
BRANCH   5  11
ATOM     11  C   UNL     1      -2.478  12.442  21.680  0.00  0.00    +0.000 A 
ATOM     12  C   UNL     1      -2.364  12.182  23.060  0.00  0.00    +0.000 A 
ATOM     13  C   UNL     1      -3.430  12.431  23.937  0.00  0.00    +0.000 A 
ATOM     14  C   UNL     1      -4.616  12.944  23.430  0.00  0.00    +0.000 A 
ATOM     15  C   UNL     1      -4.742  13.197  22.070  0.00  0.00    +0.000 A 
ATOM     16  C   UNL     1      -3.690  12.955  21.199  0.00  0.00    +0.000 A 
BRANCH  14  17
ATOM     17  O   UNL     1      -5.686  13.232  24.228  0.00  0.00    +0.000 OA
ATOM     18  H   UNL     1      -5.564  14.128  24.586  0.00  0.00    +0.000 HD
ENDBRANCH  14  17
BRANCH  15  19
ATOM     19  O   UNL     1      -5.905  13.714  21.572  0.00  0.00    +0.000 OA
ATOM     20  H   UNL     1      -5.643  14.565  21.170  0.00  0.00    +0.000 HD
ENDBRANCH  15  19
ENDBRANCH   5  11
BRANCH   6  21
ATOM     21  C   UNL     1      -0.429  14.505  20.217  0.00  0.00    +0.000 C 
ATOM     22  C   UNL     1      -0.198  15.252  21.502  0.00  0.00    +0.000 C 
ATOM     23  O   UNL     1      -0.686  15.167  19.209  0.00  0.00    +0.000 OA
ENDBRANCH   6  21
BRANCH   1  25
ATOM     24  C   UNL     1       2.561   7.518  18.383  0.00  0.00    +0.000 C 
ATOM     25  C   UNL     1       2.423   8.740  17.838  0.00  0.00    +0.000 C 
BRANCH  24  28
ATOM     26  C   UNL     1       3.564   4.015  17.310  0.00  0.00    +0.000 A 
ATOM     27  C   UNL     1       2.858   5.095  17.865  0.00  0.00    +0.000 A 
ATOM     28  C   UNL     1       3.326   6.416  17.768  0.00  0.00    +0.000 A 
ATOM     29  C   UNL     1       4.553   6.639  17.135  0.00  0.00    +0.000 A 
ATOM     30  C   UNL     1       5.269   5.575  16.576  0.00  0.00    +0.000 A 
ATOM     31  C   UNL     1       4.778   4.273  16.658  0.00  0.00    +0.000 A 
BRANCH  26  33
ATOM     32  C   UNL     1       3.388   1.975  18.553  0.00  0.00    +0.000 C 
ATOM     33  O   UNL     1       2.949   2.804  17.486  0.00  0.00    +0.000 OA
ENDBRANCH  26  33
BRANCH  31  34
ATOM     34  O   UNL     1       5.523   3.272  16.099  0.00  0.00    +0.000 OA
ATOM     35  H   UNL     1       5.102   2.416  16.289  0.00  0.00    +0.000 HD
ENDBRANCH  31  34
ENDBRANCH  24  28
ENDBRANCH   1  25
TORSDOF 8
ENDMDL
MODEL 3
REMARK VINA RESULT:      -8.0      2.223      3.174
REMARK  Name = 
REMARK  10 active torsions:
REMARK  status: ('A' for Active; 'I' for Inactive)
REMARK    1  A    between atoms: C_1  and  O_2
REMARK    2  A    between atoms: O_2  and  C_3
REMARK    3  A    between atoms: C_5  and  C_6
REMARK    4  A    between atoms: C_7  and  C_8
REMARK    5  A    between atoms: C_12  and  C_13
REMARK    6  A    between atoms: C_16  and  O_17
REMARK    7  A    between atoms: C_18  and  O_19
REMARK    8  A    between atoms: C_21  and  C_22
REMARK    9  A    between atoms: C_22  and  C_23
REMARK   10  A    between atoms: C_31  and  O_32
REMARK                            x       y       z     vdW  Elec       q    Type
REMARK                         _______ _______ _______ _____ _____    ______ ____
ROOT
ATOM      1  C   UNL     1       1.678   9.873  18.240  0.00  0.00    +0.000 A 
ATOM      2  C   UNL     1       0.491   9.752  18.857  0.00  0.00    +0.000 A 
ATOM      3  C   UNL     1      -0.082  10.948  19.340  0.00  0.00    +0.000 A 
ATOM      4  O   UNL     1      -1.271  11.061  19.989  0.00  0.00    +0.000 OA
ATOM      5  C   UNL     1      -1.469  12.379  20.292  0.00  0.00    +0.000 A 
ATOM      6  C   UNL     1      -0.402  13.146  19.827  0.00  0.00    +0.000 A 
ATOM      7  C   UNL     1       0.487  12.200  19.207  0.00  0.00    +0.000 A 
ATOM      8  C   UNL     1       1.741  12.324  18.490  0.00  0.00    +0.000 A 
ATOM      9  O   UNL     1       2.273  13.403  18.262  0.00  0.00    +0.000 OA
ATOM     10  O   UNL     1       2.312  11.138  18.054  0.00  0.00    +0.000 OA
ENDROOT
BRANCH   5  11
ATOM     11  C   UNL     1      -2.686  12.644  21.060  0.00  0.00    +0.000 A 
ATOM     12  C   UNL     1      -3.869  13.068  20.423  0.00  0.00    +0.000 A 
ATOM     13  C   UNL     1      -5.050  13.279  21.150  0.00  0.00    +0.000 A 
ATOM     14  C   UNL     1      -5.047  13.062  22.521  0.00  0.00    +0.000 A 
ATOM     15  C   UNL     1      -3.885  12.651  23.161  0.00  0.00    +0.000 A 
ATOM     16  C   UNL     1      -2.715  12.438  22.446  0.00  0.00    +0.000 A 
BRANCH  14  17
ATOM     17  O   UNL     1      -6.166  13.225  23.287  0.00  0.00    +0.000 OA
ATOM     18  H   UNL     1      -6.180  12.519  23.956  0.00  0.00    +0.000 HD
ENDBRANCH  14  17
BRANCH  15  19
ATOM     19  O   UNL     1      -3.884  12.425  24.508  0.00  0.00    +0.000 OA
ATOM     20  H   UNL     1      -4.823  12.275  24.733  0.00  0.00    +0.000 HD
ENDBRANCH  15  19
ENDBRANCH   5  11
BRANCH   6  21
ATOM     21  C   UNL     1      -0.334  14.602  19.952  0.00  0.00    +0.000 C 
ATOM     22  C   UNL     1      -0.174  15.282  21.284  0.00  0.00    +0.000 C 
ATOM     23  O   UNL     1      -0.450  15.318  18.955  0.00  0.00    +0.000 OA
ENDBRANCH   6  21
BRANCH   1  25
ATOM     24  C   UNL     1       2.730   7.621  18.361  0.00  0.00    +0.000 C 
ATOM     25  C   UNL     1       2.392   8.733  17.684  0.00  0.00    +0.000 C 
BRANCH  24  28
ATOM     26  C   UNL     1       3.632   4.089  17.291  0.00  0.00    +0.000 A 
ATOM     27  C   UNL     1       2.942   5.194  17.815  0.00  0.00    +0.000 A 
ATOM     28  C   UNL     1       3.482   6.491  17.781  0.00  0.00    +0.000 A 
ATOM     29  C   UNL     1       4.763   6.660  17.245  0.00  0.00    +0.000 A 
ATOM     30  C   UNL     1       5.464   5.571  16.718  0.00  0.00    +0.000 A 
ATOM     31  C   UNL     1       4.903   4.295  16.736  0.00  0.00    +0.000 A 
BRANCH  26  33
ATOM     32  C   UNL     1       3.300   2.014  18.441  0.00  0.00    +0.000 C 
ATOM     33  O   UNL     1       2.945   2.909  17.396  0.00  0.00    +0.000 OA
ENDBRANCH  26  33
BRANCH  31  34
ATOM     34  O   UNL     1       5.636   3.267  16.213  0.00  0.00    +0.000 OA
ATOM     35  H   UNL     1       5.664   2.535  16.853  0.00  0.00    +0.000 HD
ENDBRANCH  31  34
ENDBRANCH  24  28
ENDBRANCH   1  25
TORSDOF 8
ENDMDL
MODEL 4
REMARK VINA RESULT:      -8.0      0.799      1.350
REMARK  Name = 
REMARK  10 active torsions:
REMARK  status: ('A' for Active; 'I' for Inactive)
REMARK    1  A    between atoms: C_1  and  O_2
REMARK    2  A    between atoms: O_2  and  C_3
REMARK    3  A    between atoms: C_5  and  C_6
REMARK    4  A    between atoms: C_7  and  C_8
REMARK    5  A    between atoms: C_12  and  C_13
REMARK    6  A    between atoms: C_16  and  O_17
REMARK    7  A    between atoms: C_18  and  O_19
REMARK    8  A    between atoms: C_21  and  C_22
REMARK    9  A    between atoms: C_22  and  C_23
REMARK   10  A    between atoms: C_31  and  O_32
REMARK                            x       y       z     vdW  Elec       q    Type
REMARK                         _______ _______ _______ _____ _____    ______ ____
ROOT
ATOM      1  C   UNL     1       1.140   8.398  20.785  0.00  0.00    +0.000 A 
ATOM      2  C   UNL     1       0.642   8.962  21.897  0.00  0.00    +0.000 A 
ATOM      3  C   UNL     1      -0.067  10.169  21.716  0.00  0.00    +0.000 A 
ATOM      4  O   UNL     1      -0.656  10.907  22.694  0.00  0.00    +0.000 OA
ATOM      5  C   UNL     1      -1.237  11.999  22.115  0.00  0.00    +0.000 A 
ATOM      6  C   UNL     1      -1.039  11.976  20.735  0.00  0.00    +0.000 A 
ATOM      7  C   UNL     1      -0.281  10.777  20.494  0.00  0.00    +0.000 A 
ATOM      8  C   UNL     1       0.214  10.129  19.296  0.00  0.00    +0.000 A 
ATOM      9  O   UNL     1       0.001  10.560  18.170  0.00  0.00    +0.000 OA
ATOM     10  O   UNL     1       0.941   8.964  19.491  0.00  0.00    +0.000 OA
ENDROOT
BRANCH   5  11
ATOM     11  C   UNL     1      -1.853  12.928  23.064  0.00  0.00    +0.000 A 
ATOM     12  C   UNL     1      -3.157  12.708  23.552  0.00  0.00    +0.000 A 
ATOM     13  C   UNL     1      -3.734  13.570  24.496  0.00  0.00    +0.000 A 
ATOM     14  C   UNL     1      -3.001  14.657  24.955  0.00  0.00    +0.000 A 
ATOM     15  C   UNL     1      -1.718  14.886  24.475  0.00  0.00    +0.000 A 
ATOM     16  C   UNL     1      -1.142  14.035  23.544  0.00  0.00    +0.000 A 
BRANCH  14  17
ATOM     17  O   UNL     1      -3.490  15.523  25.891  0.00  0.00    +0.000 OA
ATOM     18  H   UNL     1      -4.303  15.140  26.261  0.00  0.00    +0.000 HD
ENDBRANCH  14  17
BRANCH  15  19
ATOM     19  O   UNL     1      -0.991  15.948  24.936  0.00  0.00    +0.000 OA
ATOM     20  H   UNL     1      -0.635  16.371  24.130  0.00  0.00    +0.000 HD
ENDBRANCH  15  19
ENDBRANCH   5  11
BRANCH   6  21
ATOM     21  C   UNL     1      -1.579  12.982  19.821  0.00  0.00    +0.000 C 
ATOM     22  C   UNL     1      -0.706  14.017  19.167  0.00  0.00    +0.000 C 
ATOM     23  O   UNL     1      -2.790  13.031  19.595  0.00  0.00    +0.000 OA
ENDBRANCH   6  21
BRANCH   1  25
ATOM     24  C   UNL     1       2.328   6.484  19.725  0.00  0.00    +0.000 C 
ATOM     25  C   UNL     1       1.891   7.150  20.809  0.00  0.00    +0.000 C 
BRANCH  24  28
ATOM     26  C   UNL     1       5.087   3.913  19.268  0.00  0.00    +0.000 A 
ATOM     27  C   UNL     1       4.363   5.116  19.256  0.00  0.00    +0.000 A 
ATOM     28  C   UNL     1       3.060   5.204  19.776  0.00  0.00    +0.000 A 
ATOM     29  C   UNL     1       2.468   4.040  20.277  0.00  0.00    +0.000 A 
ATOM     30  C   UNL     1       3.175   2.834  20.298  0.00  0.00    +0.000 A 
ATOM     31  C   UNL     1       4.477   2.770  19.801  0.00  0.00    +0.000 A 
BRANCH  26  33
ATOM     32  C   UNL     1       6.913   5.317  18.609  0.00  0.00    +0.000 C 
ATOM     33  O   UNL     1       6.345   4.021  18.736  0.00  0.00    +0.000 OA
ENDBRANCH  26  33
BRANCH  31  34
ATOM     34  O   UNL     1       5.118   1.563  19.841  0.00  0.00    +0.000 OA
ATOM     35  H   UNL     1       4.844   1.082  20.641  0.00  0.00    +0.000 HD
ENDBRANCH  31  34
ENDBRANCH  24  28
ENDBRANCH   1  25
TORSDOF 8
ENDMDL
MODEL 5
REMARK VINA RESULT:      -8.0      1.342      2.276
REMARK  Name = 
REMARK  10 active torsions:
REMARK  status: ('A' for Active; 'I' for Inactive)
REMARK    1  A    between atoms: C_1  and  O_2
REMARK    2  A    between atoms: O_2  and  C_3
REMARK    3  A    between atoms: C_5  and  C_6
REMARK    4  A    between atoms: C_7  and  C_8
REMARK    5  A    between atoms: C_12  and  C_13
REMARK    6  A    between atoms: C_16  and  O_17
REMARK    7  A    between atoms: C_18  and  O_19
REMARK    8  A    between atoms: C_21  and  C_22
REMARK    9  A    between atoms: C_22  and  C_23
REMARK   10  A    between atoms: C_31  and  O_32
REMARK                            x       y       z     vdW  Elec       q    Type
REMARK                         _______ _______ _______ _____ _____    ______ ____
ROOT
ATOM      1  C   UNL     1       1.043   9.353  18.699  0.00  0.00    +0.000 A 
ATOM      2  C   UNL     1       0.964   9.809  19.960  0.00  0.00    +0.000 A 
ATOM      3  C   UNL     1      -0.151  10.622  20.257  0.00  0.00    +0.000 A 
ATOM      4  O   UNL     1      -0.433  11.186  21.460  0.00  0.00    +0.000 OA
ATOM      5  C   UNL     1      -1.593  11.897  21.339  0.00  0.00    +0.000 A 
ATOM      6  C   UNL     1      -2.089  11.791  20.040  0.00  0.00    +0.000 A 
ATOM      7  C   UNL     1      -1.142  10.955  19.353  0.00  0.00    +0.000 A 
ATOM      8  C   UNL     1      -1.073  10.411  18.011  0.00  0.00    +0.000 A 
ATOM      9  O   UNL     1      -1.947  10.594  17.174  0.00  0.00    +0.000 OA
ATOM     10  O   UNL     1       0.046   9.645  17.721  0.00  0.00    +0.000 OA
ENDROOT
BRANCH   5  11
ATOM     11  C   UNL     1      -1.985  12.623  22.548  0.00  0.00    +0.000 A 
ATOM     12  C   UNL     1      -1.272  13.759  22.976  0.00  0.00    +0.000 A 
ATOM     13  C   UNL     1      -1.672  14.485  24.108  0.00  0.00    +0.000 A 
ATOM     14  C   UNL     1      -2.793  14.069  24.815  0.00  0.00    +0.000 A 
ATOM     15  C   UNL     1      -3.499  12.945  24.405  0.00  0.00    +0.000 A 
ATOM     16  C   UNL     1      -3.109  12.227  23.285  0.00  0.00    +0.000 A 
BRANCH  14  17
ATOM     17  O   UNL     1      -3.253  14.740  25.911  0.00  0.00    +0.000 OA
ATOM     18  H   UNL     1      -2.570  14.696  26.602  0.00  0.00    +0.000 HD
ENDBRANCH  14  17
BRANCH  15  19
ATOM     19  O   UNL     1      -4.610  12.543  25.092  0.00  0.00    +0.000 OA
ATOM     20  H   UNL     1      -5.304  13.180  24.831  0.00  0.00    +0.000 HD
ENDBRANCH  15  19
ENDBRANCH   5  11
BRANCH   6  21
ATOM     21  C   UNL     1      -3.344  12.401  19.598  0.00  0.00    +0.000 C 
ATOM     22  C   UNL     1      -3.796  13.747  20.095  0.00  0.00    +0.000 C 
ATOM     23  O   UNL     1      -4.091  11.795  18.828  0.00  0.00    +0.000 OA
ENDBRANCH   6  21
BRANCH   1  25
ATOM     24  C   UNL     1       2.459   7.307  18.769  0.00  0.00    +0.000 C 
ATOM     25  C   UNL     1       2.131   8.500  18.242  0.00  0.00    +0.000 C 
BRANCH  24  28
ATOM     26  C   UNL     1       5.026   4.511  18.624  0.00  0.00    +0.000 A 
ATOM     27  C   UNL     1       3.949   5.320  19.019  0.00  0.00    +0.000 A 
ATOM     28  C   UNL     1       3.587   6.475  18.306  0.00  0.00    +0.000 A 
ATOM     29  C   UNL     1       4.359   6.837  17.198  0.00  0.00    +0.000 A 
ATOM     30  C   UNL     1       5.434   6.043  16.789  0.00  0.00    +0.000 A 
ATOM     31  C   UNL     1       5.765   4.886  17.493  0.00  0.00    +0.000 A 
BRANCH  26  33
ATOM     32  C   UNL     1       4.078   2.725  19.908  0.00  0.00    +0.000 C 
ATOM     33  O   UNL     1       5.221   3.419  19.428  0.00  0.00    +0.000 OA
ENDBRANCH  26  33
BRANCH  31  34
ATOM     34  O   UNL     1       6.830   4.150  17.052  0.00  0.00    +0.000 OA
ATOM     35  H   UNL     1       6.697   3.927  16.114  0.00  0.00    +0.000 HD
ENDBRANCH  31  34
ENDBRANCH  24  28
ENDBRANCH   1  25
TORSDOF 8
ENDMDL
MODEL 6
REMARK VINA RESULT:      -7.9      2.385     11.199
REMARK  Name = 
REMARK  10 active torsions:
REMARK  status: ('A' for Active; 'I' for Inactive)
REMARK    1  A    between atoms: C_1  and  O_2
REMARK    2  A    between atoms: O_2  and  C_3
REMARK    3  A    between atoms: C_5  and  C_6
REMARK    4  A    between atoms: C_7  and  C_8
REMARK    5  A    between atoms: C_12  and  C_13
REMARK    6  A    between atoms: C_16  and  O_17
REMARK    7  A    between atoms: C_18  and  O_19
REMARK    8  A    between atoms: C_21  and  C_22
REMARK    9  A    between atoms: C_22  and  C_23
REMARK   10  A    between atoms: C_31  and  O_32
REMARK                            x       y       z     vdW  Elec       q    Type
REMARK                         _______ _______ _______ _____ _____    ______ ____
ROOT
ATOM      1  C   UNL     1       1.455   7.493  20.600  0.00  0.00    +0.000 A 
ATOM      2  C   UNL     1       2.172   7.712  19.485  0.00  0.00    +0.000 A 
ATOM      3  C   UNL     1       2.891   6.606  18.983  0.00  0.00    +0.000 A 
ATOM      4  O   UNL     1       3.674   6.597  17.873  0.00  0.00    +0.000 OA
ATOM      5  C   UNL     1       4.195   5.342  17.727  0.00  0.00    +0.000 A 
ATOM      6  C   UNL     1       3.739   4.509  18.748  0.00  0.00    +0.000 A 
ATOM      7  C   UNL     1       2.889   5.346  19.552  0.00  0.00    +0.000 A 
ATOM      8  C   UNL     1       2.067   5.110  20.722  0.00  0.00    +0.000 A 
ATOM      9  O   UNL     1       1.950   4.007  21.241  0.00  0.00    +0.000 OA
ATOM     10  O   UNL     1       1.396   6.213  21.227  0.00  0.00    +0.000 OA
ENDROOT
BRANCH   5  11
ATOM     11  C   UNL     1       5.123   5.201  16.603  0.00  0.00    +0.000 A 
ATOM     12  C   UNL     1       6.453   5.655  16.699  0.00  0.00    +0.000 A 
ATOM     13  C   UNL     1       7.358   5.480  15.642  0.00  0.00    +0.000 A 
ATOM     14  C   UNL     1       6.929   4.848  14.483  0.00  0.00    +0.000 A 
ATOM     15  C   UNL     1       5.617   4.403  14.375  0.00  0.00    +0.000 A 
ATOM     16  C   UNL     1       4.720   4.570  15.419  0.00  0.00    +0.000 A 
BRANCH  14  17
ATOM     17  O   UNL     1       7.761   4.623  13.424  0.00  0.00    +0.000 OA
ATOM     18  H   UNL     1       7.818   3.663  13.282  0.00  0.00    +0.000 HD
ENDBRANCH  14  17
BRANCH  15  19
ATOM     19  O   UNL     1       5.197   3.768  13.240  0.00  0.00    +0.000 OA
ATOM     20  H   UNL     1       4.553   3.104  13.554  0.00  0.00    +0.000 HD
ENDBRANCH  15  19
ENDBRANCH   5  11
BRANCH   6  21
ATOM     21  C   UNL     1       4.077   3.089  18.848  0.00  0.00    +0.000 C 
ATOM     22  C   UNL     1       3.394   2.045  18.008  0.00  0.00    +0.000 C 
ATOM     23  O   UNL     1       4.914   2.706  19.668  0.00  0.00    +0.000 OA
ENDBRANCH   6  21
BRANCH   1  25
ATOM     24  C   UNL     1       0.214   9.651  20.632  0.00  0.00    +0.000 C 
ATOM     25  C   UNL     1       0.658   8.533  21.234  0.00  0.00    +0.000 C 
BRANCH  24  28
ATOM     26  C   UNL     1      -1.654  12.906  21.218  0.00  0.00    +0.000 A 
ATOM     27  C   UNL     1      -0.926  11.871  20.609  0.00  0.00    +0.000 A 
ATOM     28  C   UNL     1      -0.567  10.706  21.307  0.00  0.00    +0.000 A 
ATOM     29  C   UNL     1      -0.915  10.609  22.658  0.00  0.00    +0.000 A 
ATOM     30  C   UNL     1      -1.640  11.630  23.280  0.00  0.00    +0.000 A 
ATOM     31  C   UNL     1      -2.011  12.769  22.567  0.00  0.00    +0.000 A 
BRANCH  26  33
ATOM     32  C   UNL     1      -0.837  14.652  19.796  0.00  0.00    +0.000 C 
ATOM     33  O   UNL     1      -1.928  13.955  20.381  0.00  0.00    +0.000 OA
ENDBRANCH  26  33
BRANCH  31  34
ATOM     34  O   UNL     1      -2.714  13.737  23.228  0.00  0.00    +0.000 OA
ATOM     35  H   UNL     1      -2.505  13.693  24.177  0.00  0.00    +0.000 HD
ENDBRANCH  31  34
ENDBRANCH  24  28
ENDBRANCH   1  25
TORSDOF 8
ENDMDL
MODEL 7
REMARK VINA RESULT:      -7.9      1.893      2.380
REMARK  Name = 
REMARK  10 active torsions:
REMARK  status: ('A' for Active; 'I' for Inactive)
REMARK    1  A    between atoms: C_1  and  O_2
REMARK    2  A    between atoms: O_2  and  C_3
REMARK    3  A    between atoms: C_5  and  C_6
REMARK    4  A    between atoms: C_7  and  C_8
REMARK    5  A    between atoms: C_12  and  C_13
REMARK    6  A    between atoms: C_16  and  O_17
REMARK    7  A    between atoms: C_18  and  O_19
REMARK    8  A    between atoms: C_21  and  C_22
REMARK    9  A    between atoms: C_22  and  C_23
REMARK   10  A    between atoms: C_31  and  O_32
REMARK                            x       y       z     vdW  Elec       q    Type
REMARK                         _______ _______ _______ _____ _____    ______ ____
ROOT
ATOM      1  C   UNL     1       1.066   9.368  18.673  0.00  0.00    +0.000 A 
ATOM      2  C   UNL     1       0.987   9.831  19.931  0.00  0.00    +0.000 A 
ATOM      3  C   UNL     1      -0.133  10.637  20.226  0.00  0.00    +0.000 A 
ATOM      4  O   UNL     1      -0.416  11.207  21.427  0.00  0.00    +0.000 OA
ATOM      5  C   UNL     1      -1.582  11.908  21.305  0.00  0.00    +0.000 A 
ATOM      6  C   UNL     1      -2.081  11.790  20.008  0.00  0.00    +0.000 A 
ATOM      7  C   UNL     1      -1.129  10.957  19.323  0.00  0.00    +0.000 A 
ATOM      8  C   UNL     1      -1.061  10.405  17.985  0.00  0.00    +0.000 A 
ATOM      9  O   UNL     1      -1.939  10.576  17.149  0.00  0.00    +0.000 OA
ATOM     10  O   UNL     1       0.063   9.646  17.696  0.00  0.00    +0.000 OA
ENDROOT
BRANCH   5  11
ATOM     11  C   UNL     1      -1.976  12.638  22.511  0.00  0.00    +0.000 A 
ATOM     12  C   UNL     1      -1.254  13.767  22.944  0.00  0.00    +0.000 A 
ATOM     13  C   UNL     1      -1.656  14.497  24.073  0.00  0.00    +0.000 A 
ATOM     14  C   UNL     1      -2.787  14.093  24.771  0.00  0.00    +0.000 A 
ATOM     15  C   UNL     1      -3.502  12.977  24.356  0.00  0.00    +0.000 A 
ATOM     16  C   UNL     1      -3.110  12.254  23.239  0.00  0.00    +0.000 A 
BRANCH  14  17
ATOM     17  O   UNL     1      -3.249  14.769  25.864  0.00  0.00    +0.000 OA
ATOM     18  H   UNL     1      -3.433  14.121  26.564  0.00  0.00    +0.000 HD
ENDBRANCH  14  17
BRANCH  15  19
ATOM     19  O   UNL     1      -4.622  12.587  25.034  0.00  0.00    +0.000 OA
ATOM     20  H   UNL     1      -4.765  13.290  25.697  0.00  0.00    +0.000 HD
ENDBRANCH  15  19
ENDBRANCH   5  11
BRANCH   6  21
ATOM     21  C   UNL     1      -3.342  12.386  19.567  0.00  0.00    +0.000 C 
ATOM     22  C   UNL     1      -4.327  11.632  18.716  0.00  0.00    +0.000 C 
ATOM     23  O   UNL     1      -3.611  13.555  19.854  0.00  0.00    +0.000 OA
ENDBRANCH   6  21
BRANCH   1  25
ATOM     24  C   UNL     1       2.185   7.178  18.289  0.00  0.00    +0.000 C 
ATOM     25  C   UNL     1       2.159   8.521  18.217  0.00  0.00    +0.000 C 
BRANCH  24  28
ATOM     26  C   UNL     1       5.603   6.191  16.956  0.00  0.00    +0.000 A 
ATOM     27  C   UNL     1       4.506   6.947  17.400  0.00  0.00    +0.000 A 
ATOM     28  C   UNL     1       3.320   6.343  17.849  0.00  0.00    +0.000 A 
ATOM     29  C   UNL     1       3.230   4.948  17.804  0.00  0.00    +0.000 A 
ATOM     30  C   UNL     1       4.312   4.179  17.366  0.00  0.00    +0.000 A 
ATOM     31  C   UNL     1       5.492   4.793  16.948  0.00  0.00    +0.000 A 
BRANCH  26  33
ATOM     32  C   UNL     1       7.581   7.390  17.577  0.00  0.00    +0.000 C 
ATOM     33  O   UNL     1       6.678   6.948  16.574  0.00  0.00    +0.000 OA
ENDBRANCH  26  33
BRANCH  31  34
ATOM     34  O   UNL     1       6.515   3.992  16.524  0.00  0.00    +0.000 OA
ATOM     35  H   UNL     1       7.065   3.745  17.288  0.00  0.00    +0.000 HD
ENDBRANCH  31  34
ENDBRANCH  24  28
ENDBRANCH   1  25
TORSDOF 8
ENDMDL
MODEL 8
REMARK VINA RESULT:      -7.9      2.726      4.308
REMARK  Name = 
REMARK  10 active torsions:
REMARK  status: ('A' for Active; 'I' for Inactive)
REMARK    1  A    between atoms: C_1  and  O_2
REMARK    2  A    between atoms: O_2  and  C_3
REMARK    3  A    between atoms: C_5  and  C_6
REMARK    4  A    between atoms: C_7  and  C_8
REMARK    5  A    between atoms: C_12  and  C_13
REMARK    6  A    between atoms: C_16  and  O_17
REMARK    7  A    between atoms: C_18  and  O_19
REMARK    8  A    between atoms: C_21  and  C_22
REMARK    9  A    between atoms: C_22  and  C_23
REMARK   10  A    between atoms: C_31  and  O_32
REMARK                            x       y       z     vdW  Elec       q    Type
REMARK                         _______ _______ _______ _____ _____    ______ ____
ROOT
ATOM      1  C   UNL     1       1.278   9.255  18.498  0.00  0.00    +0.000 A 
ATOM      2  C   UNL     1       0.082   9.441  17.916  0.00  0.00    +0.000 A 
ATOM      3  C   UNL     1      -0.788  10.345  18.562  0.00  0.00    +0.000 A 
ATOM      4  O   UNL     1      -2.038  10.686  18.152  0.00  0.00    +0.000 OA
ATOM      5  C   UNL     1      -2.552  11.584  19.044  0.00  0.00    +0.000 A 
ATOM      6  C   UNL     1      -1.623  11.847  20.051  0.00  0.00    +0.000 A 
ATOM      7  C   UNL     1      -0.482  11.038  19.718  0.00  0.00    +0.000 A 
ATOM      8  C   UNL     1       0.833  10.870  20.304  0.00  0.00    +0.000 A 
ATOM      9  O   UNL     1       1.211  11.502  21.282  0.00  0.00    +0.000 OA
ATOM     10  O   UNL     1       1.664   9.951  19.682  0.00  0.00    +0.000 OA
ENDROOT
BRANCH   5  11
ATOM     11  C   UNL     1      -3.930  11.989  18.766  0.00  0.00    +0.000 A 
ATOM     12  C   UNL     1      -4.485  11.840  17.480  0.00  0.00    +0.000 A 
ATOM     13  C   UNL     1      -5.820  12.183  17.220  0.00  0.00    +0.000 A 
ATOM     14  C   UNL     1      -6.603  12.679  18.254  0.00  0.00    +0.000 A 
ATOM     15  C   UNL     1      -6.064  12.836  19.524  0.00  0.00    +0.000 A 
ATOM     16  C   UNL     1      -4.746  12.495  19.787  0.00  0.00    +0.000 A 
BRANCH  14  17
ATOM     17  O   UNL     1      -7.916  13.011  18.079  0.00  0.00    +0.000 OA
ATOM     18  H   UNL     1      -8.454  12.219  18.247  0.00  0.00    +0.000 HD
ENDBRANCH  14  17
BRANCH  15  19
ATOM     19  O   UNL     1      -6.838  13.311  20.546  0.00  0.00    +0.000 OA
ATOM     20  H   UNL     1      -7.689  12.841  20.448  0.00  0.00    +0.000 HD
ENDBRANCH  15  19
ENDBRANCH   5  11
BRANCH   6  21
ATOM     21  C   UNL     1      -1.851  12.804  21.135  0.00  0.00    +0.000 C 
ATOM     22  C   UNL     1      -2.222  12.362  22.524  0.00  0.00    +0.000 C 
ATOM     23  O   UNL     1      -1.784  14.016  20.918  0.00  0.00    +0.000 OA
ENDBRANCH   6  21
BRANCH   1  25
ATOM     24  C   UNL     1       2.443   7.065  18.284  0.00  0.00    +0.000 C 
ATOM     25  C   UNL     1       2.285   8.358  17.948  0.00  0.00    +0.000 C 
BRANCH  24  28
ATOM     26  C   UNL     1       5.735   5.929  16.766  0.00  0.00    +0.000 A 
ATOM     27  C   UNL     1       4.716   6.729  17.310  0.00  0.00    +0.000 A 
ATOM     28  C   UNL     1       3.493   6.185  17.735  0.00  0.00    +0.000 A 
ATOM     29  C   UNL     1       3.283   4.813  17.564  0.00  0.00    +0.000 A 
ATOM     30  C   UNL     1       4.286   4.002  17.025  0.00  0.00    +0.000 A 
ATOM     31  C   UNL     1       5.505   4.553  16.632  0.00  0.00    +0.000 A 
BRANCH  26  33
ATOM     32  C   UNL     1       7.476   7.441  17.415  0.00  0.00    +0.000 C 
ATOM     33  O   UNL     1       6.862   6.628  16.424  0.00  0.00    +0.000 OA
ENDBRANCH  26  33
BRANCH  31  34
ATOM     34  O   UNL     1       6.447   3.713  16.106  0.00  0.00    +0.000 OA
ATOM     35  H   UNL     1       6.076   3.265  15.326  0.00  0.00    +0.000 HD
ENDBRANCH  31  34
ENDBRANCH  24  28
ENDBRANCH   1  25
TORSDOF 8
ENDMDL
MODEL 9
REMARK VINA RESULT:      -7.9      1.321      1.334
REMARK  Name = 
REMARK  10 active torsions:
REMARK  status: ('A' for Active; 'I' for Inactive)
REMARK    1  A    between atoms: C_1  and  O_2
REMARK    2  A    between atoms: O_2  and  C_3
REMARK    3  A    between atoms: C_5  and  C_6
REMARK    4  A    between atoms: C_7  and  C_8
REMARK    5  A    between atoms: C_12  and  C_13
REMARK    6  A    between atoms: C_16  and  O_17
REMARK    7  A    between atoms: C_18  and  O_19
REMARK    8  A    between atoms: C_21  and  C_22
REMARK    9  A    between atoms: C_22  and  C_23
REMARK   10  A    between atoms: C_31  and  O_32
REMARK                            x       y       z     vdW  Elec       q    Type
REMARK                         _______ _______ _______ _____ _____    ______ ____
ROOT
ATOM      1  C   UNL     1       1.494   8.133  20.180  0.00  0.00    +0.000 A 
ATOM      2  C   UNL     1       0.703   8.490  21.206  0.00  0.00    +0.000 A 
ATOM      3  C   UNL     1       0.275   9.835  21.220  0.00  0.00    +0.000 A 
ATOM      4  O   UNL     1      -0.527  10.410  22.154  0.00  0.00    +0.000 OA
ATOM      5  C   UNL     1      -0.708  11.721  21.815  0.00  0.00    +0.000 A 
ATOM      6  C   UNL     1      -0.025  12.011  20.634  0.00  0.00    +0.000 A 
ATOM      7  C   UNL     1       0.603  10.773  20.260  0.00  0.00    +0.000 A 
ATOM      8  C   UNL     1       1.411  10.360  19.129  0.00  0.00    +0.000 A 
ATOM      9  O   UNL     1       1.683  11.108  18.199  0.00  0.00    +0.000 OA
ATOM     10  O   UNL     1       1.857   9.047  19.147  0.00  0.00    +0.000 OA
ENDROOT
BRANCH   5  11
ATOM     11  C   UNL     1      -1.500  12.489  22.777  0.00  0.00    +0.000 A 
ATOM     12  C   UNL     1      -1.064  13.747  23.235  0.00  0.00    +0.000 A 
ATOM     13  C   UNL     1      -1.842  14.507  24.121  0.00  0.00    +0.000 A 
ATOM     14  C   UNL     1      -3.063  14.004  24.550  0.00  0.00    +0.000 A 
ATOM     15  C   UNL     1      -3.500  12.761  24.109  0.00  0.00    +0.000 A 
ATOM     16  C   UNL     1      -2.735  12.008  23.231  0.00  0.00    +0.000 A 
BRANCH  14  17
ATOM     17  O   UNL     1      -3.883  14.699  25.392  0.00  0.00    +0.000 OA
ATOM     18  H   UNL     1      -3.358  14.977  26.162  0.00  0.00    +0.000 HD
ENDBRANCH  14  17
BRANCH  15  19
ATOM     19  O   UNL     1      -4.707  12.271  24.519  0.00  0.00    +0.000 OA
ATOM     20  H   UNL     1      -5.089  12.985  25.067  0.00  0.00    +0.000 HD
ENDBRANCH  15  19
ENDBRANCH   5  11
BRANCH   6  21
ATOM     21  C   UNL     1      -0.057  13.319  19.979  0.00  0.00    +0.000 C 
ATOM     22  C   UNL     1       1.063  14.313  20.126  0.00  0.00    +0.000 C 
ATOM     23  O   UNL     1      -1.039  13.658  19.315  0.00  0.00    +0.000 OA
ENDBRANCH   6  21
BRANCH   1  25
ATOM     24  C   UNL     1       2.098   6.109  18.863  0.00  0.00    +0.000 C 
ATOM     25  C   UNL     1       2.013   6.782  20.025  0.00  0.00    +0.000 C 
BRANCH  24  28
ATOM     26  C   UNL     1       4.066   3.111  17.610  0.00  0.00    +0.000 A 
ATOM     27  C   UNL     1       3.575   4.417  17.775  0.00  0.00    +0.000 A 
ATOM     28  C   UNL     1       2.599   4.727  18.737  0.00  0.00    +0.000 A 
ATOM     29  C   UNL     1       2.082   3.686  19.514  0.00  0.00    +0.000 A 
ATOM     30  C   UNL     1       2.560   2.380  19.364  0.00  0.00    +0.000 A 
ATOM     31  C   UNL     1       3.547   2.094  18.423  0.00  0.00    +0.000 A 
BRANCH  26  33
ATOM     32  C   UNL     1       5.514   4.191  16.037  0.00  0.00    +0.000 C 
ATOM     33  O   UNL     1       5.024   3.001  16.638  0.00  0.00    +0.000 OA
ENDBRANCH  26  33
BRANCH  31  34
ATOM     34  O   UNL     1       3.972   0.799  18.315  0.00  0.00    +0.000 OA
ATOM     35  H   UNL     1       3.377   0.223  18.826  0.00  0.00    +0.000 HD
ENDBRANCH  31  34
ENDBRANCH  24  28
ENDBRANCH   1  25
TORSDOF 8
ENDMDL
