MODEL 1
REMARK VINA RESULT:      -7.9      0.000      0.000
REMARK  Name = 
REMARK  9 active torsions:
REMARK  status: ('A' for Active; 'I' for Inactive)
REMARK    1  A    between atoms: C_1  and  C_2
REMARK    2  A    between atoms: C_4  and  C_5
REMARK    3  A    between atoms: C_8  and  C_9
REMARK    4  A    between atoms: C_10  and  O_11
REMARK    5  A    between atoms: O_11  and  C_12
REMARK    6  A    between atoms: C_16  and  S_17
REMARK    7  A    between atoms: S_17  and  C_20
REMARK    8  A    between atoms: C_20  and  C_21
REMARK    9  A    between atoms: N_23  and  C_24
REMARK                            x       y       z     vdW  Elec       q    Type
REMARK                         _______ _______ _______ _____ _____    ______ ____
ROOT
ATOM      1  C   UNL     1       5.266   3.981  17.989  0.00  0.00    +0.000 A 
ATOM      2  C   UNL     1       4.518   3.923  16.828  0.00  0.00    +0.000 A 
ATOM      3  C   UNL     1       3.231   3.463  16.962  0.00  0.00    +0.000 A 
ATOM      4  N   UNL     1       2.713   3.087  18.142  0.00  0.00    +0.000 NA
ATOM      5  C   UNL     1       3.553   3.163  19.199  0.00  0.00    +0.000 A 
ATOM      6  N   UNL     1       4.844   3.551  19.199  0.00  0.00    +0.000 NA
ENDROOT
BRANCH   5   7
ATOM      7  S   UNL     1       2.876   2.624  20.762  0.00  0.00    +0.000 S 
ATOM      8  O   UNL     1       1.685   1.828  20.515  0.00  0.00    +0.000 OA
ATOM      9  O   UNL     1       3.986   2.030  21.498  0.00  0.00    +0.000 OA
BRANCH   7  10
ATOM     10  C   UNL     1       2.448   4.112  21.640  0.00  0.00    +0.000 C 
BRANCH  10  11
ATOM     11  C   UNL     1       1.773   5.153  20.780  0.00  0.00    +0.000 C 
ATOM     12  O   UNL     1       0.634   5.017  20.352  0.00  0.00    +0.000 OA
ATOM     13  N   UNL     1       2.543   6.299  20.547  0.00  0.00    +0.000 N 
ATOM     14  H   UNL     1       3.552   6.183  20.580  0.00  0.00    +0.000 HD
BRANCH  13  15
ATOM     15  C   UNL     1       2.068   7.424  19.805  0.00  0.00    +0.000 A 
ATOM     16  C   UNL     1       2.432   7.702  18.482  0.00  0.00    +0.000 A 
ATOM     17  C   UNL     1       2.173   8.950  17.888  0.00  0.00    +0.000 A 
ATOM     18  C   UNL     1       1.574   9.939  18.635  0.00  0.00    +0.000 A 
ATOM     19 CL   UNL     1       1.556  11.578  18.111  0.00  0.00    +0.000 Cl
ATOM     20  C   UNL     1       1.066   9.618  19.878  0.00  0.00    +0.000 A 
ATOM     21  C   UNL     1       1.267   8.351  20.457  0.00  0.00    +0.000 A 
ENDBRANCH  13  15
ENDBRANCH  10  11
ENDBRANCH   7  10
ENDBRANCH   5   7
BRANCH   1  22
ATOM     22  O   UNL     1       6.550   4.451  17.843  0.00  0.00    +0.000 OA
BRANCH  22  30
ATOM     23  C   UNL     1       5.268   6.669  15.983  0.00  0.00    +0.000 C 
ATOM     24  C   UNL     1       6.417   6.788  16.964  0.00  0.00    +0.000 A 
ATOM     25  C   UNL     1       7.150   8.013  16.959  0.00  0.00    +0.000 A 
ATOM     26  C   UNL     1       8.071   8.360  17.985  0.00  0.00    +0.000 A 
ATOM     27  C   UNL     1       8.328   7.414  18.957  0.00  0.00    +0.000 A 
ATOM     28  C   UNL     1       7.828   6.116  18.851  0.00  0.00    +0.000 A 
ATOM     29  C   UNL     1       8.484   5.084  19.709  0.00  0.00    +0.000 C 
ATOM     30  C   UNL     1       6.846   5.790  17.878  0.00  0.00    +0.000 A 
BRANCH  26  31
ATOM     31  C   UNL     1       8.643   9.675  18.246  0.00  0.00    +0.000 C 
ATOM     32  N   UNL     1       9.182  10.686  18.347  0.00  0.00    +0.000 NA
ENDBRANCH  26  31
ENDBRANCH  22  30
ENDBRANCH   1  22
TORSDOF 7
ENDMDL
MODEL 2
REMARK VINA RESULT:      -7.8      2.401      6.207
REMARK  Name = 
REMARK  9 active torsions:
REMARK  status: ('A' for Active; 'I' for Inactive)
REMARK    1  A    between atoms: C_1  and  C_2
REMARK    2  A    between atoms: C_4  and  C_5
REMARK    3  A    between atoms: C_8  and  C_9
REMARK    4  A    between atoms: C_10  and  O_11
REMARK    5  A    between atoms: O_11  and  C_12
REMARK    6  A    between atoms: C_16  and  S_17
REMARK    7  A    between atoms: S_17  and  C_20
REMARK    8  A    between atoms: C_20  and  C_21
REMARK    9  A    between atoms: N_23  and  C_24
REMARK                            x       y       z     vdW  Elec       q    Type
REMARK                         _______ _______ _______ _____ _____    ______ ____
ROOT
ATOM      1  C   UNL     1       2.383   5.979  20.065  0.00  0.00    +0.000 A 
ATOM      2  C   UNL     1       1.097   5.705  20.490  0.00  0.00    +0.000 A 
ATOM      3  C   UNL     1       0.717   4.386  20.448  0.00  0.00    +0.000 A 
ATOM      4  N   UNL     1       1.532   3.408  20.021  0.00  0.00    +0.000 NA
ATOM      5  C   UNL     1       2.754   3.808  19.605  0.00  0.00    +0.000 A 
ATOM      6  N   UNL     1       3.236   5.066  19.552  0.00  0.00    +0.000 NA
ENDROOT
BRANCH   5   7
ATOM      7  S   UNL     1       3.824   2.511  18.999  0.00  0.00    +0.000 S 
ATOM      8  O   UNL     1       5.051   2.504  19.779  0.00  0.00    +0.000 OA
ATOM      9  O   UNL     1       3.008   1.304  18.951  0.00  0.00    +0.000 OA
BRANCH   7  10
ATOM     10  C   UNL     1       4.178   2.931  17.305  0.00  0.00    +0.000 C 
BRANCH  10  11
ATOM     11  C   UNL     1       4.959   4.213  17.146  0.00  0.00    +0.000 C 
ATOM     12  O   UNL     1       4.569   5.140  16.448  0.00  0.00    +0.000 OA
ATOM     13  N   UNL     1       6.142   4.267  17.893  0.00  0.00    +0.000 N 
ATOM     14  H   UNL     1       6.584   3.377  18.109  0.00  0.00    +0.000 HD
BRANCH  13  15
ATOM     15  C   UNL     1       6.996   5.411  17.926  0.00  0.00    +0.000 A 
ATOM     16  C   UNL     1       7.774   5.780  19.030  0.00  0.00    +0.000 A 
ATOM     17  C   UNL     1       8.374   7.048  19.125  0.00  0.00    +0.000 A 
ATOM     18  C   UNL     1       8.168   7.966  18.121  0.00  0.00    +0.000 A 
ATOM     19 CL   UNL     1       8.553   9.630  18.329  0.00  0.00    +0.000 Cl
ATOM     20  C   UNL     1       7.545   7.554  16.960  0.00  0.00    +0.000 A 
ATOM     21  C   UNL     1       6.993   6.265  16.832  0.00  0.00    +0.000 A 
ENDBRANCH  13  15
ENDBRANCH  10  11
ENDBRANCH   7  10
ENDBRANCH   5   7
BRANCH   1  22
ATOM     22  O   UNL     1       2.755   7.303  20.120  0.00  0.00    +0.000 OA
BRANCH  22  30
ATOM     23  C   UNL     1       0.979   8.810  22.265  0.00  0.00    +0.000 C 
ATOM     24  C   UNL     1       0.948   8.912  20.753  0.00  0.00    +0.000 A 
ATOM     25  C   UNL     1      -0.122   9.660  20.174  0.00  0.00    +0.000 A 
ATOM     26  C   UNL     1      -0.131  10.052  18.809  0.00  0.00    +0.000 A 
ATOM     27  C   UNL     1       0.893   9.591  18.005  0.00  0.00    +0.000 A 
ATOM     28  C   UNL     1       1.810   8.652  18.474  0.00  0.00    +0.000 A 
ATOM     29  C   UNL     1       2.601   7.926  17.435  0.00  0.00    +0.000 C 
ATOM     30  C   UNL     1       1.875   8.320  19.854  0.00  0.00    +0.000 A 
BRANCH  26  31
ATOM     31  C   UNL     1      -0.996  11.046  18.185  0.00  0.00    +0.000 C 
ATOM     32  N   UNL     1      -1.781  11.778  17.770  0.00  0.00    +0.000 NA
ENDBRANCH  26  31
ENDBRANCH  22  30
ENDBRANCH   1  22
TORSDOF 7
ENDMDL
MODEL 3
REMARK VINA RESULT:      -7.8      2.872      6.823
REMARK  Name = 
REMARK  9 active torsions:
REMARK  status: ('A' for Active; 'I' for Inactive)
REMARK    1  A    between atoms: C_1  and  C_2
REMARK    2  A    between atoms: C_4  and  C_5
REMARK    3  A    between atoms: C_8  and  C_9
REMARK    4  A    between atoms: C_10  and  O_11
REMARK    5  A    between atoms: O_11  and  C_12
REMARK    6  A    between atoms: C_16  and  S_17
REMARK    7  A    between atoms: S_17  and  C_20
REMARK    8  A    between atoms: C_20  and  C_21
REMARK    9  A    between atoms: N_23  and  C_24
REMARK                            x       y       z     vdW  Elec       q    Type
REMARK                         _______ _______ _______ _____ _____    ______ ____
ROOT
ATOM      1  C   UNL     1       3.522   5.862  17.572  0.00  0.00    +0.000 A 
ATOM      2  C   UNL     1       3.029   4.576  17.451  0.00  0.00    +0.000 A 
ATOM      3  C   UNL     1       3.965   3.587  17.266  0.00  0.00    +0.000 A 
ATOM      4  N   UNL     1       5.283   3.837  17.201  0.00  0.00    +0.000 NA
ATOM      5  C   UNL     1       5.636   5.137  17.305  0.00  0.00    +0.000 A 
ATOM      6  N   UNL     1       4.822   6.204  17.444  0.00  0.00    +0.000 NA
ENDROOT
BRANCH   5   7
ATOM      7  S   UNL     1       7.386   5.473  17.179  0.00  0.00    +0.000 S 
ATOM      8  O   UNL     1       8.114   4.215  17.191  0.00  0.00    +0.000 OA
ATOM      9  O   UNL     1       7.543   6.371  16.041  0.00  0.00    +0.000 OA
BRANCH   7  10
ATOM     10  C   UNL     1       7.797   6.434  18.620  0.00  0.00    +0.000 C 
BRANCH  10  11
ATOM     11  C   UNL     1       7.993   7.903  18.336  0.00  0.00    +0.000 C 
ATOM     12  O   UNL     1       7.390   8.488  17.446  0.00  0.00    +0.000 OA
ATOM     13  N   UNL     1       8.888   8.546  19.199  0.00  0.00    +0.000 N 
ATOM     14  H   UNL     1       9.611   7.966  19.618  0.00  0.00    +0.000 HD
BRANCH  13  15
ATOM     15  C   UNL     1       9.170   9.945  19.135  0.00  0.00    +0.000 A 
ATOM     16  C   UNL     1       9.361  10.760  20.258  0.00  0.00    +0.000 A 
ATOM     17  C   UNL     1       9.355  12.163  20.165  0.00  0.00    +0.000 A 
ATOM     18  C   UNL     1       9.126  12.756  18.944  0.00  0.00    +0.000 A 
ATOM     19 CL   UNL     1       8.743  14.428  18.812  0.00  0.00    +0.000 Cl
ATOM     20  C   UNL     1       9.104  11.963  17.814  0.00  0.00    +0.000 A 
ATOM     21  C   UNL     1       9.169  10.560  17.891  0.00  0.00    +0.000 A 
ENDBRANCH  13  15
ENDBRANCH  10  11
ENDBRANCH   7  10
ENDBRANCH   5   7
BRANCH   1  22
ATOM     22  O   UNL     1       2.576   6.842  17.767  0.00  0.00    +0.000 OA
BRANCH  22  30
ATOM     23  C   UNL     1       2.603   5.088  20.403  0.00  0.00    +0.000 C 
ATOM     24  C   UNL     1       2.069   6.489  20.190  0.00  0.00    +0.000 A 
ATOM     25  C   UNL     1       1.325   7.071  21.262  0.00  0.00    +0.000 A 
ATOM     26  C   UNL     1       0.993   8.451  21.304  0.00  0.00    +0.000 A 
ATOM     27  C   UNL     1       1.320   9.220  20.205  0.00  0.00    +0.000 A 
ATOM     28  C   UNL     1       1.813   8.637  19.038  0.00  0.00    +0.000 A 
ATOM     29  C   UNL     1       1.745   9.474  17.802  0.00  0.00    +0.000 C 
ATOM     30  C   UNL     1       2.223   7.277  19.019  0.00  0.00    +0.000 A 
BRANCH  26  31
ATOM     31  C   UNL     1       0.511   9.205  22.455  0.00  0.00    +0.000 C 
ATOM     32  N   UNL     1       0.129   9.911  23.279  0.00  0.00    +0.000 NA
ENDBRANCH  26  31
ENDBRANCH  22  30
ENDBRANCH   1  22
TORSDOF 7
ENDMDL
MODEL 4
REMARK VINA RESULT:      -7.7      3.156      7.280
REMARK  Name = 
REMARK  9 active torsions:
REMARK  status: ('A' for Active; 'I' for Inactive)
REMARK    1  A    between atoms: C_1  and  C_2
REMARK    2  A    between atoms: C_4  and  C_5
REMARK    3  A    between atoms: C_8  and  C_9
REMARK    4  A    between atoms: C_10  and  O_11
REMARK    5  A    between atoms: O_11  and  C_12
REMARK    6  A    between atoms: C_16  and  S_17
REMARK    7  A    between atoms: S_17  and  C_20
REMARK    8  A    between atoms: C_20  and  C_21
REMARK    9  A    between atoms: N_23  and  C_24
REMARK                            x       y       z     vdW  Elec       q    Type
REMARK                         _______ _______ _______ _____ _____    ______ ____
ROOT
ATOM      1  C   UNL     1       3.308   5.594  17.749  0.00  0.00    +0.000 A 
ATOM      2  C   UNL     1       3.095   4.228  17.745  0.00  0.00    +0.000 A 
ATOM      3  C   UNL     1       4.207   3.446  17.549  0.00  0.00    +0.000 A 
ATOM      4  N   UNL     1       5.434   3.959  17.369  0.00  0.00    +0.000 NA
ATOM      5  C   UNL     1       5.507   5.308  17.365  0.00  0.00    +0.000 A 
ATOM      6  N   UNL     1       4.495   6.189  17.501  0.00  0.00    +0.000 NA
ENDROOT
BRANCH   5   7
ATOM      7  S   UNL     1       7.134   5.991  17.085  0.00  0.00    +0.000 S 
ATOM      8  O   UNL     1       8.049   5.463  18.083  0.00  0.00    +0.000 OA
ATOM      9  O   UNL     1       7.425   5.775  15.673  0.00  0.00    +0.000 OA
BRANCH   7  10
ATOM     10  C   UNL     1       6.959   7.751  17.285  0.00  0.00    +0.000 C 
BRANCH  10  11
ATOM     11  C   UNL     1       8.039   8.378  18.132  0.00  0.00    +0.000 C 
ATOM     12  O   UNL     1       8.671   7.746  18.969  0.00  0.00    +0.000 OA
ATOM     13  N   UNL     1       8.285   9.728  17.853  0.00  0.00    +0.000 N 
ATOM     14  H   UNL     1       7.509  10.261  17.470  0.00  0.00    +0.000 HD
BRANCH  13  15
ATOM     15  C   UNL     1       9.303  10.490  18.503  0.00  0.00    +0.000 A 
ATOM     16  C   UNL     1       9.305  10.794  19.870  0.00  0.00    +0.000 A 
ATOM     17  C   UNL     1      10.161  11.769  20.412  0.00  0.00    +0.000 A 
ATOM     18  C   UNL     1      10.999  12.468  19.574  0.00  0.00    +0.000 A 
ATOM     19 CL   UNL     1      11.796  13.904  20.090  0.00  0.00    +0.000 Cl
ATOM     20  C   UNL     1      11.121  12.059  18.262  0.00  0.00    +0.000 A 
ATOM     21  C   UNL     1      10.310  11.041  17.724  0.00  0.00    +0.000 A 
ENDBRANCH  13  15
ENDBRANCH  10  11
ENDBRANCH   7  10
ENDBRANCH   5   7
BRANCH   1  22
ATOM     22  O   UNL     1       2.189   6.367  17.954  0.00  0.00    +0.000 OA
BRANCH  22  30
ATOM     23  C   UNL     1       1.870   4.818  20.697  0.00  0.00    +0.000 C 
ATOM     24  C   UNL     1       1.606   6.276  20.385  0.00  0.00    +0.000 A 
ATOM     25  C   UNL     1       0.973   7.054  21.402  0.00  0.00    +0.000 A 
ATOM     26  C   UNL     1       0.901   8.472  21.349  0.00  0.00    +0.000 A 
ATOM     27  C   UNL     1       1.374   9.093  20.209  0.00  0.00    +0.000 A 
ATOM     28  C   UNL     1       1.760   8.353  19.092  0.00  0.00    +0.000 A 
ATOM     29  C   UNL     1       1.858   9.103  17.804  0.00  0.00    +0.000 C 
ATOM     30  C   UNL     1       1.912   6.942  19.168  0.00  0.00    +0.000 A 
BRANCH  26  31
ATOM     31  C   UNL     1       0.557   9.377  22.438  0.00  0.00    +0.000 C 
ATOM     32  N   UNL     1       0.348  10.190  23.226  0.00  0.00    +0.000 NA
ENDBRANCH  26  31
ENDBRANCH  22  30
ENDBRANCH   1  22
TORSDOF 7
ENDMDL
MODEL 5
REMARK VINA RESULT:      -7.6      0.670      1.085
REMARK  Name = 
REMARK  9 active torsions:
REMARK  status: ('A' for Active; 'I' for Inactive)
REMARK    1  A    between atoms: C_1  and  C_2
REMARK    2  A    between atoms: C_4  and  C_5
REMARK    3  A    between atoms: C_8  and  C_9
REMARK    4  A    between atoms: C_10  and  O_11
REMARK    5  A    between atoms: O_11  and  C_12
REMARK    6  A    between atoms: C_16  and  S_17
REMARK    7  A    between atoms: S_17  and  C_20
REMARK    8  A    between atoms: C_20  and  C_21
REMARK    9  A    between atoms: N_23  and  C_24
REMARK                            x       y       z     vdW  Elec       q    Type
REMARK                         _______ _______ _______ _____ _____    ______ ____
ROOT
ATOM      1  C   UNL     1       4.926   3.976  17.660  0.00  0.00    +0.000 A 
ATOM      2  C   UNL     1       4.088   3.811  16.573  0.00  0.00    +0.000 A 
ATOM      3  C   UNL     1       2.824   3.353  16.852  0.00  0.00    +0.000 A 
ATOM      4  N   UNL     1       2.409   3.075  18.098  0.00  0.00    +0.000 NA
ATOM      5  C   UNL     1       3.329   3.251  19.071  0.00  0.00    +0.000 A 
ATOM      6  N   UNL     1       4.610   3.650  18.933  0.00  0.00    +0.000 NA
ENDROOT
BRANCH   5   7
ATOM      7  S   UNL     1       2.790   2.843  20.725  0.00  0.00    +0.000 S 
ATOM      8  O   UNL     1       1.502   2.174  20.654  0.00  0.00    +0.000 OA
ATOM      9  O   UNL     1       3.911   2.158  21.358  0.00  0.00    +0.000 OA
BRANCH   7  10
ATOM     10  C   UNL     1       2.625   4.399  21.575  0.00  0.00    +0.000 C 
BRANCH  10  11
ATOM     11  C   UNL     1       1.858   5.440  20.796  0.00  0.00    +0.000 C 
ATOM     12  O   UNL     1       0.736   5.235  20.351  0.00  0.00    +0.000 OA
ATOM     13  N   UNL     1       2.518   6.667  20.661  0.00  0.00    +0.000 N 
ATOM     14  H   UNL     1       3.534   6.641  20.692  0.00  0.00    +0.000 HD
BRANCH  13  15
ATOM     15  C   UNL     1       1.943   7.799  20.009  0.00  0.00    +0.000 A 
ATOM     16  C   UNL     1       1.075   8.706  20.629  0.00  0.00    +0.000 A 
ATOM     17  C   UNL     1       0.317   9.631  19.889  0.00  0.00    +0.000 A 
ATOM     18  C   UNL     1       0.403   9.627  18.516  0.00  0.00    +0.000 A 
ATOM     19 CL   UNL     1      -0.743  10.459  17.538  0.00  0.00    +0.000 Cl
ATOM     20  C   UNL     1       1.375   8.854  17.913  0.00  0.00    +0.000 A 
ATOM     21  C   UNL     1       2.182   7.968  18.652  0.00  0.00    +0.000 A 
ENDBRANCH  13  15
ENDBRANCH  10  11
ENDBRANCH   7  10
ENDBRANCH   5   7
BRANCH   1  22
ATOM     22  O   UNL     1       6.187   4.444  17.370  0.00  0.00    +0.000 OA
BRANCH  22  30
ATOM     23  C   UNL     1       4.830   6.970  16.026  0.00  0.00    +0.000 C 
ATOM     24  C   UNL     1       6.075   6.895  16.885  0.00  0.00    +0.000 A 
ATOM     25  C   UNL     1       6.862   8.082  16.993  0.00  0.00    +0.000 A 
ATOM     26  C   UNL     1       7.896   8.232  17.956  0.00  0.00    +0.000 A 
ATOM     27  C   UNL     1       8.205   7.135  18.737  0.00  0.00    +0.000 A 
ATOM     28  C   UNL     1       7.636   5.887  18.484  0.00  0.00    +0.000 A 
ATOM     29  C   UNL     1       8.325   4.711  19.095  0.00  0.00    +0.000 C 
ATOM     30  C   UNL     1       6.547   5.751  17.582  0.00  0.00    +0.000 A 
BRANCH  26  31
ATOM     31  C   UNL     1       8.553   9.470  18.356  0.00  0.00    +0.000 C 
ATOM     32  N   UNL     1       9.042  10.494  18.546  0.00  0.00    +0.000 NA
ENDBRANCH  26  31
ENDBRANCH  22  30
ENDBRANCH   1  22
TORSDOF 7
ENDMDL
MODEL 6
REMARK VINA RESULT:      -7.4      3.764      5.825
REMARK  Name = 
REMARK  9 active torsions:
REMARK  status: ('A' for Active; 'I' for Inactive)
REMARK    1  A    between atoms: C_1  and  C_2
REMARK    2  A    between atoms: C_4  and  C_5
REMARK    3  A    between atoms: C_8  and  C_9
REMARK    4  A    between atoms: C_10  and  O_11
REMARK    5  A    between atoms: O_11  and  C_12
REMARK    6  A    between atoms: C_16  and  S_17
REMARK    7  A    between atoms: S_17  and  C_20
REMARK    8  A    between atoms: C_20  and  C_21
REMARK    9  A    between atoms: N_23  and  C_24
REMARK                            x       y       z     vdW  Elec       q    Type
REMARK                         _______ _______ _______ _____ _____    ______ ____
ROOT
ATOM      1  C   UNL     1       2.987   7.095  18.965  0.00  0.00    +0.000 A 
ATOM      2  C   UNL     1       2.897   7.757  17.755  0.00  0.00    +0.000 A 
ATOM      3  C   UNL     1       2.040   8.830  17.718  0.00  0.00    +0.000 A 
ATOM      4  N   UNL     1       1.324   9.225  18.782  0.00  0.00    +0.000 NA
ATOM      5  C   UNL     1       1.478   8.479  19.899  0.00  0.00    +0.000 A 
ATOM      6  N   UNL     1       2.246   7.383  20.057  0.00  0.00    +0.000 NA
ENDROOT
BRANCH   5   7
ATOM      7  S   UNL     1       0.494   8.981  21.303  0.00  0.00    +0.000 S 
ATOM      8  O   UNL     1      -0.338   7.866  21.724  0.00  0.00    +0.000 OA
ATOM      9  O   UNL     1       1.425   9.571  22.258  0.00  0.00    +0.000 OA
BRANCH   7  10
ATOM     10  C   UNL     1      -0.526  10.321  20.723  0.00  0.00    +0.000 C 
BRANCH  10  11
ATOM     11  C   UNL     1       0.177  11.657  20.708  0.00  0.00    +0.000 C 
ATOM     12  O   UNL     1       0.420  12.285  21.730  0.00  0.00    +0.000 OA
ATOM     13  N   UNL     1       0.560  12.096  19.435  0.00  0.00    +0.000 N 
ATOM     14  H   UNL     1       0.007  11.756  18.652  0.00  0.00    +0.000 HD
BRANCH  13  15
ATOM     15  C   UNL     1       1.284  13.306  19.209  0.00  0.00    +0.000 A 
ATOM     16  C   UNL     1       0.745  14.587  19.376  0.00  0.00    +0.000 A 
ATOM     17  C   UNL     1       1.389  15.734  18.879  0.00  0.00    +0.000 A 
ATOM     18  C   UNL     1       2.567  15.594  18.181  0.00  0.00    +0.000 A 
ATOM     19 CL   UNL     1       3.216  16.881  17.241  0.00  0.00    +0.000 Cl
ATOM     20  C   UNL     1       3.184  14.359  18.158  0.00  0.00    +0.000 A 
ATOM     21  C   UNL     1       2.575  13.215  18.707  0.00  0.00    +0.000 A 
ENDBRANCH  13  15
ENDBRANCH  10  11
ENDBRANCH   7  10
ENDBRANCH   5   7
BRANCH   1  22
ATOM     22  O   UNL     1       3.855   6.028  18.992  0.00  0.00    +0.000 OA
BRANCH  22  30
ATOM     23  C   UNL     1       6.484   7.390  17.870  0.00  0.00    +0.000 C 
ATOM     24  C   UNL     1       5.635   6.296  17.256  0.00  0.00    +0.000 A 
ATOM     25  C   UNL     1       5.939   5.913  15.914  0.00  0.00    +0.000 A 
ATOM     26  C   UNL     1       5.406   4.742  15.311  0.00  0.00    +0.000 A 
ATOM     27  C   UNL     1       4.477   4.020  16.033  0.00  0.00    +0.000 A 
ATOM     28  C   UNL     1       3.964   4.503  17.236  0.00  0.00    +0.000 A 
ATOM     29  C   UNL     1       2.699   3.870  17.717  0.00  0.00    +0.000 C 
ATOM     30  C   UNL     1       4.551   5.624  17.881  0.00  0.00    +0.000 A 
BRANCH  26  31
ATOM     31  C   UNL     1       5.862   4.098  14.086  0.00  0.00    +0.000 C 
ATOM     32  N   UNL     1       6.096   3.533  13.111  0.00  0.00    +0.000 NA
ENDBRANCH  26  31
ENDBRANCH  22  30
ENDBRANCH   1  22
TORSDOF 7
ENDMDL
MODEL 7
REMARK VINA RESULT:      -7.4      4.906      6.767
REMARK  Name = 
REMARK  9 active torsions:
REMARK  status: ('A' for Active; 'I' for Inactive)
REMARK    1  A    between atoms: C_1  and  C_2
REMARK    2  A    between atoms: C_4  and  C_5
REMARK    3  A    between atoms: C_8  and  C_9
REMARK    4  A    between atoms: C_10  and  O_11
REMARK    5  A    between atoms: O_11  and  C_12
REMARK    6  A    between atoms: C_16  and  S_17
REMARK    7  A    between atoms: S_17  and  C_20
REMARK    8  A    between atoms: C_20  and  C_21
REMARK    9  A    between atoms: N_23  and  C_24
REMARK                            x       y       z     vdW  Elec       q    Type
REMARK                         _______ _______ _______ _____ _____    ______ ____
ROOT
ATOM      1  C   UNL     1       2.785   7.341  18.959  0.00  0.00    +0.000 A 
ATOM      2  C   UNL     1       2.533   7.971  17.755  0.00  0.00    +0.000 A 
ATOM      3  C   UNL     1       1.619   8.996  17.791  0.00  0.00    +0.000 A 
ATOM      4  N   UNL     1       0.997   9.376  18.918  0.00  0.00    +0.000 NA
ATOM      5  C   UNL     1       1.307   8.663  20.024  0.00  0.00    +0.000 A 
ATOM      6  N   UNL     1       2.148   7.613  20.119  0.00  0.00    +0.000 NA
ENDROOT
BRANCH   5   7
ATOM      7  S   UNL     1       0.449   9.143  21.516  0.00  0.00    +0.000 S 
ATOM      8  O   UNL     1      -0.598   8.174  21.794  0.00  0.00    +0.000 OA
ATOM      9  O   UNL     1       1.482   9.378  22.517  0.00  0.00    +0.000 OA
BRANCH   7  10
ATOM     10  C   UNL     1      -0.266  10.736  21.169  0.00  0.00    +0.000 C 
BRANCH  10  11
ATOM     11  C   UNL     1      -0.948  11.369  22.358  0.00  0.00    +0.000 C 
ATOM     12  O   UNL     1      -1.014  10.818  23.450  0.00  0.00    +0.000 OA
ATOM     13  N   UNL     1      -1.461  12.649  22.119  0.00  0.00    +0.000 N 
ATOM     14  H   UNL     1      -1.720  12.862  21.159  0.00  0.00    +0.000 HD
BRANCH  13  15
ATOM     15  C   UNL     1      -2.093  13.440  23.126  0.00  0.00    +0.000 A 
ATOM     16  C   UNL     1      -3.462  13.395  23.416  0.00  0.00    +0.000 A 
ATOM     17  C   UNL     1      -4.085  14.378  24.206  0.00  0.00    +0.000 A 
ATOM     18  C   UNL     1      -3.339  15.431  24.683  0.00  0.00    +0.000 A 
ATOM     19 CL   UNL     1      -4.082  16.840  25.334  0.00  0.00    +0.000 Cl
ATOM     20  C   UNL     1      -1.967  15.391  24.541  0.00  0.00    +0.000 A 
ATOM     21  C   UNL     1      -1.326  14.379  23.802  0.00  0.00    +0.000 A 
ENDBRANCH  13  15
ENDBRANCH  10  11
ENDBRANCH   7  10
ENDBRANCH   5   7
BRANCH   1  22
ATOM     22  O   UNL     1       3.709   6.323  18.912  0.00  0.00    +0.000 OA
BRANCH  22  30
ATOM     23  C   UNL     1       2.099   3.928  17.609  0.00  0.00    +0.000 C 
ATOM     24  C   UNL     1       3.437   4.513  17.208  0.00  0.00    +0.000 A 
ATOM     25  C   UNL     1       4.179   3.813  16.208  0.00  0.00    +0.000 A 
ATOM     26  C   UNL     1       5.309   4.376  15.557  0.00  0.00    +0.000 A 
ATOM     27  C   UNL     1       5.753   5.606  15.999  0.00  0.00    +0.000 A 
ATOM     28  C   UNL     1       5.214   6.201  17.139  0.00  0.00    +0.000 A 
ATOM     29  C   UNL     1       6.018   7.297  17.756  0.00  0.00    +0.000 C 
ATOM     30  C   UNL     1       4.035   5.686  17.742  0.00  0.00    +0.000 A 
BRANCH  26  31
ATOM     31  C   UNL     1       5.954   3.895  14.342  0.00  0.00    +0.000 C 
ATOM     32  N   UNL     1       6.353   3.564  13.314  0.00  0.00    +0.000 NA
ENDBRANCH  26  31
ENDBRANCH  22  30
ENDBRANCH   1  22
TORSDOF 7
ENDMDL
MODEL 8
REMARK VINA RESULT:      -7.4      4.828      6.730
REMARK  Name = 
REMARK  9 active torsions:
REMARK  status: ('A' for Active; 'I' for Inactive)
REMARK    1  A    between atoms: C_1  and  C_2
REMARK    2  A    between atoms: C_4  and  C_5
REMARK    3  A    between atoms: C_8  and  C_9
REMARK    4  A    between atoms: C_10  and  O_11
REMARK    5  A    between atoms: O_11  and  C_12
REMARK    6  A    between atoms: C_16  and  S_17
REMARK    7  A    between atoms: S_17  and  C_20
REMARK    8  A    between atoms: C_20  and  C_21
REMARK    9  A    between atoms: N_23  and  C_24
REMARK                            x       y       z     vdW  Elec       q    Type
REMARK                         _______ _______ _______ _____ _____    ______ ____
ROOT
ATOM      1  C   UNL     1       2.769   7.266  18.997  0.00  0.00    +0.000 A 
ATOM      2  C   UNL     1       2.553   7.793  17.738  0.00  0.00    +0.000 A 
ATOM      3  C   UNL     1       1.753   8.908  17.681  0.00  0.00    +0.000 A 
ATOM      4  N   UNL     1       1.204   9.466  18.772  0.00  0.00    +0.000 NA
ATOM      5  C   UNL     1       1.467   8.841  19.941  0.00  0.00    +0.000 A 
ATOM      6  N   UNL     1       2.195   7.722  20.132  0.00  0.00    +0.000 NA
ENDROOT
BRANCH   5   7
ATOM      7  S   UNL     1       0.704   9.561  21.388  0.00  0.00    +0.000 S 
ATOM      8  O   UNL     1      -0.585   8.929  21.609  0.00  0.00    +0.000 OA
ATOM      9  O   UNL     1       1.710   9.508  22.442  0.00  0.00    +0.000 OA
BRANCH   7  10
ATOM     10  C   UNL     1       0.484  11.286  21.009  0.00  0.00    +0.000 C 
BRANCH  10  11
ATOM     11  C   UNL     1      -0.460  11.999  21.946  0.00  0.00    +0.000 C 
ATOM     12  O   UNL     1      -0.069  12.757  22.824  0.00  0.00    +0.000 OA
ATOM     13  N   UNL     1      -1.816  11.753  21.701  0.00  0.00    +0.000 N 
ATOM     14  H   UNL     1      -2.044  10.865  21.261  0.00  0.00    +0.000 HD
BRANCH  13  15
ATOM     15  C   UNL     1      -2.871  12.372  22.438  0.00  0.00    +0.000 A 
ATOM     16  C   UNL     1      -3.166  12.087  23.777  0.00  0.00    +0.000 A 
ATOM     17  C   UNL     1      -4.370  12.501  24.375  0.00  0.00    +0.000 A 
ATOM     18  C   UNL     1      -5.298  13.179  23.619  0.00  0.00    +0.000 A 
ATOM     19 CL   UNL     1      -6.918  13.393  24.161  0.00  0.00    +0.000 Cl
ATOM     20  C   UNL     1      -4.944  13.605  22.355  0.00  0.00    +0.000 A 
ATOM     21  C   UNL     1      -3.715  13.247  21.769  0.00  0.00    +0.000 A 
ENDBRANCH  13  15
ENDBRANCH  10  11
ENDBRANCH   7  10
ENDBRANCH   5   7
BRANCH   1  22
ATOM     22  O   UNL     1       3.579   6.155  19.043  0.00  0.00    +0.000 OA
BRANCH  22  30
ATOM     23  C   UNL     1       6.161   7.587  17.898  0.00  0.00    +0.000 C 
ATOM     24  C   UNL     1       5.370   6.432  17.320  0.00  0.00    +0.000 A 
ATOM     25  C   UNL     1       5.711   6.008  15.999  0.00  0.00    +0.000 A 
ATOM     26  C   UNL     1       5.239   4.791  15.438  0.00  0.00    +0.000 A 
ATOM     27  C   UNL     1       4.332   4.057  16.178  0.00  0.00    +0.000 A 
ATOM     28  C   UNL     1       3.781   4.565  17.354  0.00  0.00    +0.000 A 
ATOM     29  C   UNL     1       2.539   3.897  17.844  0.00  0.00    +0.000 C 
ATOM     30  C   UNL     1       4.308   5.738  17.959  0.00  0.00    +0.000 A 
BRANCH  26  31
ATOM     31  C   UNL     1       5.741   4.118  14.247  0.00  0.00    +0.000 C 
ATOM     32  N   UNL     1       6.258   3.579  13.372  0.00  0.00    +0.000 NA
ENDBRANCH  26  31
ENDBRANCH  22  30
ENDBRANCH   1  22
TORSDOF 7
ENDMDL
MODEL 9
REMARK VINA RESULT:      -7.3      3.772      5.366
REMARK  Name = 
REMARK  9 active torsions:
REMARK  status: ('A' for Active; 'I' for Inactive)
REMARK    1  A    between atoms: C_1  and  C_2
REMARK    2  A    between atoms: C_4  and  C_5
REMARK    3  A    between atoms: C_8  and  C_9
REMARK    4  A    between atoms: C_10  and  O_11
REMARK    5  A    between atoms: O_11  and  C_12
REMARK    6  A    between atoms: C_16  and  S_17
REMARK    7  A    between atoms: S_17  and  C_20
REMARK    8  A    between atoms: C_20  and  C_21
REMARK    9  A    between atoms: N_23  and  C_24
REMARK                            x       y       z     vdW  Elec       q    Type
REMARK                         _______ _______ _______ _____ _____    ______ ____
ROOT
ATOM      1  C   UNL     1       3.583   5.093  19.497  0.00  0.00    +0.000 A 
ATOM      2  C   UNL     1       2.815   4.748  20.592  0.00  0.00    +0.000 A 
ATOM      3  C   UNL     1       1.808   5.622  20.922  0.00  0.00    +0.000 A 
ATOM      4  N   UNL     1       1.571   6.750  20.234  0.00  0.00    +0.000 NA
ATOM      5  C   UNL     1       2.409   6.991  19.201  0.00  0.00    +0.000 A 
ATOM      6  N   UNL     1       3.457   6.244  18.800  0.00  0.00    +0.000 NA
ENDROOT
BRANCH   5   7
ATOM      7  S   UNL     1       2.118   8.512  18.311  0.00  0.00    +0.000 S 
ATOM      8  O   UNL     1       3.369   8.968  17.728  0.00  0.00    +0.000 OA
ATOM      9  O   UNL     1       0.980   8.257  17.437  0.00  0.00    +0.000 OA
BRANCH   7  10
ATOM     10  C   UNL     1       1.548   9.681  19.527  0.00  0.00    +0.000 C 
BRANCH  10  11
ATOM     11  C   UNL     1       0.059   9.929  19.481  0.00  0.00    +0.000 C 
ATOM     12  O   UNL     1      -0.686   9.643  20.409  0.00  0.00    +0.000 OA
ATOM     13  N   UNL     1      -0.388  10.548  18.308  0.00  0.00    +0.000 N 
ATOM     14  H   UNL     1       0.170  10.395  17.472  0.00  0.00    +0.000 HD
BRANCH  13  15
ATOM     15  C   UNL     1      -1.750  10.920  18.089  0.00  0.00    +0.000 A 
ATOM     16  C   UNL     1      -2.446  11.851  18.870  0.00  0.00    +0.000 A 
ATOM     17  C   UNL     1      -3.844  11.978  18.802  0.00  0.00    +0.000 A 
ATOM     18  C   UNL     1      -4.556  11.146  17.968  0.00  0.00    +0.000 A 
ATOM     19 CL   UNL     1      -6.265  10.989  18.097  0.00  0.00    +0.000 Cl
ATOM     20  C   UNL     1      -3.866  10.347  17.079  0.00  0.00    +0.000 A 
ATOM     21  C   UNL     1      -2.461  10.257  17.098  0.00  0.00    +0.000 A 
ENDBRANCH  13  15
ENDBRANCH  10  11
ENDBRANCH   7  10
ENDBRANCH   5   7
BRANCH   1  22
ATOM     22  O   UNL     1       4.583   4.206  19.171  0.00  0.00    +0.000 OA
BRANCH  22  30
ATOM     23  C   UNL     1       7.388   5.672  19.246  0.00  0.00    +0.000 C 
ATOM     24  C   UNL     1       6.593   5.186  18.052  0.00  0.00    +0.000 A 
ATOM     25  C   UNL     1       7.066   5.564  16.759  0.00  0.00    +0.000 A 
ATOM     26  C   UNL     1       6.579   4.974  15.561  0.00  0.00    +0.000 A 
ATOM     27  C   UNL     1       5.534   4.078  15.670  0.00  0.00    +0.000 A 
ATOM     28  C   UNL     1       4.878   3.880  16.885  0.00  0.00    +0.000 A 
ATOM     29  C   UNL     1       3.537   3.226  16.812  0.00  0.00    +0.000 C 
ATOM     30  C   UNL     1       5.410   4.401  18.095  0.00  0.00    +0.000 A 
BRANCH  26  31
ATOM     31  C   UNL     1       7.176   5.057  14.234  0.00  0.00    +0.000 C 
ATOM     32  N   UNL     1       7.667   5.257  13.213  0.00  0.00    +0.000 NA
ENDBRANCH  26  31
ENDBRANCH  22  30
ENDBRANCH   1  22
TORSDOF 7
ENDMDL
