MODEL 1
REMARK VINA RESULT:      -7.6      0.000      0.000
REMARK  Name = 
REMARK  10 active torsions:
REMARK  status: ('A' for Active; 'I' for Inactive)
REMARK    1  A    between atoms: C_1  and  C_2
REMARK    2  A    between atoms: C_4  and  C_5
REMARK    3  A    between atoms: C_5  and  N_6
REMARK    4  A    between atoms: N_9  and  C_10
REMARK    5  A    between atoms: C_15  and  C_16
REMARK    6  A    between atoms: C_16  and  C_18
REMARK    7  A    between atoms: C_18  and  N_19
REMARK    8  A    between atoms: C_22  and  O_23
REMARK    9  A    between atoms: O_23  and  C_24
REMARK   10  A    between atoms: C_24  and  C_25
REMARK                            x       y       z     vdW  Elec       q    Type
REMARK                         _______ _______ _______ _____ _____    ______ ____
ROOT
ATOM      1  C   UNL     1       3.079   3.655  17.775  0.00  0.00    +0.000 C 
ATOM      2  O   UNL     1       2.235   2.935  17.239  0.00  0.00    +0.000 OA
ENDROOT
BRANCH   1   9
ATOM      3  C   UNL     1       2.183   3.526  20.811  0.00  0.00    +0.000 C 
ATOM      4  C   UNL     1       2.204   4.766  19.962  0.00  0.00    +0.000 A 
ATOM      5  C   UNL     1       1.820   5.964  20.604  0.00  0.00    +0.000 A 
ATOM      6  C   UNL     1       1.798   7.192  19.929  0.00  0.00    +0.000 A 
ATOM      7  C   UNL     1       2.178   7.223  18.587  0.00  0.00    +0.000 A 
ATOM      8  C   UNL     1       2.587   6.055  17.941  0.00  0.00    +0.000 A 
ATOM      9  C   UNL     1       2.600   4.815  18.608  0.00  0.00    +0.000 A 
BRANCH   6  10
ATOM     10  C   UNL     1       1.407   8.463  20.656  0.00  0.00    +0.000 C 
BRANCH  10  11
ATOM     11  N   UNL     1       0.714   9.450  19.813  0.00  0.00    +0.000 NA
ATOM     12  C   UNL     1       1.542  10.669  19.682  0.00  0.00    +0.000 C 
ATOM     13  C   UNL     1       0.847  11.784  18.863  0.00  0.00    +0.000 C 
ATOM     14  N   UNL     1      -0.501  12.157  19.332  0.00  0.00    +0.000 NA
ATOM     15  C   UNL     1      -0.455  12.948  20.559  0.00  0.00    +0.000 C 
ATOM     16  C   UNL     1      -1.300  10.929  19.508  0.00  0.00    +0.000 C 
ATOM     17  C   UNL     1      -0.616   9.819  20.340  0.00  0.00    +0.000 C 
ENDBRANCH  10  11
ENDBRANCH   6  10
ENDBRANCH   1   9
BRANCH   1  18
ATOM     18  C   UNL     1       4.572   3.388  17.691  0.00  0.00    +0.000 C 
BRANCH  18  19
ATOM     19  N   UNL     1       5.363   4.599  17.560  0.00  0.00    +0.000 N 
ATOM     20  N   UNL     1       5.884   5.089  18.736  0.00  0.00    +0.000 NA
ATOM     21  C   UNL     1       6.649   6.120  18.641  0.00  0.00    +0.000 A 
ATOM     22  C   UNL     1       7.058   6.789  17.389  0.00  0.00    +0.000 A 
ATOM     23  C   UNL     1       6.491   6.323  16.273  0.00  0.00    +0.000 A 
ATOM     24  C   UNL     1       5.573   5.162  16.313  0.00  0.00    +0.000 A 
ATOM     25  O   UNL     1       5.106   4.733  15.260  0.00  0.00    +0.000 OA
BRANCH  22  26
ATOM     26  O   UNL     1       7.970   7.826  17.343  0.00  0.00    +0.000 OA
BRANCH  26  27
ATOM     27  C   UNL     1       8.562   8.157  18.606  0.00  0.00    +0.000 C 
BRANCH  27  28
ATOM     28  C   UNL     1       8.776   9.649  18.680  0.00  0.00    +0.000 A 
ATOM     29  C   UNL     1       8.377  10.474  17.629  0.00  0.00    +0.000 A 
ATOM     30  C   UNL     1       8.647  11.841  17.705  0.00  0.00    +0.000 A 
ATOM     31  C   UNL     1       9.300  12.342  18.824  0.00  0.00    +0.000 A 
ATOM     32 CL   UNL     1       9.683  14.010  18.939  0.00  0.00    +0.000 Cl
ATOM     33  C   UNL     1       9.641  11.461  19.837  0.00  0.00    +0.000 A 
ATOM     34  N   UNL     1       9.391  10.130  19.791  0.00  0.00    +0.000 NA
ENDBRANCH  27  28
ENDBRANCH  26  27
ENDBRANCH  22  26
ENDBRANCH  18  19
ENDBRANCH   1  18
TORSDOF 8
ENDMDL
MODEL 2
REMARK VINA RESULT:      -7.6      3.986      7.447
REMARK  Name = 
REMARK  10 active torsions:
REMARK  status: ('A' for Active; 'I' for Inactive)
REMARK    1  A    between atoms: C_1  and  C_2
REMARK    2  A    between atoms: C_4  and  C_5
REMARK    3  A    between atoms: C_5  and  N_6
REMARK    4  A    between atoms: N_9  and  C_10
REMARK    5  A    between atoms: C_15  and  C_16
REMARK    6  A    between atoms: C_16  and  C_18
REMARK    7  A    between atoms: C_18  and  N_19
REMARK    8  A    between atoms: C_22  and  O_23
REMARK    9  A    between atoms: O_23  and  C_24
REMARK   10  A    between atoms: C_24  and  C_25
REMARK                            x       y       z     vdW  Elec       q    Type
REMARK                         _______ _______ _______ _____ _____    ______ ____
ROOT
ATOM      1  C   UNL     1      -0.398  11.354  20.005  0.00  0.00    +0.000 C 
ATOM      2  O   UNL     1      -1.405  11.504  19.312  0.00  0.00    +0.000 OA
ENDROOT
BRANCH   1   9
ATOM      3  C   UNL     1       0.169   9.016  22.065  0.00  0.00    +0.000 C 
ATOM      4  C   UNL     1       0.719   9.097  20.669  0.00  0.00    +0.000 A 
ATOM      5  C   UNL     1       1.525   8.014  20.254  0.00  0.00    +0.000 A 
ATOM      6  C   UNL     1       2.098   7.962  18.976  0.00  0.00    +0.000 A 
ATOM      7  C   UNL     1       1.849   9.012  18.091  0.00  0.00    +0.000 A 
ATOM      8  C   UNL     1       1.034  10.079  18.470  0.00  0.00    +0.000 A 
ATOM      9  C   UNL     1       0.465  10.145  19.757  0.00  0.00    +0.000 A 
BRANCH   6  10
ATOM     10  C   UNL     1       2.934   6.772  18.555  0.00  0.00    +0.000 C 
BRANCH  10  11
ATOM     11  N   UNL     1       2.427   5.478  19.040  0.00  0.00    +0.000 NA
ATOM     12  C   UNL     1       3.510   4.739  19.726  0.00  0.00    +0.000 C 
ATOM     13  C   UNL     1       3.071   3.334  20.206  0.00  0.00    +0.000 C 
ATOM     14  N   UNL     1       2.477   2.475  19.163  0.00  0.00    +0.000 NA
ATOM     15  C   UNL     1       3.486   1.956  18.242  0.00  0.00    +0.000 C 
ATOM     16  C   UNL     1       1.436   3.240  18.452  0.00  0.00    +0.000 C 
ATOM     17  C   UNL     1       1.876   4.637  17.956  0.00  0.00    +0.000 C 
ENDBRANCH  10  11
ENDBRANCH   6  10
ENDBRANCH   1   9
BRANCH   1  18
ATOM     18  C   UNL     1       0.047  12.364  21.049  0.00  0.00    +0.000 C 
BRANCH  18  19
ATOM     19  N   UNL     1       1.036  13.304  20.551  0.00  0.00    +0.000 N 
ATOM     20  N   UNL     1       2.318  13.104  21.010  0.00  0.00    +0.000 NA
ATOM     21  C   UNL     1       3.229  13.878  20.529  0.00  0.00    +0.000 A 
ATOM     22  C   UNL     1       3.033  14.917  19.498  0.00  0.00    +0.000 A 
ATOM     23  C   UNL     1       1.770  15.122  19.117  0.00  0.00    +0.000 A 
ATOM     24  C   UNL     1       0.668  14.293  19.655  0.00  0.00    +0.000 A 
ATOM     25  O   UNL     1      -0.476  14.481  19.246  0.00  0.00    +0.000 OA
BRANCH  22  26
ATOM     26  O   UNL     1       4.070  15.641  18.942  0.00  0.00    +0.000 OA
BRANCH  26  27
ATOM     27  C   UNL     1       4.744  14.987  17.860  0.00  0.00    +0.000 C 
BRANCH  27  28
ATOM     28  C   UNL     1       6.232  15.016  18.109  0.00  0.00    +0.000 A 
ATOM     29  C   UNL     1       7.044  13.970  17.672  0.00  0.00    +0.000 A 
ATOM     30  C   UNL     1       8.405  14.001  17.973  0.00  0.00    +0.000 A 
ATOM     31  C   UNL     1       8.915  15.074  18.694  0.00  0.00    +0.000 A 
ATOM     32 CL   UNL     1      10.576  15.132  19.117  0.00  0.00    +0.000 Cl
ATOM     33  C   UNL     1       8.048  16.086  19.070  0.00  0.00    +0.000 A 
ATOM     34  N   UNL     1       6.722  16.083  18.791  0.00  0.00    +0.000 NA
ENDBRANCH  27  28
ENDBRANCH  26  27
ENDBRANCH  22  26
ENDBRANCH  18  19
ENDBRANCH   1  18
TORSDOF 8
ENDMDL
MODEL 3
REMARK VINA RESULT:      -7.5      1.180      1.511
REMARK  Name = 
REMARK  10 active torsions:
REMARK  status: ('A' for Active; 'I' for Inactive)
REMARK    1  A    between atoms: C_1  and  C_2
REMARK    2  A    between atoms: C_4  and  C_5
REMARK    3  A    between atoms: C_5  and  N_6
REMARK    4  A    between atoms: N_9  and  C_10
REMARK    5  A    between atoms: C_15  and  C_16
REMARK    6  A    between atoms: C_16  and  C_18
REMARK    7  A    between atoms: C_18  and  N_19
REMARK    8  A    between atoms: C_22  and  O_23
REMARK    9  A    between atoms: O_23  and  C_24
REMARK   10  A    between atoms: C_24  and  C_25
REMARK                            x       y       z     vdW  Elec       q    Type
REMARK                         _______ _______ _______ _____ _____    ______ ____
ROOT
ATOM      1  C   UNL     1       3.586   3.588  18.324  0.00  0.00    +0.000 C 
ATOM      2  O   UNL     1       2.727   2.718  18.177  0.00  0.00    +0.000 OA
ENDROOT
BRANCH   1   9
ATOM      3  C   UNL     1       2.288   4.723  20.981  0.00  0.00    +0.000 C 
ATOM      4  C   UNL     1       2.557   5.520  19.736  0.00  0.00    +0.000 A 
ATOM      5  C   UNL     1       2.226   6.892  19.792  0.00  0.00    +0.000 A 
ATOM      6  C   UNL     1       2.428   7.749  18.702  0.00  0.00    +0.000 A 
ATOM      7  C   UNL     1       2.985   7.224  17.535  0.00  0.00    +0.000 A 
ATOM      8  C   UNL     1       3.344   5.877  17.467  0.00  0.00    +0.000 A 
ATOM      9  C   UNL     1       3.132   5.006  18.553  0.00  0.00    +0.000 A 
BRANCH   6  10
ATOM     10  C   UNL     1       2.088   9.221  18.807  0.00  0.00    +0.000 C 
BRANCH  10  11
ATOM     11  N   UNL     1       0.790   9.495  19.445  0.00  0.00    +0.000 NA
ATOM     12  C   UNL     1       0.026  10.466  18.632  0.00  0.00    +0.000 C 
ATOM     13  C   UNL     1      -1.327  10.858  19.276  0.00  0.00    +0.000 C 
ATOM     14  N   UNL     1      -1.240  11.346  20.666  0.00  0.00    +0.000 NA
ATOM     15  C   UNL     1      -0.698  12.701  20.736  0.00  0.00    +0.000 C 
ATOM     16  C   UNL     1      -0.430  10.397  21.453  0.00  0.00    +0.000 C 
ATOM     17  C   UNL     1       0.929  10.016  20.821  0.00  0.00    +0.000 C 
ENDBRANCH  10  11
ENDBRANCH   6  10
ENDBRANCH   1   9
BRANCH   1  18
ATOM     18  C   UNL     1       5.075   3.288  18.352  0.00  0.00    +0.000 C 
BRANCH  18  19
ATOM     19  N   UNL     1       5.900   4.483  18.324  0.00  0.00    +0.000 N 
ATOM     20  N   UNL     1       6.201   5.018  19.556  0.00  0.00    +0.000 NA
ATOM     21  C   UNL     1       6.991   6.035  19.564  0.00  0.00    +0.000 A 
ATOM     22  C   UNL     1       7.640   6.644  18.385  0.00  0.00    +0.000 A 
ATOM     23  C   UNL     1       7.282   6.137  17.203  0.00  0.00    +0.000 A 
ATOM     24  C   UNL     1       6.351   4.989  17.117  0.00  0.00    +0.000 A 
ATOM     25  O   UNL     1       6.081   4.521  16.013  0.00  0.00    +0.000 OA
BRANCH  22  26
ATOM     26  O   UNL     1       8.564   7.667  18.470  0.00  0.00    +0.000 OA
BRANCH  26  27
ATOM     27  C   UNL     1       8.091   8.939  18.009  0.00  0.00    +0.000 C 
BRANCH  27  28
ATOM     28  C   UNL     1       8.989  10.028  18.544  0.00  0.00    +0.000 A 
ATOM     29  C   UNL     1       9.097  10.245  19.917  0.00  0.00    +0.000 A 
ATOM     30  C   UNL     1       9.888  11.299  20.373  0.00  0.00    +0.000 A 
ATOM     31  C   UNL     1      10.549  12.100  19.449  0.00  0.00    +0.000 A 
ATOM     32 CL   UNL     1      11.501  13.429  19.967  0.00  0.00    +0.000 Cl
ATOM     33  C   UNL     1      10.410  11.804  18.103  0.00  0.00    +0.000 A 
ATOM     34  N   UNL     1       9.650  10.786  17.632  0.00  0.00    +0.000 NA
ENDBRANCH  27  28
ENDBRANCH  26  27
ENDBRANCH  22  26
ENDBRANCH  18  19
ENDBRANCH   1  18
TORSDOF 8
ENDMDL
MODEL 4
REMARK VINA RESULT:      -7.5      5.485     10.949
REMARK  Name = 
REMARK  10 active torsions:
REMARK  status: ('A' for Active; 'I' for Inactive)
REMARK    1  A    between atoms: C_1  and  C_2
REMARK    2  A    between atoms: C_4  and  C_5
REMARK    3  A    between atoms: C_5  and  N_6
REMARK    4  A    between atoms: N_9  and  C_10
REMARK    5  A    between atoms: C_15  and  C_16
REMARK    6  A    between atoms: C_16  and  C_18
REMARK    7  A    between atoms: C_18  and  N_19
REMARK    8  A    between atoms: C_22  and  O_23
REMARK    9  A    between atoms: O_23  and  C_24
REMARK   10  A    between atoms: C_24  and  C_25
REMARK                            x       y       z     vdW  Elec       q    Type
REMARK                         _______ _______ _______ _____ _____    ______ ____
ROOT
ATOM      1  C   UNL     1       0.499  10.948  19.709  0.00  0.00    +0.000 C 
ATOM      2  O   UNL     1      -0.465  11.273  19.015  0.00  0.00    +0.000 OA
ENDROOT
BRANCH   1   9
ATOM      3  C   UNL     1       0.979   8.541  21.712  0.00  0.00    +0.000 C 
ATOM      4  C   UNL     1       1.419   8.578  20.275  0.00  0.00    +0.000 A 
ATOM      5  C   UNL     1       2.067   7.419  19.793  0.00  0.00    +0.000 A 
ATOM      6  C   UNL     1       2.525   7.319  18.473  0.00  0.00    +0.000 A 
ATOM      7  C   UNL     1       2.319   8.398  17.612  0.00  0.00    +0.000 A 
ATOM      8  C   UNL     1       1.657   9.543  18.060  0.00  0.00    +0.000 A 
ATOM      9  C   UNL     1       1.206   9.656  19.389  0.00  0.00    +0.000 A 
BRANCH   6  10
ATOM     10  C   UNL     1       3.192   6.051  17.983  0.00  0.00    +0.000 C 
BRANCH  10  11
ATOM     11  N   UNL     1       4.659   6.061  18.091  0.00  0.00    +0.000 NA
ATOM     12  C   UNL     1       5.246   6.713  16.900  0.00  0.00    +0.000 C 
ATOM     13  C   UNL     1       6.795   6.701  16.908  0.00  0.00    +0.000 C 
ATOM     14  N   UNL     1       7.409   5.371  17.090  0.00  0.00    +0.000 NA
ATOM     15  C   UNL     1       7.308   4.553  15.884  0.00  0.00    +0.000 C 
ATOM     16  C   UNL     1       6.778   4.711  18.248  0.00  0.00    +0.000 C 
ATOM     17  C   UNL     1       5.231   4.706  18.235  0.00  0.00    +0.000 C 
ENDBRANCH  10  11
ENDBRANCH   6  10
ENDBRANCH   1   9
BRANCH   1  18
ATOM     18  C   UNL     1       1.049  11.819  20.826  0.00  0.00    +0.000 C 
BRANCH  18  19
ATOM     19  N   UNL     1       0.011  12.465  21.610  0.00  0.00    +0.000 N 
ATOM     20  N   UNL     1      -0.716  11.627  22.425  0.00  0.00    +0.000 NA
ATOM     21  C   UNL     1      -1.594  12.183  23.185  0.00  0.00    +0.000 A 
ATOM     22  C   UNL     1      -1.854  13.632  23.301  0.00  0.00    +0.000 A 
ATOM     23  C   UNL     1      -1.172  14.411  22.457  0.00  0.00    +0.000 A 
ATOM     24  C   UNL     1      -0.171  13.835  21.530  0.00  0.00    +0.000 A 
ATOM     25  O   UNL     1       0.470  14.588  20.800  0.00  0.00    +0.000 OA
BRANCH  22  26
ATOM     26  O   UNL     1      -2.735  14.176  24.216  0.00  0.00    +0.000 OA
BRANCH  26  27
ATOM     27  C   UNL     1      -3.741  15.023  23.646  0.00  0.00    +0.000 C 
BRANCH  27  28
ATOM     28  C   UNL     1      -4.844  14.169  23.071  0.00  0.00    +0.000 A 
ATOM     29  C   UNL     1      -5.785  13.570  23.907  0.00  0.00    +0.000 A 
ATOM     30  C   UNL     1      -6.754  12.738  23.345  0.00  0.00    +0.000 A 
ATOM     31  C   UNL     1      -6.757  12.533  21.971  0.00  0.00    +0.000 A 
ATOM     32 CL   UNL     1      -7.908  11.488  21.246  0.00  0.00    +0.000 Cl
ATOM     33  C   UNL     1      -5.804  13.184  21.206  0.00  0.00    +0.000 A 
ATOM     34  N   UNL     1      -4.853  13.998  21.723  0.00  0.00    +0.000 NA
ENDBRANCH  27  28
ENDBRANCH  26  27
ENDBRANCH  22  26
ENDBRANCH  18  19
ENDBRANCH   1  18
TORSDOF 8
ENDMDL
MODEL 5
REMARK VINA RESULT:      -7.5      3.314      8.262
REMARK  Name = 
REMARK  10 active torsions:
REMARK  status: ('A' for Active; 'I' for Inactive)
REMARK    1  A    between atoms: C_1  and  C_2
REMARK    2  A    between atoms: C_4  and  C_5
REMARK    3  A    between atoms: C_5  and  N_6
REMARK    4  A    between atoms: N_9  and  C_10
REMARK    5  A    between atoms: C_15  and  C_16
REMARK    6  A    between atoms: C_16  and  C_18
REMARK    7  A    between atoms: C_18  and  N_19
REMARK    8  A    between atoms: C_22  and  O_23
REMARK    9  A    between atoms: O_23  and  C_24
REMARK   10  A    between atoms: C_24  and  C_25
REMARK                            x       y       z     vdW  Elec       q    Type
REMARK                         _______ _______ _______ _____ _____    ______ ____
ROOT
ATOM      1  C   UNL     1       5.786   6.219  16.568  0.00  0.00    +0.000 C 
ATOM      2  O   UNL     1       5.880   6.186  15.341  0.00  0.00    +0.000 OA
ENDROOT
BRANCH   1   9
ATOM      3  C   UNL     1       7.820   5.208  18.775  0.00  0.00    +0.000 C 
ATOM      4  C   UNL     1       7.671   6.631  18.317  0.00  0.00    +0.000 A 
ATOM      5  C   UNL     1       8.544   7.570  18.911  0.00  0.00    +0.000 A 
ATOM      6  C   UNL     1       8.513   8.929  18.573  0.00  0.00    +0.000 A 
ATOM      7  C   UNL     1       7.596   9.356  17.611  0.00  0.00    +0.000 A 
ATOM      8  C   UNL     1       6.742   8.441  16.992  0.00  0.00    +0.000 A 
ATOM      9  C   UNL     1       6.759   7.076  17.336  0.00  0.00    +0.000 A 
BRANCH   6  10
ATOM     10  C   UNL     1       9.482   9.904  19.209  0.00  0.00    +0.000 C 
BRANCH  10  11
ATOM     11  N   UNL     1       9.414  11.267  18.659  0.00  0.00    +0.000 NA
ATOM     12  C   UNL     1      10.641  11.559  17.886  0.00  0.00    +0.000 C 
ATOM     13  C   UNL     1      10.674  13.004  17.331  0.00  0.00    +0.000 C 
ATOM     14  N   UNL     1      10.465  14.065  18.336  0.00  0.00    +0.000 NA
ATOM     15  C   UNL     1      11.640  14.255  19.182  0.00  0.00    +0.000 C 
ATOM     16  C   UNL     1       9.269  13.735  19.134  0.00  0.00    +0.000 C 
ATOM     17  C   UNL     1       9.241  12.297  19.704  0.00  0.00    +0.000 C 
ENDBRANCH  10  11
ENDBRANCH   6  10
ENDBRANCH   1   9
BRANCH   1  18
ATOM     18  C   UNL     1       4.695   5.492  17.336  0.00  0.00    +0.000 C 
BRANCH  18  19
ATOM     19  N   UNL     1       3.799   6.388  18.045  0.00  0.00    +0.000 N 
ATOM     20  N   UNL     1       3.451   7.531  17.361  0.00  0.00    +0.000 NA
ATOM     21  C   UNL     1       2.600   8.309  17.935  0.00  0.00    +0.000 A 
ATOM     22  C   UNL     1       1.929   8.063  19.228  0.00  0.00    +0.000 A 
ATOM     23  C   UNL     1       2.331   6.975  19.890  0.00  0.00    +0.000 A 
ATOM     24  C   UNL     1       3.332   6.054  19.305  0.00  0.00    +0.000 A 
ATOM     25  O   UNL     1       3.644   5.039  19.924  0.00  0.00    +0.000 OA
BRANCH  22  26
ATOM     26  O   UNL     1       0.943   8.883  19.741  0.00  0.00    +0.000 OA
BRANCH  26  27
ATOM     27  C   UNL     1       0.975  10.231  19.255  0.00  0.00    +0.000 C 
BRANCH  27  28
ATOM     28  C   UNL     1      -0.382  10.593  18.700  0.00  0.00    +0.000 A 
ATOM     29  C   UNL     1      -1.127  11.625  19.268  0.00  0.00    +0.000 A 
ATOM     30  C   UNL     1      -2.401  11.891  18.768  0.00  0.00    +0.000 A 
ATOM     31  C   UNL     1      -2.891  11.124  17.717  0.00  0.00    +0.000 A 
ATOM     32 CL   UNL     1      -4.468  11.394  17.099  0.00  0.00    +0.000 Cl
ATOM     33  C   UNL     1      -2.079  10.133  17.192  0.00  0.00    +0.000 A 
ATOM     34  N   UNL     1      -0.837   9.854  17.655  0.00  0.00    +0.000 NA
ENDBRANCH  27  28
ENDBRANCH  26  27
ENDBRANCH  22  26
ENDBRANCH  18  19
ENDBRANCH   1  18
TORSDOF 8
ENDMDL
MODEL 6
REMARK VINA RESULT:      -7.4      4.422      7.692
REMARK  Name = 
REMARK  10 active torsions:
REMARK  status: ('A' for Active; 'I' for Inactive)
REMARK    1  A    between atoms: C_1  and  C_2
REMARK    2  A    between atoms: C_4  and  C_5
REMARK    3  A    between atoms: C_5  and  N_6
REMARK    4  A    between atoms: N_9  and  C_10
REMARK    5  A    between atoms: C_15  and  C_16
REMARK    6  A    between atoms: C_16  and  C_18
REMARK    7  A    between atoms: C_18  and  N_19
REMARK    8  A    between atoms: C_22  and  O_23
REMARK    9  A    between atoms: O_23  and  C_24
REMARK   10  A    between atoms: C_24  and  C_25
REMARK                            x       y       z     vdW  Elec       q    Type
REMARK                         _______ _______ _______ _____ _____    ______ ____
ROOT
ATOM      1  C   UNL     1      -0.710  11.632  20.893  0.00  0.00    +0.000 C 
ATOM      2  O   UNL     1      -1.846  11.624  20.418  0.00  0.00    +0.000 OA
ENDROOT
BRANCH   1   9
ATOM      3  C   UNL     1      -0.034   9.497  23.134  0.00  0.00    +0.000 C 
ATOM      4  C   UNL     1       0.447   9.446  21.711  0.00  0.00    +0.000 A 
ATOM      5  C   UNL     1       1.236   8.328  21.361  0.00  0.00    +0.000 A 
ATOM      6  C   UNL     1       1.746   8.155  20.068  0.00  0.00    +0.000 A 
ATOM      7  C   UNL     1       1.451   9.117  19.100  0.00  0.00    +0.000 A 
ATOM      8  C   UNL     1       0.651  10.216  19.417  0.00  0.00    +0.000 A 
ATOM      9  C   UNL     1       0.146  10.404  20.718  0.00  0.00    +0.000 A 
BRANCH   6  10
ATOM     10  C   UNL     1       2.565   6.929  19.720  0.00  0.00    +0.000 C 
BRANCH  10  11
ATOM     11  N   UNL     1       1.769   5.704  19.543  0.00  0.00    +0.000 NA
ATOM     12  C   UNL     1       1.956   4.811  20.707  0.00  0.00    +0.000 C 
ATOM     13  C   UNL     1       1.202   3.466  20.563  0.00  0.00    +0.000 C 
ATOM     14  N   UNL     1       1.489   2.719  19.323  0.00  0.00    +0.000 NA
ATOM     15  C   UNL     1       2.808   2.092  19.356  0.00  0.00    +0.000 C 
ATOM     16  C   UNL     1       1.351   3.633  18.174  0.00  0.00    +0.000 C 
ATOM     17  C   UNL     1       2.116   4.970  18.308  0.00  0.00    +0.000 C 
ENDBRANCH  10  11
ENDBRANCH   6  10
ENDBRANCH   1   9
BRANCH   1  18
ATOM     18  C   UNL     1      -0.109  12.842  21.588  0.00  0.00    +0.000 C 
BRANCH  18  19
ATOM     19  N   UNL     1       0.894  13.522  20.787  0.00  0.00    +0.000 N 
ATOM     20  N   UNL     1       2.200  13.250  21.128  0.00  0.00    +0.000 NA
ATOM     21  C   UNL     1       3.110  13.782  20.389  0.00  0.00    +0.000 A 
ATOM     22  C   UNL     1       2.883  14.609  19.187  0.00  0.00    +0.000 A 
ATOM     23  C   UNL     1       1.608  14.899  18.918  0.00  0.00    +0.000 A 
ATOM     24  C   UNL     1       0.511  14.350  19.746  0.00  0.00    +0.000 A 
ATOM     25  O   UNL     1      -0.653  14.603  19.440  0.00  0.00    +0.000 OA
BRANCH  22  26
ATOM     26  O   UNL     1       3.902  15.062  18.372  0.00  0.00    +0.000 OA
BRANCH  26  27
ATOM     27  C   UNL     1       4.436  16.342  18.736  0.00  0.00    +0.000 C 
BRANCH  27  28
ATOM     28  C   UNL     1       5.931  16.335  18.532  0.00  0.00    +0.000 A 
ATOM     29  C   UNL     1       6.578  15.187  18.077  0.00  0.00    +0.000 A 
ATOM     30  C   UNL     1       7.968  15.198  17.959  0.00  0.00    +0.000 A 
ATOM     31  C   UNL     1       8.668  16.351  18.294  0.00  0.00    +0.000 A 
ATOM     32 CL   UNL     1      10.379  16.394  18.199  0.00  0.00    +0.000 Cl
ATOM     33  C   UNL     1       7.949  17.458  18.715  0.00  0.00    +0.000 A 
ATOM     34  N   UNL     1       6.600  17.477  18.837  0.00  0.00    +0.000 NA
ENDBRANCH  27  28
ENDBRANCH  26  27
ENDBRANCH  22  26
ENDBRANCH  18  19
ENDBRANCH   1  18
TORSDOF 8
ENDMDL
MODEL 7
REMARK VINA RESULT:      -7.4      3.771      7.356
REMARK  Name = 
REMARK  10 active torsions:
REMARK  status: ('A' for Active; 'I' for Inactive)
REMARK    1  A    between atoms: C_1  and  C_2
REMARK    2  A    between atoms: C_4  and  C_5
REMARK    3  A    between atoms: C_5  and  N_6
REMARK    4  A    between atoms: N_9  and  C_10
REMARK    5  A    between atoms: C_15  and  C_16
REMARK    6  A    between atoms: C_16  and  C_18
REMARK    7  A    between atoms: C_18  and  N_19
REMARK    8  A    between atoms: C_22  and  O_23
REMARK    9  A    between atoms: O_23  and  C_24
REMARK   10  A    between atoms: C_24  and  C_25
REMARK                            x       y       z     vdW  Elec       q    Type
REMARK                         _______ _______ _______ _____ _____    ______ ____
ROOT
ATOM      1  C   UNL     1      -0.700  11.020  19.519  0.00  0.00    +0.000 C 
ATOM      2  O   UNL     1      -1.541  11.004  18.619  0.00  0.00    +0.000 OA
ENDROOT
BRANCH   1   9
ATOM      3  C   UNL     1      -0.243   9.195  22.067  0.00  0.00    +0.000 C 
ATOM      4  C   UNL     1       0.465   9.043  20.750  0.00  0.00    +0.000 A 
ATOM      5  C   UNL     1       1.380   7.971  20.656  0.00  0.00    +0.000 A 
ATOM      6  C   UNL     1       2.105   7.714  19.485  0.00  0.00    +0.000 A 
ATOM      7  C   UNL     1       1.902   8.542  18.380  0.00  0.00    +0.000 A 
ATOM      8  C   UNL     1       0.983   9.591  18.442  0.00  0.00    +0.000 A 
ATOM      9  C   UNL     1       0.260   9.863  19.619  0.00  0.00    +0.000 A 
BRANCH   6  10
ATOM     10  C   UNL     1       3.057   6.539  19.410  0.00  0.00    +0.000 C 
BRANCH  10  11
ATOM     11  N   UNL     1       2.602   5.450  18.531  0.00  0.00    +0.000 NA
ATOM     12  C   UNL     1       1.825   4.464  19.314  0.00  0.00    +0.000 C 
ATOM     13  C   UNL     1       1.368   3.249  18.470  0.00  0.00    +0.000 C 
ATOM     14  N   UNL     1       2.446   2.554  17.740  0.00  0.00    +0.000 NA
ATOM     15  C   UNL     1       3.279   1.749  18.631  0.00  0.00    +0.000 C 
ATOM     16  C   UNL     1       3.245   3.553  17.006  0.00  0.00    +0.000 C 
ATOM     17  C   UNL     1       3.717   4.760  17.851  0.00  0.00    +0.000 C 
ENDBRANCH  10  11
ENDBRANCH   6  10
ENDBRANCH   1   9
BRANCH   1  18
ATOM     18  C   UNL     1      -0.543  12.181  20.486  0.00  0.00    +0.000 C 
BRANCH  18  19
ATOM     19  N   UNL     1       0.620  13.005  20.208  0.00  0.00    +0.000 N 
ATOM     20  N   UNL     1       1.692  12.811  21.049  0.00  0.00    +0.000 NA
ATOM     21  C   UNL     1       2.762  13.476  20.781  0.00  0.00    +0.000 A 
ATOM     22  C   UNL     1       2.960  14.382  19.631  0.00  0.00    +0.000 A 
ATOM     23  C   UNL     1       1.883  14.591  18.869  0.00  0.00    +0.000 A 
ATOM     24  C   UNL     1       0.610  13.886  19.140  0.00  0.00    +0.000 A 
ATOM     25  O   UNL     1      -0.346  14.070  18.389  0.00  0.00    +0.000 OA
BRANCH  22  26
ATOM     26  O   UNL     1       4.168  14.983  19.336  0.00  0.00    +0.000 OA
BRANCH  26  27
ATOM     27  C   UNL     1       4.836  15.567  20.462  0.00  0.00    +0.000 C 
BRANCH  27  28
ATOM     28  C   UNL     1       6.191  14.924  20.625  0.00  0.00    +0.000 A 
ATOM     29  C   UNL     1       7.099  14.908  19.567  0.00  0.00    +0.000 A 
ATOM     30  C   UNL     1       8.318  14.251  19.734  0.00  0.00    +0.000 A 
ATOM     31  C   UNL     1       8.597  13.636  20.949  0.00  0.00    +0.000 A 
ATOM     32 CL   UNL     1      10.068  12.787  21.183  0.00  0.00    +0.000 Cl
ATOM     33  C   UNL     1       7.653  13.718  21.959  0.00  0.00    +0.000 A 
ATOM     34  N   UNL     1       6.462  14.350  21.826  0.00  0.00    +0.000 NA
ENDBRANCH  27  28
ENDBRANCH  26  27
ENDBRANCH  22  26
ENDBRANCH  18  19
ENDBRANCH   1  18
TORSDOF 8
ENDMDL
MODEL 8
REMARK VINA RESULT:      -7.4      4.846     10.117
REMARK  Name = 
REMARK  10 active torsions:
REMARK  status: ('A' for Active; 'I' for Inactive)
REMARK    1  A    between atoms: C_1  and  C_2
REMARK    2  A    between atoms: C_4  and  C_5
REMARK    3  A    between atoms: C_5  and  N_6
REMARK    4  A    between atoms: N_9  and  C_10
REMARK    5  A    between atoms: C_15  and  C_16
REMARK    6  A    between atoms: C_16  and  C_18
REMARK    7  A    between atoms: C_18  and  N_19
REMARK    8  A    between atoms: C_22  and  O_23
REMARK    9  A    between atoms: O_23  and  C_24
REMARK   10  A    between atoms: C_24  and  C_25
REMARK                            x       y       z     vdW  Elec       q    Type
REMARK                         _______ _______ _______ _____ _____    ______ ____
ROOT
ATOM      1  C   UNL     1       1.357   8.256  21.071  0.00  0.00    +0.000 C 
ATOM      2  O   UNL     1       2.161   8.968  21.675  0.00  0.00    +0.000 OA
ENDROOT
BRANCH   1   9
ATOM      3  C   UNL     1       2.291   8.864  18.106  0.00  0.00    +0.000 C 
ATOM      4  C   UNL     1       2.317   7.514  18.766  0.00  0.00    +0.000 A 
ATOM      5  C   UNL     1       2.834   6.453  17.992  0.00  0.00    +0.000 A 
ATOM      6  C   UNL     1       2.918   5.145  18.487  0.00  0.00    +0.000 A 
ATOM      7  C   UNL     1       2.484   4.896  19.790  0.00  0.00    +0.000 A 
ATOM      8  C   UNL     1       1.994   5.935  20.582  0.00  0.00    +0.000 A 
ATOM      9  C   UNL     1       1.895   7.250  20.087  0.00  0.00    +0.000 A 
BRANCH   6  10
ATOM     10  C   UNL     1       3.505   4.036  17.638  0.00  0.00    +0.000 C 
BRANCH  10  11
ATOM     11  N   UNL     1       4.941   4.189  17.357  0.00  0.00    +0.000 NA
ATOM     12  C   UNL     1       5.635   4.711  18.554  0.00  0.00    +0.000 C 
ATOM     13  C   UNL     1       7.143   4.964  18.314  0.00  0.00    +0.000 C 
ATOM     14  N   UNL     1       7.457   5.821  17.155  0.00  0.00    +0.000 NA
ATOM     15  C   UNL     1       7.160   7.227  17.418  0.00  0.00    +0.000 C 
ATOM     16  C   UNL     1       6.718   5.322  15.980  0.00  0.00    +0.000 C 
ATOM     17  C   UNL     1       5.207   5.084  16.212  0.00  0.00    +0.000 C 
ENDBRANCH  10  11
ENDBRANCH   6  10
ENDBRANCH   1   9
BRANCH   1  18
ATOM     18  C   UNL     1      -0.141   8.300  21.322  0.00  0.00    +0.000 C 
BRANCH  18  19
ATOM     19  N   UNL     1      -0.641   9.642  21.565  0.00  0.00    +0.000 N 
ATOM     20  N   UNL     1      -0.865   9.953  22.887  0.00  0.00    +0.000 NA
ATOM     21  C   UNL     1      -1.240  11.159  23.139  0.00  0.00    +0.000 A 
ATOM     22  C   UNL     1      -1.400  12.246  22.151  0.00  0.00    +0.000 A 
ATOM     23  C   UNL     1      -1.230  11.895  20.874  0.00  0.00    +0.000 A 
ATOM     24  C   UNL     1      -0.833  10.516  20.509  0.00  0.00    +0.000 A 
ATOM     25  O   UNL     1      -0.642  10.243  19.326  0.00  0.00    +0.000 OA
BRANCH  22  26
ATOM     26  O   UNL     1      -1.700  13.549  22.497  0.00  0.00    +0.000 OA
BRANCH  26  27
ATOM     27  C   UNL     1      -2.916  13.706  23.240  0.00  0.00    +0.000 C 
BRANCH  27  28
ATOM     28  C   UNL     1      -4.091  13.621  22.298  0.00  0.00    +0.000 A 
ATOM     29  C   UNL     1      -4.211  14.513  21.234  0.00  0.00    +0.000 A 
ATOM     30  C   UNL     1      -5.342  14.444  20.420  0.00  0.00    +0.000 A 
ATOM     31  C   UNL     1      -6.313  13.486  20.687  0.00  0.00    +0.000 A 
ATOM     32 CL   UNL     1      -7.734  13.392  19.733  0.00  0.00    +0.000 Cl
ATOM     33  C   UNL     1      -6.107  12.619  21.748  0.00  0.00    +0.000 A 
ATOM     34  N   UNL     1      -5.019  12.662  22.554  0.00  0.00    +0.000 NA
ENDBRANCH  27  28
ENDBRANCH  26  27
ENDBRANCH  22  26
ENDBRANCH  18  19
ENDBRANCH   1  18
TORSDOF 8
ENDMDL
MODEL 9
REMARK VINA RESULT:      -7.4      1.555      1.922
REMARK  Name = 
REMARK  10 active torsions:
REMARK  status: ('A' for Active; 'I' for Inactive)
REMARK    1  A    between atoms: C_1  and  C_2
REMARK    2  A    between atoms: C_4  and  C_5
REMARK    3  A    between atoms: C_5  and  N_6
REMARK    4  A    between atoms: N_9  and  C_10
REMARK    5  A    between atoms: C_15  and  C_16
REMARK    6  A    between atoms: C_16  and  C_18
REMARK    7  A    between atoms: C_18  and  N_19
REMARK    8  A    between atoms: C_22  and  O_23
REMARK    9  A    between atoms: O_23  and  C_24
REMARK   10  A    between atoms: C_24  and  C_25
REMARK                            x       y       z     vdW  Elec       q    Type
REMARK                         _______ _______ _______ _____ _____    ______ ____
ROOT
ATOM      1  C   UNL     1       4.125   4.455  18.447  0.00  0.00    +0.000 C 
ATOM      2  O   UNL     1       4.286   3.340  18.946  0.00  0.00    +0.000 OA
ENDROOT
BRANCH   1   9
ATOM      3  C   UNL     1       2.343   3.828  20.989  0.00  0.00    +0.000 C 
ATOM      4  C   UNL     1       2.414   5.152  20.283  0.00  0.00    +0.000 A 
ATOM      5  C   UNL     1       1.640   6.195  20.837  0.00  0.00    +0.000 A 
ATOM      6  C   UNL     1       1.618   7.480  20.279  0.00  0.00    +0.000 A 
ATOM      7  C   UNL     1       2.396   7.730  19.148  0.00  0.00    +0.000 A 
ATOM      8  C   UNL     1       3.190   6.721  18.599  0.00  0.00    +0.000 A 
ATOM      9  C   UNL     1       3.208   5.424  19.147  0.00  0.00    +0.000 A 
BRANCH   6  10
ATOM     10  C   UNL     1       0.797   8.583  20.916  0.00  0.00    +0.000 C 
BRANCH  10  11
ATOM     11  N   UNL     1       0.686   9.801  20.097  0.00  0.00    +0.000 NA
ATOM     12  C   UNL     1       0.920  10.994  20.938  0.00  0.00    +0.000 C 
ATOM     13  C   UNL     1       0.752  12.322  20.160  0.00  0.00    +0.000 C 
ATOM     14  N   UNL     1      -0.531  12.471  19.447  0.00  0.00    +0.000 NA
ATOM     15  C   UNL     1      -1.636  12.750  20.361  0.00  0.00    +0.000 C 
ATOM     16  C   UNL     1      -0.778  11.252  18.653  0.00  0.00    +0.000 C 
ATOM     17  C   UNL     1      -0.627   9.925  19.432  0.00  0.00    +0.000 C 
ENDBRANCH  10  11
ENDBRANCH   6  10
ENDBRANCH   1   9
BRANCH   1  18
ATOM     18  C   UNL     1       4.857   4.919  17.199  0.00  0.00    +0.000 C 
BRANCH  18  19
ATOM     19  N   UNL     1       5.921   5.868  17.480  0.00  0.00    +0.000 N 
ATOM     20  N   UNL     1       5.727   7.133  16.972  0.00  0.00    +0.000 NA
ATOM     21  C   UNL     1       6.619   8.014  17.267  0.00  0.00    +0.000 A 
ATOM     22  C   UNL     1       7.795   7.806  18.136  0.00  0.00    +0.000 A 
ATOM     23  C   UNL     1       7.983   6.555  18.564  0.00  0.00    +0.000 A 
ATOM     24  C   UNL     1       7.016   5.484  18.234  0.00  0.00    +0.000 A 
ATOM     25  O   UNL     1       7.198   4.355  18.685  0.00  0.00    +0.000 OA
BRANCH  22  26
ATOM     26  O   UNL     1       8.658   8.820  18.503  0.00  0.00    +0.000 OA
BRANCH  26  27
ATOM     27  C   UNL     1       8.427  10.070  17.841  0.00  0.00    +0.000 C 
BRANCH  27  28
ATOM     28  C   UNL     1       9.451  11.077  18.304  0.00  0.00    +0.000 A 
ATOM     29  C   UNL     1      10.137  10.888  19.503  0.00  0.00    +0.000 A 
ATOM     30  C   UNL     1      11.032  11.869  19.930  0.00  0.00    +0.000 A 
ATOM     31  C   UNL     1      11.220  13.002  19.148  0.00  0.00    +0.000 A 
ATOM     32 CL   UNL     1      12.283  14.248  19.656  0.00  0.00    +0.000 Cl
ATOM     33  C   UNL     1      10.520  13.103  17.958  0.00  0.00    +0.000 A 
ATOM     34  N   UNL     1       9.646  12.166  17.517  0.00  0.00    +0.000 NA
ENDBRANCH  27  28
ENDBRANCH  26  27
ENDBRANCH  22  26
ENDBRANCH  18  19
ENDBRANCH   1  18
TORSDOF 8
ENDMDL
