MODEL 1
REMARK VINA RESULT:      -7.3      0.000      0.000
REMARK  Name = 
REMARK  12 active torsions:
REMARK  status: ('A' for Active; 'I' for Inactive)
REMARK    1  A    between atoms: C_1  and  O_2
REMARK    2  A    between atoms: O_2  and  C_3
REMARK    3  A    between atoms: C_6  and  C_7
REMARK    4  A    between atoms: C_7  and  C_8
REMARK    5  A    between atoms: C_8  and  N_9
REMARK    6  A    between atoms: C_10  and  C_12
REMARK    7  A    between atoms: C_12  and  C_13
REMARK    8  A    between atoms: C_13  and  N_14
REMARK    9  A    between atoms: N_14  and  S_15
REMARK   10  A    between atoms: S_15  and  C_18
REMARK   11  A    between atoms: C_28  and  O_29
REMARK   12  A    between atoms: O_29  and  C_30
REMARK                            x       y       z     vdW  Elec       q    Type
REMARK                         _______ _______ _______ _____ _____    ______ ____
ROOT
ATOM      1  N   UNL     1       1.524   5.421  20.176  0.00  0.00    +0.000 N 
ATOM      2  C   UNL     1       1.614   4.221  20.848  0.00  0.00    +0.000 C 
ATOM      3  O   UNL     1       2.297   4.051  21.852  0.00  0.00    +0.000 OA
ATOM      4  H   UNL     1       0.743   5.552  19.545  0.00  0.00    +0.000 HD
ENDROOT
BRANCH   1   5
ATOM      5  C   UNL     1       2.239   6.621  20.604  0.00  0.00    +0.000 C 
BRANCH   5   6
ATOM      6  C   UNL     1       2.076   7.812  19.654  0.00  0.00    +0.000 C 
BRANCH   6  10
ATOM      7  C   UNL     1      -0.595  10.915  21.013  0.00  0.00    +0.000 A 
ATOM      8  C   UNL     1      -0.198   9.880  21.872  0.00  0.00    +0.000 A 
ATOM      9  C   UNL     1       0.642   8.863  21.426  0.00  0.00    +0.000 A 
ATOM     10  C   UNL     1       1.068   8.836  20.096  0.00  0.00    +0.000 A 
ATOM     11  C   UNL     1       0.598   9.814  19.217  0.00  0.00    +0.000 A 
ATOM     12  C   UNL     1      -0.237  10.853  19.657  0.00  0.00    +0.000 A 
BRANCH   7  14
ATOM     13  C   UNL     1      -0.721  12.763  22.490  0.00  0.00    +0.000 C 
ATOM     14  O   UNL     1      -1.339  11.966  21.479  0.00  0.00    +0.000 OA
ENDBRANCH   7  14
BRANCH  12  15
ATOM     15  O   UNL     1      -0.558  11.707  18.636  0.00  0.00    +0.000 OA
ATOM     16  C   UNL     1      -1.801  11.551  17.976  0.00  0.00    +0.000 C 
ENDBRANCH  12  15
ENDBRANCH   6  10
ENDBRANCH   5   6
ENDBRANCH   1   5
BRANCH   2  17
ATOM     17  C   UNL     1       0.820   3.092  20.235  0.00  0.00    +0.000 C 
BRANCH  17  18
ATOM     18  C   UNL     1       1.767   2.042  19.653  0.00  0.00    +0.000 C 
BRANCH  18  19
ATOM     19  N   UNL     1       3.087   2.650  19.379  0.00  0.00    +0.000 NA
ATOM     20  H   UNL     1       3.877   2.219  19.869  0.00  0.00    +0.000 HD
BRANCH  19  21
ATOM     21  S   UNL     1       3.539   2.834  17.760  0.00  0.00    +0.000 S 
ATOM     22  O   UNL     1       4.126   1.559  17.399  0.00  0.00    +0.000 OA
ATOM     23  O   UNL     1       2.432   3.370  17.007  0.00  0.00    +0.000 OA
BRANCH  21  24
ATOM     24  C   UNL     1       4.847   3.999  17.842  0.00  0.00    +0.000 A 
ATOM     25  C   UNL     1       5.217   4.553  19.093  0.00  0.00    +0.000 A 
ATOM     26  C   UNL     1       6.306   5.438  19.248  0.00  0.00    +0.000 A 
ATOM     27  C   UNL     1       7.115   5.852  18.177  0.00  0.00    +0.000 A 
ATOM     28  C   UNL     1       6.787   5.326  16.902  0.00  0.00    +0.000 A 
ATOM     29  N   UNL     1       7.440   5.594  15.762  0.00  0.00    +0.000 NA
ATOM     30  S   UNL     1       6.675   4.728  14.572  0.00  0.00    +0.000 S 
ATOM     31  N   UNL     1       5.455   4.012  15.442  0.00  0.00    +0.000 NA
ATOM     32  C   UNL     1       5.618   4.375  16.724  0.00  0.00    +0.000 A 
ENDBRANCH  21  24
ENDBRANCH  19  21
ENDBRANCH  18  19
ENDBRANCH  17  18
ENDBRANCH   2  17
TORSDOF 10
ENDMDL
MODEL 2
REMARK VINA RESULT:      -7.2      1.160      2.063
REMARK  Name = 
REMARK  12 active torsions:
REMARK  status: ('A' for Active; 'I' for Inactive)
REMARK    1  A    between atoms: C_1  and  O_2
REMARK    2  A    between atoms: O_2  and  C_3
REMARK    3  A    between atoms: C_6  and  C_7
REMARK    4  A    between atoms: C_7  and  C_8
REMARK    5  A    between atoms: C_8  and  N_9
REMARK    6  A    between atoms: C_10  and  C_12
REMARK    7  A    between atoms: C_12  and  C_13
REMARK    8  A    between atoms: C_13  and  N_14
REMARK    9  A    between atoms: N_14  and  S_15
REMARK   10  A    between atoms: S_15  and  C_18
REMARK   11  A    between atoms: C_28  and  O_29
REMARK   12  A    between atoms: O_29  and  C_30
REMARK                            x       y       z     vdW  Elec       q    Type
REMARK                         _______ _______ _______ _____ _____    ______ ____
ROOT
ATOM      1  N   UNL     1       2.114   5.102  21.318  0.00  0.00    +0.000 N 
ATOM      2  C   UNL     1       1.578   3.885  20.954  0.00  0.00    +0.000 C 
ATOM      3  O   UNL     1       0.553   3.761  20.294  0.00  0.00    +0.000 OA
ATOM      4  H   UNL     1       3.083   5.124  21.610  0.00  0.00    +0.000 HD
ENDROOT
BRANCH   1   5
ATOM      5  C   UNL     1       1.505   6.376  20.942  0.00  0.00    +0.000 C 
BRANCH   5   6
ATOM      6  C   UNL     1       2.183   7.058  19.750  0.00  0.00    +0.000 C 
BRANCH   6  10
ATOM      7  C   UNL     1       0.671  11.018  18.945  0.00  0.00    +0.000 A 
ATOM      8  C   UNL     1       1.375  10.303  17.964  0.00  0.00    +0.000 A 
ATOM      9  C   UNL     1       1.887   9.037  18.233  0.00  0.00    +0.000 A 
ATOM     10  C   UNL     1       1.744   8.475  19.503  0.00  0.00    +0.000 A 
ATOM     11  C   UNL     1       1.126   9.225  20.506  0.00  0.00    +0.000 A 
ATOM     12  C   UNL     1       0.592  10.497  20.246  0.00  0.00    +0.000 A 
BRANCH   7  14
ATOM     13  C   UNL     1      -1.280  12.155  18.228  0.00  0.00    +0.000 C 
ATOM     14  O   UNL     1       0.083  12.219  18.650  0.00  0.00    +0.000 OA
ENDBRANCH   7  14
BRANCH  12  15
ATOM     15  O   UNL     1       0.016  11.039  21.363  0.00  0.00    +0.000 OA
ATOM     16  C   UNL     1      -0.449  10.173  22.384  0.00  0.00    +0.000 C 
ENDBRANCH  12  15
ENDBRANCH   6  10
ENDBRANCH   5   6
ENDBRANCH   1   5
BRANCH   2  17
ATOM     17  C   UNL     1       2.339   2.683  21.460  0.00  0.00    +0.000 C 
BRANCH  17  18
ATOM     18  C   UNL     1       3.406   2.273  20.444  0.00  0.00    +0.000 C 
BRANCH  18  19
ATOM     19  N   UNL     1       3.947   3.473  19.769  0.00  0.00    +0.000 NA
ATOM     20  H   UNL     1       4.908   3.722  20.024  0.00  0.00    +0.000 HD
BRANCH  19  21
ATOM     21  S   UNL     1       3.842   3.532  18.083  0.00  0.00    +0.000 S 
ATOM     22  O   UNL     1       4.186   2.193  17.649  0.00  0.00    +0.000 OA
ATOM     23  O   UNL     1       2.587   4.128  17.697  0.00  0.00    +0.000 OA
BRANCH  21  24
ATOM     24  C   UNL     1       5.179   4.577  17.637  0.00  0.00    +0.000 A 
ATOM     25  C   UNL     1       5.780   5.405  18.619  0.00  0.00    +0.000 A 
ATOM     26  C   UNL     1       6.906   6.215  18.353  0.00  0.00    +0.000 A 
ATOM     27  C   UNL     1       7.526   6.276  17.094  0.00  0.00    +0.000 A 
ATOM     28  C   UNL     1       6.964   5.465  16.077  0.00  0.00    +0.000 A 
ATOM     29  N   UNL     1       7.414   5.379  14.817  0.00  0.00    +0.000 NA
ATOM     30  S   UNL     1       6.426   4.296  14.041  0.00  0.00    +0.000 S 
ATOM     31  N   UNL     1       5.356   3.924  15.255  0.00  0.00    +0.000 NA
ATOM     32  C   UNL     1       5.753   4.591  16.351  0.00  0.00    +0.000 A 
ENDBRANCH  21  24
ENDBRANCH  19  21
ENDBRANCH  18  19
ENDBRANCH  17  18
ENDBRANCH   2  17
TORSDOF 10
ENDMDL
MODEL 3
REMARK VINA RESULT:      -7.2      5.868      8.294
REMARK  Name = 
REMARK  12 active torsions:
REMARK  status: ('A' for Active; 'I' for Inactive)
REMARK    1  A    between atoms: C_1  and  O_2
REMARK    2  A    between atoms: O_2  and  C_3
REMARK    3  A    between atoms: C_6  and  C_7
REMARK    4  A    between atoms: C_7  and  C_8
REMARK    5  A    between atoms: C_8  and  N_9
REMARK    6  A    between atoms: C_10  and  C_12
REMARK    7  A    between atoms: C_12  and  C_13
REMARK    8  A    between atoms: C_13  and  N_14
REMARK    9  A    between atoms: N_14  and  S_15
REMARK   10  A    between atoms: S_15  and  C_18
REMARK   11  A    between atoms: C_28  and  O_29
REMARK   12  A    between atoms: O_29  and  C_30
REMARK                            x       y       z     vdW  Elec       q    Type
REMARK                         _______ _______ _______ _____ _____    ______ ____
ROOT
ATOM      1  N   UNL     1       8.601   8.120  18.706  0.00  0.00    +0.000 N 
ATOM      2  C   UNL     1       7.723   7.211  18.155  0.00  0.00    +0.000 C 
ATOM      3  O   UNL     1       6.888   7.497  17.305  0.00  0.00    +0.000 OA
ATOM      4  H   UNL     1       9.422   7.759  19.177  0.00  0.00    +0.000 HD
ENDROOT
BRANCH   1   5
ATOM      5  C   UNL     1       8.624   9.529  18.318  0.00  0.00    +0.000 C 
BRANCH   5   6
ATOM      6  C   UNL     1       9.296  10.443  19.348  0.00  0.00    +0.000 C 
BRANCH   6  10
ATOM      7  C   UNL     1      10.671  14.104  17.526  0.00  0.00    +0.000 A 
ATOM      8  C   UNL     1      11.216  12.866  17.154  0.00  0.00    +0.000 A 
ATOM      9  C   UNL     1      10.791  11.687  17.761  0.00  0.00    +0.000 A 
ATOM     10  C   UNL     1       9.844  11.726  18.786  0.00  0.00    +0.000 A 
ATOM     11  C   UNL     1       9.371  12.966  19.221  0.00  0.00    +0.000 A 
ATOM     12  C   UNL     1       9.779  14.161  18.608  0.00  0.00    +0.000 A 
BRANCH   7  14
ATOM     13  C   UNL     1      12.333  15.741  17.113  0.00  0.00    +0.000 C 
ATOM     14  O   UNL     1      11.016  15.250  16.861  0.00  0.00    +0.000 OA
ENDBRANCH   7  14
BRANCH  12  15
ATOM     15  O   UNL     1       9.176  15.250  19.178  0.00  0.00    +0.000 OA
ATOM     16  C   UNL     1       8.707  16.292  18.341  0.00  0.00    +0.000 C 
ENDBRANCH  12  15
ENDBRANCH   6  10
ENDBRANCH   5   6
ENDBRANCH   1   5
BRANCH   2  17
ATOM     17  C   UNL     1       7.839   5.809  18.704  0.00  0.00    +0.000 C 
BRANCH  17  18
ATOM     18  C   UNL     1       7.349   4.798  17.667  0.00  0.00    +0.000 C 
BRANCH  18  19
ATOM     19  N   UNL     1       6.029   4.266  18.066  0.00  0.00    +0.000 NA
ATOM     20  H   UNL     1       5.601   4.721  18.880  0.00  0.00    +0.000 HD
BRANCH  19  21
ATOM     21  S   UNL     1       4.840   4.153  16.870  0.00  0.00    +0.000 S 
ATOM     22  O   UNL     1       4.640   5.518  16.426  0.00  0.00    +0.000 OA
ATOM     23  O   UNL     1       5.197   3.121  15.929  0.00  0.00    +0.000 OA
BRANCH  21  24
ATOM     24  C   UNL     1       3.409   3.690  17.773  0.00  0.00    +0.000 A 
ATOM     25  C   UNL     1       2.815   2.423  17.546  0.00  0.00    +0.000 A 
ATOM     26  C   UNL     1       1.708   1.952  18.286  0.00  0.00    +0.000 A 
ATOM     27  C   UNL     1       1.097   2.696  19.308  0.00  0.00    +0.000 A 
ATOM     28  C   UNL     1       1.654   3.971  19.576  0.00  0.00    +0.000 A 
ATOM     29  N   UNL     1       1.218   4.826  20.512  0.00  0.00    +0.000 NA
ATOM     30  S   UNL     1       2.208   6.155  20.428  0.00  0.00    +0.000 S 
ATOM     31  N   UNL     1       3.202   5.724  19.170  0.00  0.00    +0.000 NA
ATOM     32  C   UNL     1       2.842   4.489  18.785  0.00  0.00    +0.000 A 
ENDBRANCH  21  24
ENDBRANCH  19  21
ENDBRANCH  18  19
ENDBRANCH  17  18
ENDBRANCH   2  17
TORSDOF 10
ENDMDL
MODEL 4
REMARK VINA RESULT:      -7.2      1.688      2.587
REMARK  Name = 
REMARK  12 active torsions:
REMARK  status: ('A' for Active; 'I' for Inactive)
REMARK    1  A    between atoms: C_1  and  O_2
REMARK    2  A    between atoms: O_2  and  C_3
REMARK    3  A    between atoms: C_6  and  C_7
REMARK    4  A    between atoms: C_7  and  C_8
REMARK    5  A    between atoms: C_8  and  N_9
REMARK    6  A    between atoms: C_10  and  C_12
REMARK    7  A    between atoms: C_12  and  C_13
REMARK    8  A    between atoms: C_13  and  N_14
REMARK    9  A    between atoms: N_14  and  S_15
REMARK   10  A    between atoms: S_15  and  C_18
REMARK   11  A    between atoms: C_28  and  O_29
REMARK   12  A    between atoms: O_29  and  C_30
REMARK                            x       y       z     vdW  Elec       q    Type
REMARK                         _______ _______ _______ _____ _____    ______ ____
ROOT
ATOM      1  N   UNL     1       1.341   5.559  20.378  0.00  0.00    +0.000 N 
ATOM      2  C   UNL     1       1.697   4.371  20.979  0.00  0.00    +0.000 C 
ATOM      3  O   UNL     1       2.483   4.288  21.916  0.00  0.00    +0.000 OA
ATOM      4  H   UNL     1       0.499   5.572  19.817  0.00  0.00    +0.000 HD
ENDROOT
BRANCH   1   5
ATOM      5  C   UNL     1       1.871   6.850  20.811  0.00  0.00    +0.000 C 
BRANCH   5   6
ATOM      6  C   UNL     1       0.790   7.855  21.224  0.00  0.00    +0.000 C 
BRANCH   6  10
ATOM      7  C   UNL     1       0.914  11.764  19.403  0.00  0.00    +0.000 A 
ATOM      8  C   UNL     1       1.118  10.607  18.637  0.00  0.00    +0.000 A 
ATOM      9  C   UNL     1       1.105   9.347  19.230  0.00  0.00    +0.000 A 
ATOM     10  C   UNL     1       0.932   9.220  20.609  0.00  0.00    +0.000 A 
ATOM     11  C   UNL     1       0.823  10.377  21.384  0.00  0.00    +0.000 A 
ATOM     12  C   UNL     1       0.819  11.652  20.798  0.00  0.00    +0.000 A 
BRANCH   7  14
ATOM     13  C   UNL     1      -0.446  13.326  18.252  0.00  0.00    +0.000 C 
ATOM     14  O   UNL     1       0.827  12.994  18.805  0.00  0.00    +0.000 OA
ENDBRANCH   7  14
BRANCH  12  15
ATOM     15  O   UNL     1       0.680  12.637  21.740  0.00  0.00    +0.000 OA
ATOM     16  C   UNL     1      -0.618  12.969  22.200  0.00  0.00    +0.000 C 
ENDBRANCH  12  15
ENDBRANCH   6  10
ENDBRANCH   5   6
ENDBRANCH   1   5
BRANCH   2  17
ATOM     17  C   UNL     1       1.063   3.142  20.372  0.00  0.00    +0.000 C 
BRANCH  17  18
ATOM     18  C   UNL     1       2.071   2.419  19.478  0.00  0.00    +0.000 C 
BRANCH  18  19
ATOM     19  N   UNL     1       3.111   3.367  19.024  0.00  0.00    +0.000 NA
ATOM     20  H   UNL     1       4.074   3.016  19.073  0.00  0.00    +0.000 HD
BRANCH  19  21
ATOM     21  S   UNL     1       2.910   4.074  17.502  0.00  0.00    +0.000 S 
ATOM     22  O   UNL     1       2.259   3.051  16.708  0.00  0.00    +0.000 OA
ATOM     23  O   UNL     1       2.312   5.378  17.650  0.00  0.00    +0.000 OA
BRANCH  21  24
ATOM     24  C   UNL     1       4.554   4.218  16.909  0.00  0.00    +0.000 A 
ATOM     25  C   UNL     1       4.841   3.918  15.553  0.00  0.00    +0.000 A 
ATOM     26  C   UNL     1       6.124   4.082  14.986  0.00  0.00    +0.000 A 
ATOM     27  C   UNL     1       7.228   4.551  15.714  0.00  0.00    +0.000 A 
ATOM     28  C   UNL     1       6.996   4.866  17.076  0.00  0.00    +0.000 A 
ATOM     29  N   UNL     1       7.917   5.332  17.932  0.00  0.00    +0.000 NA
ATOM     30  S   UNL     1       7.139   5.548  19.381  0.00  0.00    +0.000 S 
ATOM     31  N   UNL     1       5.613   5.017  18.999  0.00  0.00    +0.000 NA
ATOM     32  C   UNL     1       5.621   4.693  17.697  0.00  0.00    +0.000 A 
ENDBRANCH  21  24
ENDBRANCH  19  21
ENDBRANCH  18  19
ENDBRANCH  17  18
ENDBRANCH   2  17
TORSDOF 10
ENDMDL
MODEL 5
REMARK VINA RESULT:      -7.1      2.634      4.096
REMARK  Name = 
REMARK  12 active torsions:
REMARK  status: ('A' for Active; 'I' for Inactive)
REMARK    1  A    between atoms: C_1  and  O_2
REMARK    2  A    between atoms: O_2  and  C_3
REMARK    3  A    between atoms: C_6  and  C_7
REMARK    4  A    between atoms: C_7  and  C_8
REMARK    5  A    between atoms: C_8  and  N_9
REMARK    6  A    between atoms: C_10  and  C_12
REMARK    7  A    between atoms: C_12  and  C_13
REMARK    8  A    between atoms: C_13  and  N_14
REMARK    9  A    between atoms: N_14  and  S_15
REMARK   10  A    between atoms: S_15  and  C_18
REMARK   11  A    between atoms: C_28  and  O_29
REMARK   12  A    between atoms: O_29  and  C_30
REMARK                            x       y       z     vdW  Elec       q    Type
REMARK                         _______ _______ _______ _____ _____    ______ ____
ROOT
ATOM      1  N   UNL     1       1.669  10.626  18.129  0.00  0.00    +0.000 N 
ATOM      2  C   UNL     1       1.563   9.328  18.581  0.00  0.00    +0.000 C 
ATOM      3  O   UNL     1       1.249   9.028  19.727  0.00  0.00    +0.000 OA
ATOM      4  H   UNL     1       1.655  10.781  17.129  0.00  0.00    +0.000 HD
ENDROOT
BRANCH   1   5
ATOM      5  C   UNL     1       1.407  11.782  18.984  0.00  0.00    +0.000 C 
BRANCH   5   6
ATOM      6  C   UNL     1      -0.015  12.339  18.854  0.00  0.00    +0.000 C 
BRANCH   6  10
ATOM      7  C   UNL     1      -2.439  12.062  22.413  0.00  0.00    +0.000 A 
ATOM      8  C   UNL     1      -2.879  12.790  21.297  0.00  0.00    +0.000 A 
ATOM      9  C   UNL     1      -2.085  12.902  20.159  0.00  0.00    +0.000 A 
ATOM     10  C   UNL     1      -0.813  12.325  20.128  0.00  0.00    +0.000 A 
ATOM     11  C   UNL     1      -0.338  11.682  21.273  0.00  0.00    +0.000 A 
ATOM     12  C   UNL     1      -1.133  11.548  22.422  0.00  0.00    +0.000 A 
BRANCH   7  14
ATOM     13  C   UNL     1      -3.701  13.055  24.155  0.00  0.00    +0.000 C 
ATOM     14  O   UNL     1      -3.259  11.869  23.492  0.00  0.00    +0.000 OA
ENDBRANCH   7  14
BRANCH  12  15
ATOM     15  O   UNL     1      -0.476  10.866  23.411  0.00  0.00    +0.000 OA
ATOM     16  C   UNL     1      -0.071   9.530  23.171  0.00  0.00    +0.000 C 
ENDBRANCH  12  15
ENDBRANCH   6  10
ENDBRANCH   5   6
ENDBRANCH   1   5
BRANCH   2  17
ATOM     17  C   UNL     1       1.898   8.273  17.554  0.00  0.00    +0.000 C 
BRANCH  17  18
ATOM     18  C   UNL     1       3.221   7.595  17.913  0.00  0.00    +0.000 C 
BRANCH  18  19
ATOM     19  N   UNL     1       3.013   6.636  19.019  0.00  0.00    +0.000 NA
ATOM     20  H   UNL     1       2.241   6.862  19.654  0.00  0.00    +0.000 HD
BRANCH  19  21
ATOM     21  S   UNL     1       2.870   5.001  18.616  0.00  0.00    +0.000 S 
ATOM     22  O   UNL     1       2.972   4.304  19.883  0.00  0.00    +0.000 OA
ATOM     23  O   UNL     1       1.721   4.811  17.765  0.00  0.00    +0.000 OA
BRANCH  21  24
ATOM     24  C   UNL     1       4.349   4.678  17.730  0.00  0.00    +0.000 A 
ATOM     25  C   UNL     1       4.279   4.170  16.408  0.00  0.00    +0.000 A 
ATOM     26  C   UNL     1       5.423   3.957  15.608  0.00  0.00    +0.000 A 
ATOM     27  C   UNL     1       6.728   4.224  16.051  0.00  0.00    +0.000 A 
ATOM     28  C   UNL     1       6.854   4.734  17.367  0.00  0.00    +0.000 A 
ATOM     29  N   UNL     1       8.009   5.056  17.966  0.00  0.00    +0.000 NA
ATOM     30  S   UNL     1       7.611   5.612  19.478  0.00  0.00    +0.000 S 
ATOM     31  N   UNL     1       5.961   5.425  19.455  0.00  0.00    +0.000 NA
ATOM     32  C   UNL     1       5.632   4.966  18.237  0.00  0.00    +0.000 A 
ENDBRANCH  21  24
ENDBRANCH  19  21
ENDBRANCH  18  19
ENDBRANCH  17  18
ENDBRANCH   2  17
TORSDOF 10
ENDMDL
MODEL 6
REMARK VINA RESULT:      -7.1      2.049      2.771
REMARK  Name = 
REMARK  12 active torsions:
REMARK  status: ('A' for Active; 'I' for Inactive)
REMARK    1  A    between atoms: C_1  and  O_2
REMARK    2  A    between atoms: O_2  and  C_3
REMARK    3  A    between atoms: C_6  and  C_7
REMARK    4  A    between atoms: C_7  and  C_8
REMARK    5  A    between atoms: C_8  and  N_9
REMARK    6  A    between atoms: C_10  and  C_12
REMARK    7  A    between atoms: C_12  and  C_13
REMARK    8  A    between atoms: C_13  and  N_14
REMARK    9  A    between atoms: N_14  and  S_15
REMARK   10  A    between atoms: S_15  and  C_18
REMARK   11  A    between atoms: C_28  and  O_29
REMARK   12  A    between atoms: O_29  and  C_30
REMARK                            x       y       z     vdW  Elec       q    Type
REMARK                         _______ _______ _______ _____ _____    ______ ____
ROOT
ATOM      1  N   UNL     1       2.200   7.262  19.021  0.00  0.00    +0.000 N 
ATOM      2  C   UNL     1       1.782   7.137  20.329  0.00  0.00    +0.000 C 
ATOM      3  O   UNL     1       1.593   8.088  21.079  0.00  0.00    +0.000 OA
ATOM      4  H   UNL     1       2.063   6.472  18.403  0.00  0.00    +0.000 HD
ENDROOT
BRANCH   1   5
ATOM      5  C   UNL     1       2.456   8.557  18.396  0.00  0.00    +0.000 C 
BRANCH   5   6
ATOM      6  C   UNL     1       1.228   9.166  17.709  0.00  0.00    +0.000 C 
BRANCH   6  10
ATOM      7  C   UNL     1      -0.903  11.949  20.225  0.00  0.00    +0.000 A 
ATOM      8  C   UNL     1      -1.566  11.242  19.211  0.00  0.00    +0.000 A 
ATOM      9  C   UNL     1      -0.873  10.364  18.381  0.00  0.00    +0.000 A 
ATOM     10  C   UNL     1       0.508  10.208  18.519  0.00  0.00    +0.000 A 
ATOM     11  C   UNL     1       1.183  10.982  19.465  0.00  0.00    +0.000 A 
ATOM     12  C   UNL     1       0.495  11.860  20.318  0.00  0.00    +0.000 A 
BRANCH   7  14
ATOM     13  C   UNL     1      -1.999  12.102  22.319  0.00  0.00    +0.000 C 
ATOM     14  O   UNL     1      -1.600  12.735  21.103  0.00  0.00    +0.000 OA
ENDBRANCH   7  14
BRANCH  12  15
ATOM     15  O   UNL     1       1.349  12.498  21.177  0.00  0.00    +0.000 OA
ATOM     16  C   UNL     1       2.130  13.577  20.693  0.00  0.00    +0.000 C 
ENDBRANCH  12  15
ENDBRANCH   6  10
ENDBRANCH   5   6
ENDBRANCH   1   5
BRANCH   2  17
ATOM     17  C   UNL     1       1.597   5.714  20.799  0.00  0.00    +0.000 C 
BRANCH  17  18
ATOM     18  C   UNL     1       2.032   4.740  19.704  0.00  0.00    +0.000 C 
BRANCH  18  19
ATOM     19  N   UNL     1       3.418   4.288  19.953  0.00  0.00    +0.000 NA
ATOM     20  H   UNL     1       3.638   4.071  20.930  0.00  0.00    +0.000 HD
BRANCH  19  21
ATOM     21  S   UNL     1       4.003   3.013  19.010  0.00  0.00    +0.000 S 
ATOM     22  O   UNL     1       4.941   2.323  19.873  0.00  0.00    +0.000 OA
ATOM     23  O   UNL     1       2.897   2.304  18.415  0.00  0.00    +0.000 OA
BRANCH  21  24
ATOM     24  C   UNL     1       4.943   3.829  17.775  0.00  0.00    +0.000 A 
ATOM     25  C   UNL     1       4.580   3.694  16.411  0.00  0.00    +0.000 A 
ATOM     26  C   UNL     1       5.242   4.381  15.370  0.00  0.00    +0.000 A 
ATOM     27  C   UNL     1       6.321   5.251  15.591  0.00  0.00    +0.000 A 
ATOM     28  C   UNL     1       6.725   5.422  16.939  0.00  0.00    +0.000 A 
ATOM     29  N   UNL     1       7.725   6.212  17.354  0.00  0.00    +0.000 NA
ATOM     30  S   UNL     1       7.779   6.067  19.006  0.00  0.00    +0.000 S 
ATOM     31  N   UNL     1       6.568   4.961  19.262  0.00  0.00    +0.000 NA
ATOM     32  C   UNL     1       6.021   4.689  18.067  0.00  0.00    +0.000 A 
ENDBRANCH  21  24
ENDBRANCH  19  21
ENDBRANCH  18  19
ENDBRANCH  17  18
ENDBRANCH   2  17
TORSDOF 10
ENDMDL
MODEL 7
REMARK VINA RESULT:      -7.0      6.082      8.343
REMARK  Name = 
REMARK  12 active torsions:
REMARK  status: ('A' for Active; 'I' for Inactive)
REMARK    1  A    between atoms: C_1  and  O_2
REMARK    2  A    between atoms: O_2  and  C_3
REMARK    3  A    between atoms: C_6  and  C_7
REMARK    4  A    between atoms: C_7  and  C_8
REMARK    5  A    between atoms: C_8  and  N_9
REMARK    6  A    between atoms: C_10  and  C_12
REMARK    7  A    between atoms: C_12  and  C_13
REMARK    8  A    between atoms: C_13  and  N_14
REMARK    9  A    between atoms: N_14  and  S_15
REMARK   10  A    between atoms: S_15  and  C_18
REMARK   11  A    between atoms: C_28  and  O_29
REMARK   12  A    between atoms: O_29  and  C_30
REMARK                            x       y       z     vdW  Elec       q    Type
REMARK                         _______ _______ _______ _____ _____    ______ ____
ROOT
ATOM      1  N   UNL     1       8.769   8.863  18.841  0.00  0.00    +0.000 N 
ATOM      2  C   UNL     1       8.060   7.934  18.109  0.00  0.00    +0.000 C 
ATOM      3  O   UNL     1       7.417   8.204  17.102  0.00  0.00    +0.000 OA
ATOM      4  H   UNL     1       9.481   8.523  19.474  0.00  0.00    +0.000 HD
ENDROOT
BRANCH   1   5
ATOM      5  C   UNL     1       8.825  10.277  18.476  0.00  0.00    +0.000 C 
BRANCH   5   6
ATOM      6  C   UNL     1      10.226  10.761  18.087  0.00  0.00    +0.000 C 
BRANCH   6  10
ATOM      7  C   UNL     1      10.466  14.993  17.283  0.00  0.00    +0.000 A 
ATOM      8  C   UNL     1      11.537  14.140  16.977  0.00  0.00    +0.000 A 
ATOM      9  C   UNL     1      11.470  12.779  17.261  0.00  0.00    +0.000 A 
ATOM     10  C   UNL     1      10.348  12.248  17.900  0.00  0.00    +0.000 A 
ATOM     11  C   UNL     1       9.322  13.112  18.290  0.00  0.00    +0.000 A 
ATOM     12  C   UNL     1       9.369  14.484  17.996  0.00  0.00    +0.000 A 
BRANCH   7  14
ATOM     13  C   UNL     1      11.281  17.171  17.737  0.00  0.00    +0.000 C 
ATOM     14  O   UNL     1      10.491  16.311  16.914  0.00  0.00    +0.000 OA
ENDBRANCH   7  14
BRANCH  12  15
ATOM     15  O   UNL     1       8.253  15.134  18.450  0.00  0.00    +0.000 OA
ATOM     16  C   UNL     1       8.203  15.546  19.805  0.00  0.00    +0.000 C 
ENDBRANCH  12  15
ENDBRANCH   6  10
ENDBRANCH   5   6
ENDBRANCH   1   5
BRANCH   2  17
ATOM     17  C   UNL     1       8.104   6.529  18.662  0.00  0.00    +0.000 C 
BRANCH  17  18
ATOM     18  C   UNL     1       6.695   5.936  18.696  0.00  0.00    +0.000 C 
BRANCH  18  19
ATOM     19  N   UNL     1       6.460   5.125  17.482  0.00  0.00    +0.000 NA
ATOM     20  H   UNL     1       6.673   4.126  17.574  0.00  0.00    +0.000 HD
BRANCH  19  21
ATOM     21  S   UNL     1       4.946   5.250  16.742  0.00  0.00    +0.000 S 
ATOM     22  O   UNL     1       5.041   6.437  15.916  0.00  0.00    +0.000 OA
ATOM     23  O   UNL     1       4.584   3.981  16.161  0.00  0.00    +0.000 OA
BRANCH  21  24
ATOM     24  C   UNL     1       3.880   5.638  18.080  0.00  0.00    +0.000 A 
ATOM     25  C   UNL     1       3.269   6.916  18.143  0.00  0.00    +0.000 A 
ATOM     26  C   UNL     1       2.342   7.273  19.148  0.00  0.00    +0.000 A 
ATOM     27  C   UNL     1       1.949   6.398  20.173  0.00  0.00    +0.000 A 
ATOM     28  C   UNL     1       2.531   5.106  20.156  0.00  0.00    +0.000 A 
ATOM     29  N   UNL     1       2.281   4.131  21.041  0.00  0.00    +0.000 NA
ATOM     30  S   UNL     1       3.196   2.829  20.572  0.00  0.00    +0.000 S 
ATOM     31  N   UNL     1       3.985   3.461  19.254  0.00  0.00    +0.000 NA
ATOM     32  C   UNL     1       3.529   4.711  19.082  0.00  0.00    +0.000 A 
ENDBRANCH  21  24
ENDBRANCH  19  21
ENDBRANCH  18  19
ENDBRANCH  17  18
ENDBRANCH   2  17
TORSDOF 10
ENDMDL
MODEL 8
REMARK VINA RESULT:      -7.0      1.604      2.596
REMARK  Name = 
REMARK  12 active torsions:
REMARK  status: ('A' for Active; 'I' for Inactive)
REMARK    1  A    between atoms: C_1  and  O_2
REMARK    2  A    between atoms: O_2  and  C_3
REMARK    3  A    between atoms: C_6  and  C_7
REMARK    4  A    between atoms: C_7  and  C_8
REMARK    5  A    between atoms: C_8  and  N_9
REMARK    6  A    between atoms: C_10  and  C_12
REMARK    7  A    between atoms: C_12  and  C_13
REMARK    8  A    between atoms: C_13  and  N_14
REMARK    9  A    between atoms: N_14  and  S_15
REMARK   10  A    between atoms: S_15  and  C_18
REMARK   11  A    between atoms: C_28  and  O_29
REMARK   12  A    between atoms: O_29  and  C_30
REMARK                            x       y       z     vdW  Elec       q    Type
REMARK                         _______ _______ _______ _____ _____    ______ ____
ROOT
ATOM      1  N   UNL     1       2.227   5.227  21.052  0.00  0.00    +0.000 N 
ATOM      2  C   UNL     1       1.902   3.906  20.827  0.00  0.00    +0.000 C 
ATOM      3  O   UNL     1       0.828   3.536  20.365  0.00  0.00    +0.000 OA
ATOM      4  H   UNL     1       3.205   5.461  21.164  0.00  0.00    +0.000 HD
ENDROOT
BRANCH   1   5
ATOM      5  C   UNL     1       1.311   6.326  20.752  0.00  0.00    +0.000 C 
BRANCH   5   6
ATOM      6  C   UNL     1       1.910   7.715  20.998  0.00  0.00    +0.000 C 
BRANCH   6  10
ATOM      7  C   UNL     1      -0.291  10.744  18.854  0.00  0.00    +0.000 A 
ATOM      8  C   UNL     1       0.640   9.928  18.194  0.00  0.00    +0.000 A 
ATOM      9  C   UNL     1       1.370   8.969  18.891  0.00  0.00    +0.000 A 
ATOM     10  C   UNL     1       1.218   8.835  20.272  0.00  0.00    +0.000 A 
ATOM     11  C   UNL     1       0.361   9.710  20.944  0.00  0.00    +0.000 A 
ATOM     12  C   UNL     1      -0.393  10.672  20.252  0.00  0.00    +0.000 A 
BRANCH   7  14
ATOM     13  C   UNL     1      -2.358  11.119  17.760  0.00  0.00    +0.000 C 
ATOM     14  O   UNL     1      -1.079  11.617  18.153  0.00  0.00    +0.000 OA
ENDBRANCH   7  14
BRANCH  12  15
ATOM     15  O   UNL     1      -1.177  11.403  21.103  0.00  0.00    +0.000 OA
ATOM     16  C   UNL     1      -0.865  12.767  21.323  0.00  0.00    +0.000 C 
ENDBRANCH  12  15
ENDBRANCH   6  10
ENDBRANCH   5   6
ENDBRANCH   1   5
BRANCH   2  17
ATOM     17  C   UNL     1       2.971   2.917  21.225  0.00  0.00    +0.000 C 
BRANCH  17  18
ATOM     18  C   UNL     1       3.912   2.661  20.048  0.00  0.00    +0.000 C 
BRANCH  18  19
ATOM     19  N   UNL     1       4.126   3.914  19.292  0.00  0.00    +0.000 NA
ATOM     20  H   UNL     1       5.103   4.210  19.203  0.00  0.00    +0.000 HD
BRANCH  19  21
ATOM     21  S   UNL     1       3.425   4.028  17.758  0.00  0.00    +0.000 S 
ATOM     22  O   UNL     1       2.956   2.687  17.471  0.00  0.00    +0.000 OA
ATOM     23  O   UNL     1       2.514   5.145  17.725  0.00  0.00    +0.000 OA
BRANCH  21  24
ATOM     24  C   UNL     1       4.801   4.327  16.712  0.00  0.00    +0.000 A 
ATOM     25  C   UNL     1       4.924   3.615  15.493  0.00  0.00    +0.000 A 
ATOM     26  C   UNL     1       5.962   3.855  14.566  0.00  0.00    +0.000 A 
ATOM     27  C   UNL     1       6.965   4.816  14.772  0.00  0.00    +0.000 A 
ATOM     28  C   UNL     1       6.888   5.557  15.978  0.00  0.00    +0.000 A 
ATOM     29  N   UNL     1       7.744   6.519  16.353  0.00  0.00    +0.000 NA
ATOM     30  S   UNL     1       7.208   7.074  17.821  0.00  0.00    +0.000 S 
ATOM     31  N   UNL     1       5.895   6.088  18.067  0.00  0.00    +0.000 NA
ATOM     32  C   UNL     1       5.777   5.306  16.982  0.00  0.00    +0.000 A 
ENDBRANCH  21  24
ENDBRANCH  19  21
ENDBRANCH  18  19
ENDBRANCH  17  18
ENDBRANCH   2  17
TORSDOF 10
ENDMDL
MODEL 9
REMARK VINA RESULT:      -7.0      4.544      9.864
REMARK  Name = 
REMARK  12 active torsions:
REMARK  status: ('A' for Active; 'I' for Inactive)
REMARK    1  A    between atoms: C_1  and  O_2
REMARK    2  A    between atoms: O_2  and  C_3
REMARK    3  A    between atoms: C_6  and  C_7
REMARK    4  A    between atoms: C_7  and  C_8
REMARK    5  A    between atoms: C_8  and  N_9
REMARK    6  A    between atoms: C_10  and  C_12
REMARK    7  A    between atoms: C_12  and  C_13
REMARK    8  A    between atoms: C_13  and  N_14
REMARK    9  A    between atoms: N_14  and  S_15
REMARK   10  A    between atoms: S_15  and  C_18
REMARK   11  A    between atoms: C_28  and  O_29
REMARK   12  A    between atoms: O_29  and  C_30
REMARK                            x       y       z     vdW  Elec       q    Type
REMARK                         _______ _______ _______ _____ _____    ______ ____
ROOT
ATOM      1  N   UNL     1       2.358   5.983  17.989  0.00  0.00    +0.000 N 
ATOM      2  C   UNL     1       2.342   7.108  18.785  0.00  0.00    +0.000 C 
ATOM      3  O   UNL     1       2.409   7.080  20.009  0.00  0.00    +0.000 OA
ATOM      4  H   UNL     1       2.579   6.101  17.008  0.00  0.00    +0.000 HD
ENDROOT
BRANCH   1   5
ATOM      5  C   UNL     1       2.464   4.632  18.536  0.00  0.00    +0.000 C 
BRANCH   5   6
ATOM      6  C   UNL     1       3.881   4.252  18.978  0.00  0.00    +0.000 C 
BRANCH   6  10
ATOM      7  C   UNL     1       6.752   4.993  15.843  0.00  0.00    +0.000 A 
ATOM      8  C   UNL     1       5.716   4.064  15.666  0.00  0.00    +0.000 A 
ATOM      9  C   UNL     1       4.806   3.804  16.687  0.00  0.00    +0.000 A 
ATOM     10  C   UNL     1       4.938   4.437  17.925  0.00  0.00    +0.000 A 
ATOM     11  C   UNL     1       6.024   5.291  18.133  0.00  0.00    +0.000 A 
ATOM     12  C   UNL     1       6.940   5.573  17.107  0.00  0.00    +0.000 A 
BRANCH   7  14
ATOM     13  C   UNL     1       7.212   4.810  13.527  0.00  0.00    +0.000 C 
ATOM     14  O   UNL     1       7.585   5.320  14.807  0.00  0.00    +0.000 OA
ENDBRANCH   7  14
BRANCH  12  15
ATOM     15  O   UNL     1       7.908   6.448  17.524  0.00  0.00    +0.000 OA
ATOM     16  C   UNL     1       7.611   7.833  17.560  0.00  0.00    +0.000 C 
ENDBRANCH  12  15
ENDBRANCH   6  10
ENDBRANCH   5   6
ENDBRANCH   1   5
BRANCH   2  17
ATOM     17  C   UNL     1       2.202   8.411  18.034  0.00  0.00    +0.000 C 
BRANCH  17  18
ATOM     18  C   UNL     1       1.578   9.473  18.940  0.00  0.00    +0.000 C 
BRANCH  18  19
ATOM     19  N   UNL     1       0.628  10.301  18.166  0.00  0.00    +0.000 NA
ATOM     20  H   UNL     1       0.111   9.804  17.433  0.00  0.00    +0.000 HD
BRANCH  19  21
ATOM     21  S   UNL     1      -0.491  11.223  19.035  0.00  0.00    +0.000 S 
ATOM     22  O   UNL     1      -0.740  10.454  20.238  0.00  0.00    +0.000 OA
ATOM     23  O   UNL     1      -0.032  12.587  19.120  0.00  0.00    +0.000 OA
BRANCH  21  24
ATOM     24  C   UNL     1      -1.939  11.123  18.052  0.00  0.00    +0.000 A 
ATOM     25  C   UNL     1      -1.899  10.439  16.810  0.00  0.00    +0.000 A 
ATOM     26  C   UNL     1      -3.041  10.253  16.000  0.00  0.00    +0.000 A 
ATOM     27  C   UNL     1      -4.314  10.732  16.349  0.00  0.00    +0.000 A 
ATOM     28  C   UNL     1      -4.409  11.423  17.583  0.00  0.00    +0.000 A 
ATOM     29  N   UNL     1      -5.533  11.947  18.093  0.00  0.00    +0.000 NA
ATOM     30  S   UNL     1      -5.112  12.628  19.546  0.00  0.00    +0.000 S 
ATOM     31  N   UNL     1      -3.479  12.329  19.570  0.00  0.00    +0.000 NA
ATOM     32  C   UNL     1      -3.188  11.630  18.461  0.00  0.00    +0.000 A 
ENDBRANCH  21  24
ENDBRANCH  19  21
ENDBRANCH  18  19
ENDBRANCH  17  18
ENDBRANCH   2  17
TORSDOF 10
ENDMDL
