MODEL 1
REMARK VINA RESULT:      -6.6      0.000      0.000
REMARK  Name = 
REMARK  10 active torsions:
REMARK  status: ('A' for Active; 'I' for Inactive)
REMARK    1  A    between atoms: C_1  and  C_2
REMARK    2  A    between atoms: C_3  and  C_4
REMARK    3  A    between atoms: C_4  and  C_5
REMARK    4  A    between atoms: C_21  and  C_22
REMARK    5  A    between atoms: N_24  and  C_25
REMARK    6  A    between atoms: C_25  and  C_26
REMARK    7  A    between atoms: C_26  and  C_27
REMARK    8  A    between atoms: C_27  and  O_28
REMARK    9  A    between atoms: C_31  and  C_32
REMARK   10  A    between atoms: C_34  and  C_35
REMARK                            x       y       z     vdW  Elec       q    Type
REMARK                         _______ _______ _______ _____ _____    ______ ____
ROOT
ATOM      1  C   UNL     1      -2.489  12.280  22.641  0.00  0.00    +0.000 C 
ATOM      2  C   UNL     1      -1.434  13.348  22.794  0.00  0.00    +0.000 A 
ATOM      3  C   UNL     1      -1.504  14.307  23.808  0.00  0.00    +0.000 A 
ATOM      4  N   UNL     1      -0.587  15.294  23.874  0.00  0.00    +0.000 NA
ATOM      5  N   UNL     1       0.427  15.379  22.947  0.00  0.00    +0.000 NA
ATOM      6  C   UNL     1       0.584  14.459  21.971  0.00  0.00    +0.000 A 
ATOM      7  N   UNL     1       1.535  14.685  20.972  0.00  0.00    +0.000 N 
ATOM      8  C   UNL     1       1.981  16.097  20.849  0.00  0.00    +0.000 C 
ATOM      9  C   UNL     1       2.646  16.313  19.470  0.00  0.00    +0.000 C 
ATOM     10  N   UNL     1       3.636  15.273  19.115  0.00  0.00    +0.000 N 
ATOM     11  C   UNL     1       4.942  15.634  18.849  0.00  0.00    +0.000 A 
ATOM     12  C   UNL     1       5.747  14.871  17.982  0.00  0.00    +0.000 A 
ATOM     13  N   UNL     1       7.047  15.138  17.684  0.00  0.00    +0.000 NA
ATOM     14  C   UNL     1       7.540  16.238  18.307  0.00  0.00    +0.000 A 
ATOM     15  C   UNL     1       6.765  17.023  19.146  0.00  0.00    +0.000 A 
ATOM     16  N   UNL     1       5.461  16.742  19.420  0.00  0.00    +0.000 NA
ATOM     17  C   UNL     1       3.341  13.874  19.499  0.00  0.00    +0.000 C 
ATOM     18  C   UNL     1       2.427  13.261  18.434  0.00  0.00    +0.000 C 
ATOM     19  C   UNL     1       2.712  13.796  20.927  0.00  0.00    +0.000 C 
ATOM     20  C   UNL     1      -0.325  13.385  21.899  0.00  0.00    +0.000 A 
ATOM     21  C   UNL     1      -0.219  12.296  20.863  0.00  0.00    +0.000 C 
ENDROOT
BRANCH  14  22
ATOM     22  C   UNL     1       8.963  16.595  18.044  0.00  0.00    +0.000 C 
ATOM     23  O   UNL     1       9.487  17.563  18.578  0.00  0.00    +0.000 OA
ATOM     24  N   UNL     1       9.620  15.765  17.153  0.00  0.00    +0.000 N 
ATOM     25  H   UNL     1       9.077  15.010  16.741  0.00  0.00    +0.000 HD
BRANCH  24  26
ATOM     26  C   UNL     1      10.998  15.976  16.760  0.00  0.00    +0.000 C 
BRANCH  26  27
ATOM     27  C   UNL     1      11.912  14.808  17.127  0.00  0.00    +0.000 C 
BRANCH  27  28
ATOM     28  C   UNL     1      11.456  13.456  16.590  0.00  0.00    +0.000 C 
BRANCH  28  29
ATOM     29  O   UNL     1      10.423  12.911  17.400  0.00  0.00    +0.000 OA
ATOM     30  H   UNL     1      10.616  13.189  18.322  0.00  0.00    +0.000 HD
ENDBRANCH  28  29
ENDBRANCH  27  28
ENDBRANCH  26  27
ENDBRANCH  24  26
ENDBRANCH  14  22
BRANCH   3  31
ATOM     31  C   UNL     1      -2.508  14.287  24.941  0.00  0.00    +0.000 C 
BRANCH  31  32
ATOM     32  C   UNL     1      -3.678  15.215  24.695  0.00  0.00    +0.000 A 
ATOM     33  C   UNL     1      -4.772  14.772  23.933  0.00  0.00    +0.000 A 
ATOM     34  C   UNL     1      -5.795  15.650  23.579  0.00  0.00    +0.000 A 
ATOM     35  C   UNL     1      -5.751  16.975  24.003  0.00  0.00    +0.000 A 
ATOM     36  C   UNL     1      -4.704  17.411  24.813  0.00  0.00    +0.000 A 
ATOM     37  C   UNL     1      -3.675  16.535  25.164  0.00  0.00    +0.000 A 
ENDBRANCH  31  32
ENDBRANCH   3  31
TORSDOF 7
ENDMDL
MODEL 2
REMARK VINA RESULT:      -6.6      6.143      7.485
REMARK  Name = 
REMARK  10 active torsions:
REMARK  status: ('A' for Active; 'I' for Inactive)
REMARK    1  A    between atoms: C_1  and  C_2
REMARK    2  A    between atoms: C_3  and  C_4
REMARK    3  A    between atoms: C_4  and  C_5
REMARK    4  A    between atoms: C_21  and  C_22
REMARK    5  A    between atoms: N_24  and  C_25
REMARK    6  A    between atoms: C_25  and  C_26
REMARK    7  A    between atoms: C_26  and  C_27
REMARK    8  A    between atoms: C_27  and  O_28
REMARK    9  A    between atoms: C_31  and  C_32
REMARK   10  A    between atoms: C_34  and  C_35
REMARK                            x       y       z     vdW  Elec       q    Type
REMARK                         _______ _______ _______ _____ _____    ______ ____
ROOT
ATOM      1  C   UNL     1      -2.399  13.708  23.834  0.00  0.00    +0.000 C 
ATOM      2  C   UNL     1      -1.367  13.560  22.743  0.00  0.00    +0.000 A 
ATOM      3  C   UNL     1      -0.874  14.666  22.046  0.00  0.00    +0.000 A 
ATOM      4  N   UNL     1      -0.007  14.496  21.027  0.00  0.00    +0.000 NA
ATOM      5  N   UNL     1       0.400  13.236  20.649  0.00  0.00    +0.000 NA
ATOM      6  C   UNL     1       0.003  12.127  21.308  0.00  0.00    +0.000 A 
ATOM      7  N   UNL     1       0.326  10.873  20.782  0.00  0.00    +0.000 N 
ATOM      8  C   UNL     1       0.708  10.882  19.347  0.00  0.00    +0.000 C 
ATOM      9  C   UNL     1       0.591   9.453  18.770  0.00  0.00    +0.000 C 
ATOM     10  N   UNL     1       1.221   8.415  19.615  0.00  0.00    +0.000 N 
ATOM     11  C   UNL     1       2.227   7.625  19.094  0.00  0.00    +0.000 A 
ATOM     12  C   UNL     1       2.449   6.320  19.571  0.00  0.00    +0.000 A 
ATOM     13  N   UNL     1       3.429   5.483  19.135  0.00  0.00    +0.000 NA
ATOM     14  C   UNL     1       4.216   6.016  18.166  0.00  0.00    +0.000 A 
ATOM     15  C   UNL     1       4.006   7.289  17.658  0.00  0.00    +0.000 A 
ATOM     16  N   UNL     1       3.010   8.103  18.104  0.00  0.00    +0.000 NA
ATOM     17  C   UNL     1       1.101   8.550  21.085  0.00  0.00    +0.000 C 
ATOM     18  C   UNL     1      -0.251   7.976  21.517  0.00  0.00    +0.000 C 
ATOM     19  C   UNL     1       1.279  10.036  21.535  0.00  0.00    +0.000 C 
ATOM     20  C   UNL     1      -0.863  12.268  22.411  0.00  0.00    +0.000 A 
ATOM     21  C   UNL     1      -1.343  11.094  23.225  0.00  0.00    +0.000 C 
ENDROOT
BRANCH  14  22
ATOM     22  C   UNL     1       5.324   5.170  17.640  0.00  0.00    +0.000 C 
ATOM     23  O   UNL     1       5.631   4.114  18.175  0.00  0.00    +0.000 OA
ATOM     24  N   UNL     1       5.970   5.678  16.527  0.00  0.00    +0.000 N 
ATOM     25  H   UNL     1       5.656   6.583  16.185  0.00  0.00    +0.000 HD
BRANCH  24  26
ATOM     26  C   UNL     1       7.087   5.005  15.897  0.00  0.00    +0.000 C 
BRANCH  26  27
ATOM     27  C   UNL     1       6.922   4.851  14.386  0.00  0.00    +0.000 C 
BRANCH  27  28
ATOM     28  C   UNL     1       5.854   3.847  13.967  0.00  0.00    +0.000 C 
BRANCH  28  29
ATOM     29  O   UNL     1       6.170   3.263  12.711  0.00  0.00    +0.000 OA
ATOM     30  H   UNL     1       7.143   3.128  12.703  0.00  0.00    +0.000 HD
ENDBRANCH  28  29
ENDBRANCH  27  28
ENDBRANCH  26  27
ENDBRANCH  24  26
ENDBRANCH  14  22
BRANCH   3  31
ATOM     31  C   UNL     1      -1.165  16.107  22.407  0.00  0.00    +0.000 C 
BRANCH  31  32
ATOM     32  C   UNL     1      -2.337  16.672  21.632  0.00  0.00    +0.000 A 
ATOM     33  C   UNL     1      -2.169  17.053  20.291  0.00  0.00    +0.000 A 
ATOM     34  C   UNL     1      -3.193  17.700  19.601  0.00  0.00    +0.000 A 
ATOM     35  C   UNL     1      -4.407  17.951  20.235  0.00  0.00    +0.000 A 
ATOM     36  C   UNL     1      -4.609  17.521  21.545  0.00  0.00    +0.000 A 
ATOM     37  C   UNL     1      -3.582  16.878  22.241  0.00  0.00    +0.000 A 
ENDBRANCH  31  32
ENDBRANCH   3  31
TORSDOF 7
ENDMDL
MODEL 3
REMARK VINA RESULT:      -6.6      6.308     12.193
REMARK  Name = 
REMARK  10 active torsions:
REMARK  status: ('A' for Active; 'I' for Inactive)
REMARK    1  A    between atoms: C_1  and  C_2
REMARK    2  A    between atoms: C_3  and  C_4
REMARK    3  A    between atoms: C_4  and  C_5
REMARK    4  A    between atoms: C_21  and  C_22
REMARK    5  A    between atoms: N_24  and  C_25
REMARK    6  A    between atoms: C_25  and  C_26
REMARK    7  A    between atoms: C_26  and  C_27
REMARK    8  A    between atoms: C_27  and  O_28
REMARK    9  A    between atoms: C_31  and  C_32
REMARK   10  A    between atoms: C_34  and  C_35
REMARK                            x       y       z     vdW  Elec       q    Type
REMARK                         _______ _______ _______ _____ _____    ______ ____
ROOT
ATOM      1  C   UNL     1       3.294   5.489  19.664  0.00  0.00    +0.000 C 
ATOM      2  C   UNL     1       2.807   6.798  19.092  0.00  0.00    +0.000 A 
ATOM      3  C   UNL     1       3.193   7.230  17.821  0.00  0.00    +0.000 A 
ATOM      4  N   UNL     1       2.802   8.438  17.366  0.00  0.00    +0.000 NA
ATOM      5  N   UNL     1       2.026   9.268  18.144  0.00  0.00    +0.000 NA
ATOM      6  C   UNL     1       1.577   8.895  19.361  0.00  0.00    +0.000 A 
ATOM      7  N   UNL     1       0.926   9.838  20.163  0.00  0.00    +0.000 N 
ATOM      8  C   UNL     1       1.162  11.252  19.773  0.00  0.00    +0.000 C 
ATOM      9  C   UNL     1       0.801  12.183  20.952  0.00  0.00    +0.000 C 
ATOM     10  N   UNL     1      -0.506  11.879  21.574  0.00  0.00    +0.000 N 
ATOM     11  C   UNL     1      -1.487  12.850  21.619  0.00  0.00    +0.000 A 
ATOM     12  C   UNL     1      -2.455  12.861  22.640  0.00  0.00    +0.000 A 
ATOM     13  N   UNL     1      -3.468  13.762  22.748  0.00  0.00    +0.000 NA
ATOM     14  C   UNL     1      -3.485  14.692  21.760  0.00  0.00    +0.000 A 
ATOM     15  C   UNL     1      -2.530  14.722  20.755  0.00  0.00    +0.000 A 
ATOM     16  N   UNL     1      -1.518  13.815  20.675  0.00  0.00    +0.000 NA
ATOM     17  C   UNL     1      -0.897  10.456  21.706  0.00  0.00    +0.000 C 
ATOM     18  C   UNL     1      -0.247   9.889  22.971  0.00  0.00    +0.000 C 
ATOM     19  C   UNL     1      -0.511   9.640  20.431  0.00  0.00    +0.000 C 
ATOM     20  C   UNL     1       1.922   7.620  19.849  0.00  0.00    +0.000 A 
ATOM     21  C   UNL     1       1.450   7.103  21.184  0.00  0.00    +0.000 C 
ENDROOT
BRANCH  14  22
ATOM     22  C   UNL     1      -4.571  15.711  21.795  0.00  0.00    +0.000 C 
ATOM     23  O   UNL     1      -4.966  16.260  20.776  0.00  0.00    +0.000 OA
ATOM     24  N   UNL     1      -5.073  15.988  23.055  0.00  0.00    +0.000 N 
ATOM     25  H   UNL     1      -4.647  15.500  23.838  0.00  0.00    +0.000 HD
BRANCH  24  26
ATOM     26  C   UNL     1      -6.113  16.970  23.282  0.00  0.00    +0.000 C 
BRANCH  26  27
ATOM     27  C   UNL     1      -5.639  18.167  24.105  0.00  0.00    +0.000 C 
BRANCH  27  28
ATOM     28  C   UNL     1      -4.958  17.800  25.418  0.00  0.00    +0.000 C 
BRANCH  28  29
ATOM     29  O   UNL     1      -3.608  17.414  25.200  0.00  0.00    +0.000 OA
ATOM     30  H   UNL     1      -3.139  17.547  26.053  0.00  0.00    +0.000 HD
ENDBRANCH  28  29
ENDBRANCH  27  28
ENDBRANCH  26  27
ENDBRANCH  24  26
ENDBRANCH  14  22
BRANCH   3  31
ATOM     31  C   UNL     1       3.968   6.391  16.827  0.00  0.00    +0.000 C 
BRANCH  31  32
ATOM     32  C   UNL     1       5.400   6.159  17.258  0.00  0.00    +0.000 A 
ATOM     33  C   UNL     1       5.853   4.852  17.502  0.00  0.00    +0.000 A 
ATOM     34  C   UNL     1       7.123   4.626  18.030  0.00  0.00    +0.000 A 
ATOM     35  C   UNL     1       7.966   5.701  18.296  0.00  0.00    +0.000 A 
ATOM     36  C   UNL     1       7.553   6.999  17.998  0.00  0.00    +0.000 A 
ATOM     37  C   UNL     1       6.279   7.229  17.475  0.00  0.00    +0.000 A 
ENDBRANCH  31  32
ENDBRANCH   3  31
TORSDOF 7
ENDMDL
MODEL 4
REMARK VINA RESULT:      -6.5      6.038      7.450
REMARK  Name = 
REMARK  10 active torsions:
REMARK  status: ('A' for Active; 'I' for Inactive)
REMARK    1  A    between atoms: C_1  and  C_2
REMARK    2  A    between atoms: C_3  and  C_4
REMARK    3  A    between atoms: C_4  and  C_5
REMARK    4  A    between atoms: C_21  and  C_22
REMARK    5  A    between atoms: N_24  and  C_25
REMARK    6  A    between atoms: C_25  and  C_26
REMARK    7  A    between atoms: C_26  and  C_27
REMARK    8  A    between atoms: C_27  and  O_28
REMARK    9  A    between atoms: C_31  and  C_32
REMARK   10  A    between atoms: C_34  and  C_35
REMARK                            x       y       z     vdW  Elec       q    Type
REMARK                         _______ _______ _______ _____ _____    ______ ____
ROOT
ATOM      1  C   UNL     1      -2.663  14.176  23.670  0.00  0.00    +0.000 C 
ATOM      2  C   UNL     1      -1.727  14.011  22.499  0.00  0.00    +0.000 A 
ATOM      3  C   UNL     1      -1.396  15.086  21.668  0.00  0.00    +0.000 A 
ATOM      4  N   UNL     1      -0.616  14.892  20.585  0.00  0.00    +0.000 NA
ATOM      5  N   UNL     1      -0.139  13.639  20.273  0.00  0.00    +0.000 NA
ATOM      6  C   UNL     1      -0.378  12.566  21.058  0.00  0.00    +0.000 A 
ATOM      7  N   UNL     1       0.002  11.298  20.607  0.00  0.00    +0.000 N 
ATOM      8  C   UNL     1       0.248  11.208  19.145  0.00  0.00    +0.000 C 
ATOM      9  C   UNL     1       0.202   9.728  18.701  0.00  0.00    +0.000 C 
ATOM     10  N   UNL     1       0.993   8.822  19.562  0.00  0.00    +0.000 N 
ATOM     11  C   UNL     1       2.010   8.069  19.011  0.00  0.00    +0.000 A 
ATOM     12  C   UNL     1       2.386   6.832  19.568  0.00  0.00    +0.000 A 
ATOM     13  N   UNL     1       3.390   6.039  19.108  0.00  0.00    +0.000 NA
ATOM     14  C   UNL     1       4.036   6.541  18.025  0.00  0.00    +0.000 A 
ATOM     15  C   UNL     1       3.673   7.744  17.438  0.00  0.00    +0.000 A 
ATOM     16  N   UNL     1       2.655   8.515  17.912  0.00  0.00    +0.000 NA
ATOM     17  C   UNL     1       0.997   9.079  21.020  0.00  0.00    +0.000 C 
ATOM     18  C   UNL     1      -0.256   8.443  21.629  0.00  0.00    +0.000 C 
ATOM     19  C   UNL     1       1.088  10.608  21.328  0.00  0.00    +0.000 C 
ATOM     20  C   UNL     1      -1.147  12.738  22.225  0.00  0.00    +0.000 A 
ATOM     21  C   UNL     1      -1.448  11.608  23.176  0.00  0.00    +0.000 C 
ENDROOT
BRANCH  14  22
ATOM     22  C   UNL     1       5.159   5.740  17.463  0.00  0.00    +0.000 C 
ATOM     23  O   UNL     1       6.315   5.921  17.820  0.00  0.00    +0.000 OA
ATOM     24  N   UNL     1       4.792   4.804  16.512  0.00  0.00    +0.000 N 
ATOM     25  H   UNL     1       3.807   4.763  16.264  0.00  0.00    +0.000 HD
BRANCH  24  26
ATOM     26  C   UNL     1       5.754   3.955  15.840  0.00  0.00    +0.000 C 
BRANCH  26  27
ATOM     27  C   UNL     1       6.507   4.671  14.720  0.00  0.00    +0.000 C 
BRANCH  27  28
ATOM     28  C   UNL     1       6.478   3.949  13.378  0.00  0.00    +0.000 C 
BRANCH  28  29
ATOM     29  O   UNL     1       5.142   3.694  12.967  0.00  0.00    +0.000 OA
ATOM     30  H   UNL     1       4.560   4.178  13.593  0.00  0.00    +0.000 HD
ENDBRANCH  28  29
ENDBRANCH  27  28
ENDBRANCH  26  27
ENDBRANCH  24  26
ENDBRANCH  14  22
BRANCH   3  31
ATOM     31  C   UNL     1      -1.776  16.527  21.937  0.00  0.00    +0.000 C 
BRANCH  31  32
ATOM     32  C   UNL     1      -2.809  17.045  20.959  0.00  0.00    +0.000 A 
ATOM     33  C   UNL     1      -4.114  16.527  20.983  0.00  0.00    +0.000 A 
ATOM     34  C   UNL     1      -5.041  16.889  20.007  0.00  0.00    +0.000 A 
ATOM     35  C   UNL     1      -4.683  17.792  19.009  0.00  0.00    +0.000 A 
ATOM     36  C   UNL     1      -3.411  18.362  19.012  0.00  0.00    +0.000 A 
ATOM     37  C   UNL     1      -2.478  17.996  19.985  0.00  0.00    +0.000 A 
ENDBRANCH  31  32
ENDBRANCH   3  31
TORSDOF 7
ENDMDL
MODEL 5
REMARK VINA RESULT:      -6.5      5.874      7.473
REMARK  Name = 
REMARK  10 active torsions:
REMARK  status: ('A' for Active; 'I' for Inactive)
REMARK    1  A    between atoms: C_1  and  C_2
REMARK    2  A    between atoms: C_3  and  C_4
REMARK    3  A    between atoms: C_4  and  C_5
REMARK    4  A    between atoms: C_21  and  C_22
REMARK    5  A    between atoms: N_24  and  C_25
REMARK    6  A    between atoms: C_25  and  C_26
REMARK    7  A    between atoms: C_26  and  C_27
REMARK    8  A    between atoms: C_27  and  O_28
REMARK    9  A    between atoms: C_31  and  C_32
REMARK   10  A    between atoms: C_34  and  C_35
REMARK                            x       y       z     vdW  Elec       q    Type
REMARK                         _______ _______ _______ _____ _____    ______ ____
ROOT
ATOM      1  C   UNL     1      -2.587  13.688  23.886  0.00  0.00    +0.000 C 
ATOM      2  C   UNL     1      -1.548  13.608  22.795  0.00  0.00    +0.000 A 
ATOM      3  C   UNL     1      -1.067  14.753  22.156  0.00  0.00    +0.000 A 
ATOM      4  N   UNL     1      -0.194  14.645  21.134  0.00  0.00    +0.000 NA
ATOM      5  N   UNL     1       0.233  13.411  20.697  0.00  0.00    +0.000 NA
ATOM      6  C   UNL     1      -0.153  12.266  21.299  0.00  0.00    +0.000 A 
ATOM      7  N   UNL     1       0.190  11.043  20.715  0.00  0.00    +0.000 N 
ATOM      8  C   UNL     1       0.579  11.127  19.283  0.00  0.00    +0.000 C 
ATOM      9  C   UNL     1       0.485   9.726  18.637  0.00  0.00    +0.000 C 
ATOM     10  N   UNL     1       1.124   8.657  19.433  0.00  0.00    +0.000 N 
ATOM     11  C   UNL     1       2.143   7.907  18.880  0.00  0.00    +0.000 A 
ATOM     12  C   UNL     1       2.381   6.583  19.294  0.00  0.00    +0.000 A 
ATOM     13  N   UNL     1       3.374   5.782  18.823  0.00  0.00    +0.000 NA
ATOM     14  C   UNL     1       4.158   6.372  17.885  0.00  0.00    +0.000 A 
ATOM     15  C   UNL     1       3.934   7.665  17.439  0.00  0.00    +0.000 A 
ATOM     16  N   UNL     1       2.925   8.443  17.919  0.00  0.00    +0.000 NA
ATOM     17  C   UNL     1       0.995   8.718  20.907  0.00  0.00    +0.000 C 
ATOM     18  C   UNL     1      -0.351   8.106  21.304  0.00  0.00    +0.000 C 
ATOM     19  C   UNL     1       1.151  10.182  21.431  0.00  0.00    +0.000 C 
ATOM     20  C   UNL     1      -1.025  12.341  22.403  0.00  0.00    +0.000 A 
ATOM     21  C   UNL     1      -1.493  11.122  23.156  0.00  0.00    +0.000 C 
ENDROOT
BRANCH  14  22
ATOM     22  C   UNL     1       5.280   5.568  17.324  0.00  0.00    +0.000 C 
ATOM     23  O   UNL     1       6.447   5.838  17.573  0.00  0.00    +0.000 OA
ATOM     24  N   UNL     1       4.897   4.521  16.504  0.00  0.00    +0.000 N 
ATOM     25  H   UNL     1       3.901   4.409  16.336  0.00  0.00    +0.000 HD
BRANCH  24  26
ATOM     26  C   UNL     1       5.853   3.651  15.851  0.00  0.00    +0.000 C 
BRANCH  26  27
ATOM     27  C   UNL     1       6.024   3.955  14.364  0.00  0.00    +0.000 C 
BRANCH  27  28
ATOM     28  C   UNL     1       6.706   5.286  14.066  0.00  0.00    +0.000 C 
BRANCH  28  29
ATOM     29  O   UNL     1       7.865   5.454  14.870  0.00  0.00    +0.000 OA
ATOM     30  H   UNL     1       7.909   6.408  15.100  0.00  0.00    +0.000 HD
ENDBRANCH  28  29
ENDBRANCH  27  28
ENDBRANCH  26  27
ENDBRANCH  24  26
ENDBRANCH  14  22
BRANCH   3  31
ATOM     31  C   UNL     1      -1.380  16.171  22.585  0.00  0.00    +0.000 C 
BRANCH  31  32
ATOM     32  C   UNL     1      -0.464  16.657  23.688  0.00  0.00    +0.000 A 
ATOM     33  C   UNL     1       0.848  17.052  23.383  0.00  0.00    +0.000 A 
ATOM     34  C   UNL     1       1.749  17.372  24.397  0.00  0.00    +0.000 A 
ATOM     35  C   UNL     1       1.343  17.326  25.728  0.00  0.00    +0.000 A 
ATOM     36  C   UNL     1       0.024  16.997  26.041  0.00  0.00    +0.000 A 
ATOM     37  C   UNL     1      -0.879  16.671  25.027  0.00  0.00    +0.000 A 
ENDBRANCH  31  32
ENDBRANCH   3  31
TORSDOF 7
ENDMDL
MODEL 6
REMARK VINA RESULT:      -6.5      6.114      7.082
REMARK  Name = 
REMARK  10 active torsions:
REMARK  status: ('A' for Active; 'I' for Inactive)
REMARK    1  A    between atoms: C_1  and  C_2
REMARK    2  A    between atoms: C_3  and  C_4
REMARK    3  A    between atoms: C_4  and  C_5
REMARK    4  A    between atoms: C_21  and  C_22
REMARK    5  A    between atoms: N_24  and  C_25
REMARK    6  A    between atoms: C_25  and  C_26
REMARK    7  A    between atoms: C_26  and  C_27
REMARK    8  A    between atoms: C_27  and  O_28
REMARK    9  A    between atoms: C_31  and  C_32
REMARK   10  A    between atoms: C_34  and  C_35
REMARK                            x       y       z     vdW  Elec       q    Type
REMARK                         _______ _______ _______ _____ _____    ______ ____
ROOT
ATOM      1  C   UNL     1      -3.307  14.072  23.909  0.00  0.00    +0.000 C 
ATOM      2  C   UNL     1      -2.496  14.012  22.638  0.00  0.00    +0.000 A 
ATOM      3  C   UNL     1      -2.417  15.102  21.767  0.00  0.00    +0.000 A 
ATOM      4  N   UNL     1      -1.745  14.994  20.602  0.00  0.00    +0.000 NA
ATOM      5  N   UNL     1      -1.133  13.812  20.247  0.00  0.00    +0.000 NA
ATOM      6  C   UNL     1      -1.127  12.736  21.062  0.00  0.00    +0.000 A 
ATOM      7  N   UNL     1      -0.624  11.523  20.581  0.00  0.00    +0.000 N 
ATOM      8  C   UNL     1      -0.535  11.433  19.101  0.00  0.00    +0.000 C 
ATOM      9  C   UNL     1      -0.420   9.951  18.677  0.00  0.00    +0.000 C 
ATOM     10  N   UNL     1       0.584   9.185  19.448  0.00  0.00    +0.000 N 
ATOM     11  C   UNL     1       1.629   8.570  18.789  0.00  0.00    +0.000 A 
ATOM     12  C   UNL     1       2.238   7.412  19.309  0.00  0.00    +0.000 A 
ATOM     13  N   UNL     1       3.285   6.756  18.742  0.00  0.00    +0.000 NA
ATOM     14  C   UNL     1       3.727   7.318  17.589  0.00  0.00    +0.000 A 
ATOM     15  C   UNL     1       3.132   8.443  17.038  0.00  0.00    +0.000 A 
ATOM     16  N   UNL     1       2.076   9.075  17.620  0.00  0.00    +0.000 NA
ATOM     17  C   UNL     1       0.717   9.476  20.894  0.00  0.00    +0.000 C 
ATOM     18  C   UNL     1      -0.356   8.686  21.649  0.00  0.00    +0.000 C 
ATOM     19  C   UNL     1       0.623  11.010  21.177  0.00  0.00    +0.000 C 
ATOM     20  C   UNL     1      -1.775  12.826  22.309  0.00  0.00    +0.000 A 
ATOM     21  C   UNL     1      -1.803  11.689  23.298  0.00  0.00    +0.000 C 
ENDROOT
BRANCH  14  22
ATOM     22  C   UNL     1       4.882   6.668  16.907  0.00  0.00    +0.000 C 
ATOM     23  O   UNL     1       5.230   7.002  15.783  0.00  0.00    +0.000 OA
ATOM     24  N   UNL     1       5.502   5.667  17.633  0.00  0.00    +0.000 N 
ATOM     25  H   UNL     1       5.107   5.447  18.544  0.00  0.00    +0.000 HD
BRANCH  24  26
ATOM     26  C   UNL     1       6.624   4.910  17.118  0.00  0.00    +0.000 C 
BRANCH  26  27
ATOM     27  C   UNL     1       6.228   3.920  16.023  0.00  0.00    +0.000 C 
BRANCH  27  28
ATOM     28  C   UNL     1       6.807   4.234  14.649  0.00  0.00    +0.000 C 
BRANCH  28  29
ATOM     29  O   UNL     1       7.760   5.285  14.727  0.00  0.00    +0.000 OA
ATOM     30  H   UNL     1       7.247   6.122  14.785  0.00  0.00    +0.000 HD
ENDBRANCH  28  29
ENDBRANCH  27  28
ENDBRANCH  26  27
ENDBRANCH  24  26
ENDBRANCH  14  22
BRANCH   3  31
ATOM     31  C   UNL     1      -2.965  16.481  22.066  0.00  0.00    +0.000 C 
BRANCH  31  32
ATOM     32  C   UNL     1      -3.831  17.015  20.945  0.00  0.00    +0.000 A 
ATOM     33  C   UNL     1      -5.079  16.426  20.686  0.00  0.00    +0.000 A 
ATOM     34  C   UNL     1      -5.831  16.810  19.577  0.00  0.00    +0.000 A 
ATOM     35  C   UNL     1      -5.357  17.806  18.727  0.00  0.00    +0.000 A 
ATOM     36  C   UNL     1      -4.150  18.443  19.009  0.00  0.00    +0.000 A 
ATOM     37  C   UNL     1      -3.392  18.056  20.116  0.00  0.00    +0.000 A 
ENDBRANCH  31  32
ENDBRANCH   3  31
TORSDOF 7
ENDMDL
MODEL 7
REMARK VINA RESULT:      -6.4      6.251      8.302
REMARK  Name = 
REMARK  10 active torsions:
REMARK  status: ('A' for Active; 'I' for Inactive)
REMARK    1  A    between atoms: C_1  and  C_2
REMARK    2  A    between atoms: C_3  and  C_4
REMARK    3  A    between atoms: C_4  and  C_5
REMARK    4  A    between atoms: C_21  and  C_22
REMARK    5  A    between atoms: N_24  and  C_25
REMARK    6  A    between atoms: C_25  and  C_26
REMARK    7  A    between atoms: C_26  and  C_27
REMARK    8  A    between atoms: C_27  and  O_28
REMARK    9  A    between atoms: C_31  and  C_32
REMARK   10  A    between atoms: C_34  and  C_35
REMARK                            x       y       z     vdW  Elec       q    Type
REMARK                         _______ _______ _______ _____ _____    ______ ____
ROOT
ATOM      1  C   UNL     1      -2.520  15.897  21.287  0.00  0.00    +0.000 C 
ATOM      2  C   UNL     1      -2.387  14.468  21.753  0.00  0.00    +0.000 A 
ATOM      3  C   UNL     1      -3.044  14.005  22.896  0.00  0.00    +0.000 A 
ATOM      4  N   UNL     1      -2.847  12.743  23.329  0.00  0.00    +0.000 NA
ATOM      5  N   UNL     1      -1.994  11.893  22.663  0.00  0.00    +0.000 NA
ATOM      6  C   UNL     1      -1.365  12.257  21.525  0.00  0.00    +0.000 A 
ATOM      7  N   UNL     1      -0.396  11.406  20.984  0.00  0.00    +0.000 N 
ATOM      8  C   UNL     1       0.139  10.394  21.931  0.00  0.00    +0.000 C 
ATOM      9  C   UNL     1       1.479   9.840  21.396  0.00  0.00    +0.000 C 
ATOM     10  N   UNL     1       1.439   9.454  19.968  0.00  0.00    +0.000 N 
ATOM     11  C   UNL     1       1.735   8.157  19.601  0.00  0.00    +0.000 A 
ATOM     12  C   UNL     1       2.277   7.863  18.335  0.00  0.00    +0.000 A 
ATOM     13  N   UNL     1       2.575   6.617  17.881  0.00  0.00    +0.000 NA
ATOM     14  C   UNL     1       2.302   5.628  18.770  0.00  0.00    +0.000 A 
ATOM     15  C   UNL     1       1.792   5.887  20.033  0.00  0.00    +0.000 A 
ATOM     16  N   UNL     1       1.513   7.147  20.469  0.00  0.00    +0.000 NA
ATOM     17  C   UNL     1       0.653  10.302  19.043  0.00  0.00    +0.000 C 
ATOM     18  C   UNL     1       1.519  11.492  18.620  0.00  0.00    +0.000 C 
ATOM     19  C   UNL     1      -0.693  10.758  19.693  0.00  0.00    +0.000 C 
ATOM     20  C   UNL     1      -1.584  13.550  21.013  0.00  0.00    +0.000 A 
ATOM     21  C   UNL     1      -0.947  14.041  19.738  0.00  0.00    +0.000 C 
ENDROOT
BRANCH  14  22
ATOM     22  C   UNL     1       2.588   4.228  18.348  0.00  0.00    +0.000 C 
ATOM     23  O   UNL     1       3.178   3.983  17.305  0.00  0.00    +0.000 OA
ATOM     24  N   UNL     1       2.125   3.250  19.211  0.00  0.00    +0.000 N 
ATOM     25  H   UNL     1       1.615   3.566  20.032  0.00  0.00    +0.000 HD
BRANCH  24  26
ATOM     26  C   UNL     1       2.289   1.836  18.949  0.00  0.00    +0.000 C 
BRANCH  26  27
ATOM     27  C   UNL     1       3.747   1.381  18.997  0.00  0.00    +0.000 C 
BRANCH  27  28
ATOM     28  C   UNL     1       4.588   2.071  20.065  0.00  0.00    +0.000 C 
BRANCH  28  29
ATOM     29  O   UNL     1       5.392   3.095  19.496  0.00  0.00    +0.000 OA
ATOM     30  H   UNL     1       6.326   2.825  19.636  0.00  0.00    +0.000 HD
ENDBRANCH  28  29
ENDBRANCH  27  28
ENDBRANCH  26  27
ENDBRANCH  24  26
ENDBRANCH  14  22
BRANCH   3  31
ATOM     31  C   UNL     1      -4.073  14.798  23.674  0.00  0.00    +0.000 C 
BRANCH  31  32
ATOM     32  C   UNL     1      -3.443  15.853  24.558  0.00  0.00    +0.000 A 
ATOM     33  C   UNL     1      -3.987  17.148  24.596  0.00  0.00    +0.000 A 
ATOM     34  C   UNL     1      -3.345  18.169  25.294  0.00  0.00    +0.000 A 
ATOM     35  C   UNL     1      -2.165  17.904  25.984  0.00  0.00    +0.000 A 
ATOM     36  C   UNL     1      -1.650  16.609  26.008  0.00  0.00    +0.000 A 
ATOM     37  C   UNL     1      -2.288  15.585  25.304  0.00  0.00    +0.000 A 
ENDBRANCH  31  32
ENDBRANCH   3  31
TORSDOF 7
ENDMDL
MODEL 8
REMARK VINA RESULT:      -6.3      6.439     10.998
REMARK  Name = 
REMARK  10 active torsions:
REMARK  status: ('A' for Active; 'I' for Inactive)
REMARK    1  A    between atoms: C_1  and  C_2
REMARK    2  A    between atoms: C_3  and  C_4
REMARK    3  A    between atoms: C_4  and  C_5
REMARK    4  A    between atoms: C_21  and  C_22
REMARK    5  A    between atoms: N_24  and  C_25
REMARK    6  A    between atoms: C_25  and  C_26
REMARK    7  A    between atoms: C_26  and  C_27
REMARK    8  A    between atoms: C_27  and  O_28
REMARK    9  A    between atoms: C_31  and  C_32
REMARK   10  A    between atoms: C_34  and  C_35
REMARK                            x       y       z     vdW  Elec       q    Type
REMARK                         _______ _______ _______ _____ _____    ______ ____
ROOT
ATOM      1  C   UNL     1       3.300   7.580  17.157  0.00  0.00    +0.000 C 
ATOM      2  C   UNL     1       2.613   7.898  18.462  0.00  0.00    +0.000 A 
ATOM      3  C   UNL     1       2.573   6.977  19.513  0.00  0.00    +0.000 A 
ATOM      4  N   UNL     1       1.887   7.261  20.639  0.00  0.00    +0.000 NA
ATOM      5  N   UNL     1       1.210   8.453  20.773  0.00  0.00    +0.000 NA
ATOM      6  C   UNL     1       1.247   9.407  19.819  0.00  0.00    +0.000 A 
ATOM      7  N   UNL     1       0.417  10.525  19.946  0.00  0.00    +0.000 N 
ATOM      8  C   UNL     1      -0.715  10.353  20.892  0.00  0.00    +0.000 C 
ATOM      9  C   UNL     1      -1.792  11.427  20.615  0.00  0.00    +0.000 C 
ATOM     10  N   UNL     1      -1.249  12.795  20.477  0.00  0.00    +0.000 N 
ATOM     11  C   UNL     1      -1.688  13.795  21.322  0.00  0.00    +0.000 A 
ATOM     12  C   UNL     1      -1.693  15.143  20.916  0.00  0.00    +0.000 A 
ATOM     13  N   UNL     1      -2.084  16.192  21.688  0.00  0.00    +0.000 NA
ATOM     14  C   UNL     1      -2.486  15.837  22.935  0.00  0.00    +0.000 A 
ATOM     15  C   UNL     1      -2.516  14.516  23.356  0.00  0.00    +0.000 A 
ATOM     16  N   UNL     1      -2.130  13.482  22.558  0.00  0.00    +0.000 NA
ATOM     17  C   UNL     1       0.048  12.959  19.782  0.00  0.00    +0.000 C 
ATOM     18  C   UNL     1      -0.209  12.990  18.273  0.00  0.00    +0.000 C 
ATOM     19  C   UNL     1       1.055  11.834  20.182  0.00  0.00    +0.000 C 
ATOM     20  C   UNL     1       1.994   9.168  18.649  0.00  0.00    +0.000 A 
ATOM     21  C   UNL     1       2.115  10.181  17.538  0.00  0.00    +0.000 C 
ENDROOT
BRANCH  14  22
ATOM     22  C   UNL     1      -2.919  16.928  23.852  0.00  0.00    +0.000 C 
ATOM     23  O   UNL     1      -4.047  17.397  23.799  0.00  0.00    +0.000 OA
ATOM     24  N   UNL     1      -1.951  17.365  24.740  0.00  0.00    +0.000 N 
ATOM     25  H   UNL     1      -1.035  16.930  24.673  0.00  0.00    +0.000 HD
BRANCH  24  26
ATOM     26  C   UNL     1      -2.187  18.436  25.686  0.00  0.00    +0.000 C 
BRANCH  26  27
ATOM     27  C   UNL     1      -1.066  18.586  26.714  0.00  0.00    +0.000 C 
BRANCH  27  28
ATOM     28  C   UNL     1      -0.132  17.385  26.809  0.00  0.00    +0.000 C 
BRANCH  28  29
ATOM     29  O   UNL     1      -0.827  16.235  27.269  0.00  0.00    +0.000 OA
ATOM     30  H   UNL     1      -0.187  15.720  27.809  0.00  0.00    +0.000 HD
ENDBRANCH  28  29
ENDBRANCH  27  28
ENDBRANCH  26  27
ENDBRANCH  24  26
ENDBRANCH  14  22
BRANCH   3  31
ATOM     31  C   UNL     1       3.339   5.672  19.539  0.00  0.00    +0.000 C 
BRANCH  31  32
ATOM     32  C   UNL     1       2.426   4.467  19.630  0.00  0.00    +0.000 A 
ATOM     33  C   UNL     1       1.721   4.038  18.493  0.00  0.00    +0.000 A 
ATOM     34  C   UNL     1       0.774   3.020  18.585  0.00  0.00    +0.000 A 
ATOM     35  C   UNL     1       0.537   2.400  19.809  0.00  0.00    +0.000 A 
ATOM     36  C   UNL     1       1.276   2.772  20.931  0.00  0.00    +0.000 A 
ATOM     37  C   UNL     1       2.221   3.796  20.843  0.00  0.00    +0.000 A 
ENDBRANCH  31  32
ENDBRANCH   3  31
TORSDOF 7
ENDMDL
MODEL 9
REMARK VINA RESULT:      -6.3      6.616     11.687
REMARK  Name = 
REMARK  10 active torsions:
REMARK  status: ('A' for Active; 'I' for Inactive)
REMARK    1  A    between atoms: C_1  and  C_2
REMARK    2  A    between atoms: C_3  and  C_4
REMARK    3  A    between atoms: C_4  and  C_5
REMARK    4  A    between atoms: C_21  and  C_22
REMARK    5  A    between atoms: N_24  and  C_25
REMARK    6  A    between atoms: C_25  and  C_26
REMARK    7  A    between atoms: C_26  and  C_27
REMARK    8  A    between atoms: C_27  and  O_28
REMARK    9  A    between atoms: C_31  and  C_32
REMARK   10  A    between atoms: C_34  and  C_35
REMARK                            x       y       z     vdW  Elec       q    Type
REMARK                         _______ _______ _______ _____ _____    ______ ____
ROOT
ATOM      1  C   UNL     1       2.292   5.166  20.311  0.00  0.00    +0.000 C 
ATOM      2  C   UNL     1       2.192   6.482  19.580  0.00  0.00    +0.000 A 
ATOM      3  C   UNL     1       2.805   6.680  18.340  0.00  0.00    +0.000 A 
ATOM      4  N   UNL     1       2.761   7.890  17.746  0.00  0.00    +0.000 NA
ATOM      5  N   UNL     1       2.122   8.950  18.348  0.00  0.00    +0.000 NA
ATOM      6  C   UNL     1       1.467   8.818  19.522  0.00  0.00    +0.000 A 
ATOM      7  N   UNL     1       0.972   9.962  20.155  0.00  0.00    +0.000 N 
ATOM      8  C   UNL     1       1.575  11.238  19.690  0.00  0.00    +0.000 C 
ATOM      9  C   UNL     1       1.315  12.346  20.736  0.00  0.00    +0.000 C 
ATOM     10  N   UNL     1      -0.087  12.409  21.204  0.00  0.00    +0.000 N 
ATOM     11  C   UNL     1      -0.811  13.574  21.044  0.00  0.00    +0.000 A 
ATOM     12  C   UNL     1      -1.855  13.910  21.925  0.00  0.00    +0.000 A 
ATOM     13  N   UNL     1      -2.634  15.020  21.829  0.00  0.00    +0.000 NA
ATOM     14  C   UNL     1      -2.323  15.820  20.778  0.00  0.00    +0.000 A 
ATOM     15  C   UNL     1      -1.284  15.529  19.907  0.00  0.00    +0.000 A 
ATOM     16  N   UNL     1      -0.511  14.416  20.032  0.00  0.00    +0.000 NA
ATOM     17  C   UNL     1      -0.812  11.132  21.394  0.00  0.00    +0.000 C 
ATOM     18  C   UNL     1      -0.456  10.571  22.773  0.00  0.00    +0.000 C 
ATOM     19  C   UNL     1      -0.492  10.119  20.248  0.00  0.00    +0.000 C 
ATOM     20  C   UNL     1       1.448   7.557  20.149  0.00  0.00    +0.000 A 
ATOM     21  C   UNL     1       0.724   7.303  21.447  0.00  0.00    +0.000 C 
ENDROOT
BRANCH  14  22
ATOM     22  C   UNL     1      -3.137  17.054  20.591  0.00  0.00    +0.000 C 
ATOM     23  O   UNL     1      -3.471  17.749  21.541  0.00  0.00    +0.000 OA
ATOM     24  N   UNL     1      -3.487  17.332  19.281  0.00  0.00    +0.000 N 
ATOM     25  H   UNL     1      -3.186  16.667  18.574  0.00  0.00    +0.000 HD
BRANCH  24  26
ATOM     26  C   UNL     1      -4.298  18.475  18.915  0.00  0.00    +0.000 C 
BRANCH  26  27
ATOM     27  C   UNL     1      -5.654  18.086  18.328  0.00  0.00    +0.000 C 
BRANCH  27  28
ATOM     28  C   UNL     1      -6.653  17.552  19.347  0.00  0.00    +0.000 C 
BRANCH  28  29
ATOM     29  O   UNL     1      -7.487  16.557  18.769  0.00  0.00    +0.000 OA
ATOM     30  H   UNL     1      -8.413  16.848  18.918  0.00  0.00    +0.000 HD
ENDBRANCH  28  29
ENDBRANCH  27  28
ENDBRANCH  26  27
ENDBRANCH  24  26
ENDBRANCH  14  22
BRANCH   3  31
ATOM     31  C   UNL     1       3.465   5.588  17.525  0.00  0.00    +0.000 C 
BRANCH  31  32
ATOM     32  C   UNL     1       4.957   5.506  17.768  0.00  0.00    +0.000 A 
ATOM     33  C   UNL     1       5.822   5.201  16.704  0.00  0.00    +0.000 A 
ATOM     34  C   UNL     1       7.180   4.986  16.930  0.00  0.00    +0.000 A 
ATOM     35  C   UNL     1       7.696   5.098  18.218  0.00  0.00    +0.000 A 
ATOM     36  C   UNL     1       6.860   5.464  19.272  0.00  0.00    +0.000 A 
ATOM     37  C   UNL     1       5.498   5.674  19.049  0.00  0.00    +0.000 A 
ENDBRANCH  31  32
ENDBRANCH   3  31
TORSDOF 7
ENDMDL
