MODEL 1
REMARK VINA RESULT:      -8.2      0.000      0.000
REMARK  Name = 
REMARK  6 active torsions:
REMARK  status: ('A' for Active; 'I' for Inactive)
REMARK    1  A    between atoms: C_1  and  C_2
REMARK    2  A    between atoms: C_4  and  C_5
REMARK    3  A    between atoms: C_7  and  S_8
REMARK    4  A    between atoms: S_8  and  C_9
REMARK    5  A    between atoms: C_12  and  N_13
REMARK    6  A    between atoms: N_16  and  C_17
REMARK                            x       y       z     vdW  Elec       q    Type
REMARK                         _______ _______ _______ _____ _____    ______ ____
ROOT
ATOM      1  C   UNL     1       2.504   5.068  18.604  0.00  0.00    +0.000 A 
ATOM      2  C   UNL     1       2.014   4.824  19.885  0.00  0.00    +0.000 A 
ATOM      3  C   UNL     1       1.727   5.889  20.746  0.00  0.00    +0.000 A 
ATOM      4  C   UNL     1       1.941   7.217  20.366  0.00  0.00    +0.000 A 
ATOM      5  C   UNL     1       2.414   7.463  19.077  0.00  0.00    +0.000 A 
ATOM      6  C   UNL     1       2.713   6.391  18.204  0.00  0.00    +0.000 A 
ENDROOT
BRANCH   4   7
ATOM      7  N   UNL     1       1.686   8.303  21.248  0.00  0.00    +0.000 N 
ATOM      8  C   UNL     1       0.551   9.105  21.186  0.00  0.00    +0.000 C 
ATOM      9  O   UNL     1      -0.388   8.924  20.408  0.00  0.00    +0.000 OA
ATOM     10  N   UNL     1       0.572  10.158  22.088  0.00  0.00    +0.000 N 
ATOM     11  H   UNL     1       2.233   8.352  22.095  0.00  0.00    +0.000 HD
ATOM     12  H   UNL     1       1.492  10.541  22.261  0.00  0.00    +0.000 HD
BRANCH  10  13
ATOM     13  C   UNL     1      -0.509  11.078  22.124  0.00  0.00    +0.000 A 
ATOM     14  C   UNL     1      -1.439  11.071  23.174  0.00  0.00    +0.000 A 
ATOM     15  C   UNL     1      -2.506  11.979  23.186  0.00  0.00    +0.000 A 
ATOM     16  C   UNL     1      -2.659  12.880  22.137  0.00  0.00    +0.000 A 
ATOM     17 CL   UNL     1      -3.973  13.991  22.141  0.00  0.00    +0.000 Cl
ATOM     18  C   UNL     1      -1.748  12.886  21.081  0.00  0.00    +0.000 A 
ATOM     19  C   UNL     1      -0.662  12.000  21.085  0.00  0.00    +0.000 A 
ENDBRANCH  10  13
ENDBRANCH   4   7
BRANCH   1  20
ATOM     20  S   UNL     1       2.919   3.700  17.544  0.00  0.00    +0.000 S 
BRANCH  20  27
ATOM     21  C   UNL     1       7.706   5.260  18.509  0.00  0.00    +0.000 C 
ATOM     22  C   UNL     1       6.713   4.794  17.488  0.00  0.00    +0.000 A 
ATOM     23  C   UNL     1       7.076   4.641  16.166  0.00  0.00    +0.000 A 
ATOM     24  C   UNL     1       6.094   4.199  15.302  0.00  0.00    +0.000 A 
ATOM     25  C   UNL     1       6.379   3.989  13.846  0.00  0.00    +0.000 C 
ATOM     26  N   UNL     1       4.841   3.928  15.718  0.00  0.00    +0.000 NA
ATOM     27  C   UNL     1       4.576   4.093  17.026  0.00  0.00    +0.000 A 
ATOM     28  N   UNL     1       5.466   4.529  17.933  0.00  0.00    +0.000 NA
ENDBRANCH  20  27
ENDBRANCH   1  20
TORSDOF 4
ENDMDL
MODEL 2
REMARK VINA RESULT:      -8.2      5.738      8.367
REMARK  Name = 
REMARK  6 active torsions:
REMARK  status: ('A' for Active; 'I' for Inactive)
REMARK    1  A    between atoms: C_1  and  C_2
REMARK    2  A    between atoms: C_4  and  C_5
REMARK    3  A    between atoms: C_7  and  S_8
REMARK    4  A    between atoms: S_8  and  C_9
REMARK    5  A    between atoms: C_12  and  N_13
REMARK    6  A    between atoms: N_16  and  C_17
REMARK                            x       y       z     vdW  Elec       q    Type
REMARK                         _______ _______ _______ _____ _____    ______ ____
ROOT
ATOM      1  C   UNL     1       6.059   5.226  17.295  0.00  0.00    +0.000 A 
ATOM      2  C   UNL     1       6.053   6.524  16.788  0.00  0.00    +0.000 A 
ATOM      3  C   UNL     1       6.936   7.483  17.293  0.00  0.00    +0.000 A 
ATOM      4  C   UNL     1       7.827   7.187  18.328  0.00  0.00    +0.000 A 
ATOM      5  C   UNL     1       7.847   5.882  18.824  0.00  0.00    +0.000 A 
ATOM      6  C   UNL     1       6.952   4.909  18.322  0.00  0.00    +0.000 A 
ENDROOT
BRANCH   4   7
ATOM      7  N   UNL     1       8.704   8.166  18.873  0.00  0.00    +0.000 N 
ATOM      8  C   UNL     1       8.708   9.503  18.490  0.00  0.00    +0.000 C 
ATOM      9  O   UNL     1       7.914  10.001  17.691  0.00  0.00    +0.000 OA
ATOM     10  N   UNL     1       9.715  10.243  19.092  0.00  0.00    +0.000 N 
ATOM     11  H   UNL     1       9.181   7.935  19.732  0.00  0.00    +0.000 HD
ATOM     12  H   UNL     1      10.570   9.728  19.256  0.00  0.00    +0.000 HD
BRANCH  10  13
ATOM     13  C   UNL     1       9.861  11.621  18.780  0.00  0.00    +0.000 A 
ATOM     14  C   UNL     1       9.199  12.611  19.520  0.00  0.00    +0.000 A 
ATOM     15  C   UNL     1       9.346  13.965  19.190  0.00  0.00    +0.000 A 
ATOM     16  C   UNL     1      10.136  14.329  18.105  0.00  0.00    +0.000 A 
ATOM     17 CL   UNL     1      10.313  15.989  17.688  0.00  0.00    +0.000 Cl
ATOM     18  C   UNL     1      10.789  13.352  17.354  0.00  0.00    +0.000 A 
ATOM     19  C   UNL     1      10.668  12.000  17.704  0.00  0.00    +0.000 A 
ENDBRANCH  10  13
ENDBRANCH   4   7
BRANCH   1  20
ATOM     20  S   UNL     1       4.888   4.035  16.679  0.00  0.00    +0.000 S 
BRANCH  20  27
ATOM     21  C   UNL     1       2.170   6.709  20.106  0.00  0.00    +0.000 C 
ATOM     22  C   UNL     1       2.323   5.432  19.337  0.00  0.00    +0.000 A 
ATOM     23  C   UNL     1       1.405   4.410  19.472  0.00  0.00    +0.000 A 
ATOM     24  C   UNL     1       1.627   3.277  18.716  0.00  0.00    +0.000 A 
ATOM     25  C   UNL     1       0.689   2.110  18.776  0.00  0.00    +0.000 C 
ATOM     26  N   UNL     1       2.682   3.163  17.885  0.00  0.00    +0.000 NA
ATOM     27  C   UNL     1       3.521   4.210  17.806  0.00  0.00    +0.000 A 
ATOM     28  N   UNL     1       3.388   5.345  18.513  0.00  0.00    +0.000 NA
ENDBRANCH  20  27
ENDBRANCH   1  20
TORSDOF 4
ENDMDL
MODEL 3
REMARK VINA RESULT:      -8.2      5.805      8.485
REMARK  Name = 
REMARK  6 active torsions:
REMARK  status: ('A' for Active; 'I' for Inactive)
REMARK    1  A    between atoms: C_1  and  C_2
REMARK    2  A    between atoms: C_4  and  C_5
REMARK    3  A    between atoms: C_7  and  S_8
REMARK    4  A    between atoms: S_8  and  C_9
REMARK    5  A    between atoms: C_12  and  N_13
REMARK    6  A    between atoms: N_16  and  C_17
REMARK                            x       y       z     vdW  Elec       q    Type
REMARK                         _______ _______ _______ _____ _____    ______ ____
ROOT
ATOM      1  C   UNL     1       6.272   5.273  17.248  0.00  0.00    +0.000 A 
ATOM      2  C   UNL     1       6.312   6.545  16.682  0.00  0.00    +0.000 A 
ATOM      3  C   UNL     1       7.139   7.534  17.225  0.00  0.00    +0.000 A 
ATOM      4  C   UNL     1       7.926   7.293  18.354  0.00  0.00    +0.000 A 
ATOM      5  C   UNL     1       7.901   6.014  18.911  0.00  0.00    +0.000 A 
ATOM      6  C   UNL     1       7.062   5.011  18.371  0.00  0.00    +0.000 A 
ENDROOT
BRANCH   4   7
ATOM      7  N   UNL     1       8.742   8.304  18.934  0.00  0.00    +0.000 N 
ATOM      8  C   UNL     1       8.759   9.628  18.509  0.00  0.00    +0.000 C 
ATOM      9  O   UNL     1       8.025  10.087  17.633  0.00  0.00    +0.000 OA
ATOM     10  N   UNL     1       9.705  10.403  19.164  0.00  0.00    +0.000 N 
ATOM     11  H   UNL     1       9.153   8.108  19.835  0.00  0.00    +0.000 HD
ATOM     12  H   UNL     1      10.551   9.907  19.413  0.00  0.00    +0.000 HD
BRANCH  10  13
ATOM     13  C   UNL     1       9.856  11.772  18.819  0.00  0.00    +0.000 A 
ATOM     14  C   UNL     1      10.641  12.166  17.726  0.00  0.00    +0.000 A 
ATOM     15  C   UNL     1      10.787  13.523  17.407  0.00  0.00    +0.000 A 
ATOM     16  C   UNL     1      10.169  14.488  18.195  0.00  0.00    +0.000 A 
ATOM     17 CL   UNL     1      10.352  16.157  17.815  0.00  0.00    +0.000 Cl
ATOM     18  C   UNL     1       9.397  14.107  19.292  0.00  0.00    +0.000 A 
ATOM     19  C   UNL     1       9.223  12.749  19.591  0.00  0.00    +0.000 A 
ENDBRANCH  10  13
ENDBRANCH   4   7
BRANCH   1  20
ATOM     20  S   UNL     1       5.170   4.046  16.579  0.00  0.00    +0.000 S 
BRANCH  20  27
ATOM     21  C   UNL     1       0.870   2.194  18.669  0.00  0.00    +0.000 C 
ATOM     22  C   UNL     1       1.806   3.357  18.530  0.00  0.00    +0.000 A 
ATOM     23  C   UNL     1       1.576   4.536  19.208  0.00  0.00    +0.000 A 
ATOM     24  C   UNL     1       2.498   5.546  19.022  0.00  0.00    +0.000 A 
ATOM     25  C   UNL     1       2.352   6.866  19.716  0.00  0.00    +0.000 C 
ATOM     26  N   UNL     1       3.572   5.399  18.222  0.00  0.00    +0.000 NA
ATOM     27  C   UNL     1       3.726   4.213  17.608  0.00  0.00    +0.000 A 
ATOM     28  N   UNL     1       2.873   3.181  17.723  0.00  0.00    +0.000 NA
ENDBRANCH  20  27
ENDBRANCH   1  20
TORSDOF 4
ENDMDL
MODEL 4
REMARK VINA RESULT:      -8.1      0.145      1.674
REMARK  Name = 
REMARK  6 active torsions:
REMARK  status: ('A' for Active; 'I' for Inactive)
REMARK    1  A    between atoms: C_1  and  C_2
REMARK    2  A    between atoms: C_4  and  C_5
REMARK    3  A    between atoms: C_7  and  S_8
REMARK    4  A    between atoms: S_8  and  C_9
REMARK    5  A    between atoms: C_12  and  N_13
REMARK    6  A    between atoms: N_16  and  C_17
REMARK                            x       y       z     vdW  Elec       q    Type
REMARK                         _______ _______ _______ _____ _____    ______ ____
ROOT
ATOM      1  C   UNL     1       2.544   4.955  18.558  0.00  0.00    +0.000 A 
ATOM      2  C   UNL     1       2.061   4.690  19.838  0.00  0.00    +0.000 A 
ATOM      3  C   UNL     1       1.770   5.741  20.714  0.00  0.00    +0.000 A 
ATOM      4  C   UNL     1       1.972   7.075  20.352  0.00  0.00    +0.000 A 
ATOM      5  C   UNL     1       2.439   7.343  19.064  0.00  0.00    +0.000 A 
ATOM      6  C   UNL     1       2.741   6.285  18.175  0.00  0.00    +0.000 A 
ENDROOT
BRANCH   4   7
ATOM      7  N   UNL     1       1.713   8.148  21.249  0.00  0.00    +0.000 N 
ATOM      8  C   UNL     1       0.600   8.979  21.167  0.00  0.00    +0.000 C 
ATOM      9  O   UNL     1      -0.314   8.839  20.353  0.00  0.00    +0.000 OA
ATOM     10  N   UNL     1       0.616  10.011  22.093  0.00  0.00    +0.000 N 
ATOM     11  H   UNL     1       2.232   8.164  22.116  0.00  0.00    +0.000 HD
ATOM     12  H   UNL     1       1.538  10.367  22.306  0.00  0.00    +0.000 HD
BRANCH  10  13
ATOM     13  C   UNL     1      -0.444  10.956  22.113  0.00  0.00    +0.000 A 
ATOM     14  C   UNL     1      -1.376  10.985  23.159  0.00  0.00    +0.000 A 
ATOM     15  C   UNL     1      -2.422  11.918  23.156  0.00  0.00    +0.000 A 
ATOM     16  C   UNL     1      -2.550  12.809  22.095  0.00  0.00    +0.000 A 
ATOM     17 CL   UNL     1      -3.837  13.951  22.080  0.00  0.00    +0.000 Cl
ATOM     18  C   UNL     1      -1.635  12.780  21.043  0.00  0.00    +0.000 A 
ATOM     19  C   UNL     1      -0.571  11.868  21.062  0.00  0.00    +0.000 A 
ENDBRANCH  10  13
ENDBRANCH   4   7
BRANCH   1  20
ATOM     20  S   UNL     1       2.964   3.604  17.478  0.00  0.00    +0.000 S 
BRANCH  20  27
ATOM     21  C   UNL     1       6.518   4.246  13.839  0.00  0.00    +0.000 C 
ATOM     22  C   UNL     1       6.182   4.303  15.299  0.00  0.00    +0.000 A 
ATOM     23  C   UNL     1       7.123   4.700  16.227  0.00  0.00    +0.000 A 
ATOM     24  C   UNL     1       6.718   4.727  17.546  0.00  0.00    +0.000 A 
ATOM     25  C   UNL     1       7.654   5.152  18.636  0.00  0.00    +0.000 C 
ATOM     26  N   UNL     1       5.469   4.386  17.920  0.00  0.00    +0.000 NA
ATOM     27  C   UNL     1       4.612   4.022  16.950  0.00  0.00    +0.000 A 
ATOM     28  N   UNL     1       4.925   3.956  15.645  0.00  0.00    +0.000 NA
ENDBRANCH  20  27
ENDBRANCH   1  20
TORSDOF 4
ENDMDL
MODEL 5
REMARK VINA RESULT:      -8.0      0.477      1.968
REMARK  Name = 
REMARK  6 active torsions:
REMARK  status: ('A' for Active; 'I' for Inactive)
REMARK    1  A    between atoms: C_1  and  C_2
REMARK    2  A    between atoms: C_4  and  C_5
REMARK    3  A    between atoms: C_7  and  S_8
REMARK    4  A    between atoms: S_8  and  C_9
REMARK    5  A    between atoms: C_12  and  N_13
REMARK    6  A    between atoms: N_16  and  C_17
REMARK                            x       y       z     vdW  Elec       q    Type
REMARK                         _______ _______ _______ _____ _____    ______ ____
ROOT
ATOM      1  C   UNL     1       2.508   5.253  18.795  0.00  0.00    +0.000 A 
ATOM      2  C   UNL     1       2.096   5.196  20.125  0.00  0.00    +0.000 A 
ATOM      3  C   UNL     1       1.786   6.369  20.820  0.00  0.00    +0.000 A 
ATOM      4  C   UNL     1       1.901   7.627  20.221  0.00  0.00    +0.000 A 
ATOM      5  C   UNL     1       2.296   7.685  18.884  0.00  0.00    +0.000 A 
ATOM      6  C   UNL     1       2.617   6.502  18.178  0.00  0.00    +0.000 A 
ENDROOT
BRANCH   4   7
ATOM      7  N   UNL     1       1.623   8.828  20.931  0.00  0.00    +0.000 N 
ATOM      8  C   UNL     1       0.355   9.389  21.044  0.00  0.00    +0.000 C 
ATOM      9  O   UNL     1      -0.674   8.877  20.601  0.00  0.00    +0.000 OA
ATOM     10  N   UNL     1       0.351  10.610  21.703  0.00  0.00    +0.000 N 
ATOM     11  H   UNL     1       2.329   9.163  21.571  0.00  0.00    +0.000 HD
ATOM     12  H   UNL     1       1.176  11.173  21.543  0.00  0.00    +0.000 HD
BRANCH  10  13
ATOM     13  C   UNL     1      -0.869  11.315  21.872  0.00  0.00    +0.000 A 
ATOM     14  C   UNL     1      -1.434  12.058  20.826  0.00  0.00    +0.000 A 
ATOM     15  C   UNL     1      -2.634  12.757  21.016  0.00  0.00    +0.000 A 
ATOM     16  C   UNL     1      -3.258  12.733  22.258  0.00  0.00    +0.000 A 
ATOM     17 CL   UNL     1      -4.727  13.597  22.501  0.00  0.00    +0.000 Cl
ATOM     18  C   UNL     1      -2.698  12.008  23.310  0.00  0.00    +0.000 A 
ATOM     19  C   UNL     1      -1.516  11.282  23.111  0.00  0.00    +0.000 A 
ENDBRANCH  10  13
ENDBRANCH   4   7
BRANCH   1  20
ATOM     20  S   UNL     1       2.953   3.754  17.946  0.00  0.00    +0.000 S 
BRANCH  20  27
ATOM     21  C   UNL     1       6.391   4.055  14.154  0.00  0.00    +0.000 C 
ATOM     22  C   UNL     1       6.100   4.247  15.612  0.00  0.00    +0.000 A 
ATOM     23  C   UNL     1       7.068   4.728  16.469  0.00  0.00    +0.000 A 
ATOM     24  C   UNL     1       6.704   4.879  17.792  0.00  0.00    +0.000 A 
ATOM     25  C   UNL     1       7.672   5.402  18.808  0.00  0.00    +0.000 C 
ATOM     26  N   UNL     1       5.468   4.574  18.235  0.00  0.00    +0.000 NA
ATOM     27  C   UNL     1       4.583   4.121  17.330  0.00  0.00    +0.000 A 
ATOM     28  N   UNL     1       4.855   3.934  16.028  0.00  0.00    +0.000 NA
ENDBRANCH  20  27
ENDBRANCH   1  20
TORSDOF 4
ENDMDL
MODEL 6
REMARK VINA RESULT:      -8.0      5.845      8.590
REMARK  Name = 
REMARK  6 active torsions:
REMARK  status: ('A' for Active; 'I' for Inactive)
REMARK    1  A    between atoms: C_1  and  C_2
REMARK    2  A    between atoms: C_4  and  C_5
REMARK    3  A    between atoms: C_7  and  S_8
REMARK    4  A    between atoms: S_8  and  C_9
REMARK    5  A    between atoms: C_12  and  N_13
REMARK    6  A    between atoms: N_16  and  C_17
REMARK                            x       y       z     vdW  Elec       q    Type
REMARK                         _______ _______ _______ _____ _____    ______ ____
ROOT
ATOM      1  C   UNL     1       6.031   5.430  17.666  0.00  0.00    +0.000 A 
ATOM      2  C   UNL     1       6.118   6.644  16.989  0.00  0.00    +0.000 A 
ATOM      3  C   UNL     1       7.063   7.601  17.374  0.00  0.00    +0.000 A 
ATOM      4  C   UNL     1       7.926   7.386  18.452  0.00  0.00    +0.000 A 
ATOM      5  C   UNL     1       7.852   6.163  19.120  0.00  0.00    +0.000 A 
ATOM      6  C   UNL     1       6.894   5.194  18.740  0.00  0.00    +0.000 A 
ENDROOT
BRANCH   4   7
ATOM      7  N   UNL     1       8.866   8.368  18.872  0.00  0.00    +0.000 N 
ATOM      8  C   UNL     1       8.836   9.697  18.464  0.00  0.00    +0.000 C 
ATOM      9  O   UNL     1       7.959  10.187  17.750  0.00  0.00    +0.000 OA
ATOM     10  N   UNL     1       9.911  10.440  18.931  0.00  0.00    +0.000 N 
ATOM     11  H   UNL     1       9.437   8.150  19.676  0.00  0.00    +0.000 HD
ATOM     12  H   UNL     1      10.775   9.920  19.008  0.00  0.00    +0.000 HD
BRANCH  10  13
ATOM     13  C   UNL     1      10.029  11.809  18.575  0.00  0.00    +0.000 A 
ATOM     14  C   UNL     1       9.346  12.809  19.282  0.00  0.00    +0.000 A 
ATOM     15  C   UNL     1       9.467  14.154  18.909  0.00  0.00    +0.000 A 
ATOM     16  C   UNL     1      10.253  14.500  17.815  0.00  0.00    +0.000 A 
ATOM     17 CL   UNL     1      10.398  16.149  17.345  0.00  0.00    +0.000 Cl
ATOM     18  C   UNL     1      10.926  13.512  17.097  0.00  0.00    +0.000 A 
ATOM     19  C   UNL     1      10.832  12.170  17.490  0.00  0.00    +0.000 A 
ENDBRANCH  10  13
ENDBRANCH   4   7
BRANCH   1  20
ATOM     20  S   UNL     1       4.783   4.249  17.200  0.00  0.00    +0.000 S 
BRANCH  20  27
ATOM     21  C   UNL     1       1.388   2.455  20.597  0.00  0.00    +0.000 C 
ATOM     22  C   UNL     1       2.022   3.655  19.960  0.00  0.00    +0.000 A 
ATOM     23  C   UNL     1       1.668   4.931  20.347  0.00  0.00    +0.000 A 
ATOM     24  C   UNL     1       2.312   5.972  19.708  0.00  0.00    +0.000 A 
ATOM     25  C   UNL     1       2.014   7.398  20.055  0.00  0.00    +0.000 C 
ATOM     26  N   UNL     1       3.241   5.763  18.754  0.00  0.00    +0.000 NA
ATOM     27  C   UNL     1       3.533   4.487  18.446  0.00  0.00    +0.000 A 
ATOM     28  N   UNL     1       2.948   3.416  19.008  0.00  0.00    +0.000 NA
ENDBRANCH  20  27
ENDBRANCH   1  20
TORSDOF 4
ENDMDL
MODEL 7
REMARK VINA RESULT:      -8.0      0.719      1.186
REMARK  Name = 
REMARK  6 active torsions:
REMARK  status: ('A' for Active; 'I' for Inactive)
REMARK    1  A    between atoms: C_1  and  C_2
REMARK    2  A    between atoms: C_4  and  C_5
REMARK    3  A    between atoms: C_7  and  S_8
REMARK    4  A    between atoms: S_8  and  C_9
REMARK    5  A    between atoms: C_12  and  N_13
REMARK    6  A    between atoms: N_16  and  C_17
REMARK                            x       y       z     vdW  Elec       q    Type
REMARK                         _______ _______ _______ _____ _____    ______ ____
ROOT
ATOM      1  C   UNL     1       2.477   5.498  18.883  0.00  0.00    +0.000 A 
ATOM      2  C   UNL     1       2.061   5.549  20.211  0.00  0.00    +0.000 A 
ATOM      3  C   UNL     1       1.725   6.773  20.799  0.00  0.00    +0.000 A 
ATOM      4  C   UNL     1       1.815   7.975  20.092  0.00  0.00    +0.000 A 
ATOM      5  C   UNL     1       2.215   7.924  18.756  0.00  0.00    +0.000 A 
ATOM      6  C   UNL     1       2.563   6.690  18.158  0.00  0.00    +0.000 A 
ENDROOT
BRANCH   4   7
ATOM      7  N   UNL     1       1.510   9.228  20.693  0.00  0.00    +0.000 N 
ATOM      8  C   UNL     1       0.217   9.668  20.958  0.00  0.00    +0.000 C 
ATOM      9  O   UNL     1      -0.799   8.999  20.766  0.00  0.00    +0.000 OA
ATOM     10  N   UNL     1       0.169  10.961  21.459  0.00  0.00    +0.000 N 
ATOM     11  H   UNL     1       2.263   9.717  21.156  0.00  0.00    +0.000 HD
ATOM     12  H   UNL     1       0.883  11.577  21.093  0.00  0.00    +0.000 HD
BRANCH  10  13
ATOM     13  C   UNL     1      -1.085  11.556  21.754  0.00  0.00    +0.000 A 
ATOM     14  C   UNL     1      -1.812  12.251  20.777  0.00  0.00    +0.000 A 
ATOM     15  C   UNL     1      -3.044  12.841  21.090  0.00  0.00    +0.000 A 
ATOM     16  C   UNL     1      -3.540  12.758  22.387  0.00  0.00    +0.000 A 
ATOM     17 CL   UNL     1      -5.047  13.490  22.781  0.00  0.00    +0.000 Cl
ATOM     18  C   UNL     1      -2.819  12.081  23.370  0.00  0.00    +0.000 A 
ATOM     19  C   UNL     1      -1.603  11.463  23.049  0.00  0.00    +0.000 A 
ENDBRANCH  10  13
ENDBRANCH   4   7
BRANCH   1  20
ATOM     20  S   UNL     1       2.957   3.939  18.170  0.00  0.00    +0.000 S 
BRANCH  20  27
ATOM     21  C   UNL     1       7.792   5.500  18.858  0.00  0.00    +0.000 C 
ATOM     22  C   UNL     1       6.759   4.975  17.907  0.00  0.00    +0.000 A 
ATOM     23  C   UNL     1       7.074   4.723  16.587  0.00  0.00    +0.000 A 
ATOM     24  C   UNL     1       6.058   4.234  15.791  0.00  0.00    +0.000 A 
ATOM     25  C   UNL     1       6.291   3.916  14.346  0.00  0.00    +0.000 C 
ATOM     26  N   UNL     1       4.818   4.010  16.268  0.00  0.00    +0.000 NA
ATOM     27  C   UNL     1       4.600   4.272  17.568  0.00  0.00    +0.000 A 
ATOM     28  N   UNL     1       5.526   4.760  18.411  0.00  0.00    +0.000 NA
ENDBRANCH  20  27
ENDBRANCH   1  20
TORSDOF 4
ENDMDL
MODEL 8
REMARK VINA RESULT:      -8.0      0.243      1.349
REMARK  Name = 
REMARK  6 active torsions:
REMARK  status: ('A' for Active; 'I' for Inactive)
REMARK    1  A    between atoms: C_1  and  C_2
REMARK    2  A    between atoms: C_4  and  C_5
REMARK    3  A    between atoms: C_7  and  S_8
REMARK    4  A    between atoms: S_8  and  C_9
REMARK    5  A    between atoms: C_12  and  N_13
REMARK    6  A    between atoms: N_16  and  C_17
REMARK                            x       y       z     vdW  Elec       q    Type
REMARK                         _______ _______ _______ _____ _____    ______ ____
ROOT
ATOM      1  C   UNL     1       2.534   5.119  18.587  0.00  0.00    +0.000 A 
ATOM      2  C   UNL     1       2.663   6.465  18.252  0.00  0.00    +0.000 A 
ATOM      3  C   UNL     1       2.380   7.458  19.195  0.00  0.00    +0.000 A 
ATOM      4  C   UNL     1       1.942   7.141  20.484  0.00  0.00    +0.000 A 
ATOM      5  C   UNL     1       1.830   5.793  20.827  0.00  0.00    +0.000 A 
ATOM      6  C   UNL     1       2.107   4.784  19.875  0.00  0.00    +0.000 A 
ENDROOT
BRANCH   4   7
ATOM      7  N   UNL     1       1.618   8.145  21.438  0.00  0.00    +0.000 N 
ATOM      8  C   UNL     1       0.606   9.084  21.265  0.00  0.00    +0.000 C 
ATOM      9  O   UNL     1      -0.162   9.110  20.302  0.00  0.00    +0.000 OA
ATOM     10  N   UNL     1       0.543  10.018  22.288  0.00  0.00    +0.000 N 
ATOM     11  H   UNL     1       1.978   8.029  22.374  0.00  0.00    +0.000 HD
ATOM     12  H   UNL     1       1.440  10.262  22.687  0.00  0.00    +0.000 HD
BRANCH  10  13
ATOM     13  C   UNL     1      -0.425  11.056  22.237  0.00  0.00    +0.000 A 
ATOM     14  C   UNL     1      -0.328  12.099  21.306  0.00  0.00    +0.000 A 
ATOM     15  C   UNL     1      -1.287  13.121  21.278  0.00  0.00    +0.000 A 
ATOM     16  C   UNL     1      -2.332  13.112  22.196  0.00  0.00    +0.000 A 
ATOM     17 CL   UNL     1      -3.508  14.368  22.174  0.00  0.00    +0.000 Cl
ATOM     18  C   UNL     1      -2.431  12.086  23.135  0.00  0.00    +0.000 A 
ATOM     19  C   UNL     1      -1.490  11.047  23.142  0.00  0.00    +0.000 A 
ENDBRANCH  10  13
ENDBRANCH   4   7
BRANCH   1  20
ATOM     20  S   UNL     1       2.841   3.871  17.355  0.00  0.00    +0.000 S 
BRANCH  20  27
ATOM     21  C   UNL     1       7.671   5.167  18.488  0.00  0.00    +0.000 C 
ATOM     22  C   UNL     1       6.687   4.766  17.430  0.00  0.00    +0.000 A 
ATOM     23  C   UNL     1       7.083   4.611  16.118  0.00  0.00    +0.000 A 
ATOM     24  C   UNL     1       6.107   4.231  15.218  0.00  0.00    +0.000 A 
ATOM     25  C   UNL     1       6.426   4.024  13.769  0.00  0.00    +0.000 C 
ATOM     26  N   UNL     1       4.829   4.020  15.592  0.00  0.00    +0.000 NA
ATOM     27  C   UNL     1       4.532   4.184  16.893  0.00  0.00    +0.000 A 
ATOM     28  N   UNL     1       5.415   4.561  17.833  0.00  0.00    +0.000 NA
ENDBRANCH  20  27
ENDBRANCH   1  20
TORSDOF 4
ENDMDL
MODEL 9
REMARK VINA RESULT:      -7.9      0.940      2.183
REMARK  Name = 
REMARK  6 active torsions:
REMARK  status: ('A' for Active; 'I' for Inactive)
REMARK    1  A    between atoms: C_1  and  C_2
REMARK    2  A    between atoms: C_4  and  C_5
REMARK    3  A    between atoms: C_7  and  S_8
REMARK    4  A    between atoms: S_8  and  C_9
REMARK    5  A    between atoms: C_12  and  N_13
REMARK    6  A    between atoms: N_16  and  C_17
REMARK                            x       y       z     vdW  Elec       q    Type
REMARK                         _______ _______ _______ _____ _____    ______ ____
ROOT
ATOM      1  C   UNL     1       2.500   5.826  18.779  0.00  0.00    +0.000 A 
ATOM      2  C   UNL     1       2.507   6.914  17.908  0.00  0.00    +0.000 A 
ATOM      3  C   UNL     1       2.166   8.190  18.368  0.00  0.00    +0.000 A 
ATOM      4  C   UNL     1       1.788   8.413  19.695  0.00  0.00    +0.000 A 
ATOM      5  C   UNL     1       1.797   7.328  20.573  0.00  0.00    +0.000 A 
ATOM      6  C   UNL     1       2.135   6.034  20.112  0.00  0.00    +0.000 A 
ENDROOT
BRANCH   4   7
ATOM      7  N   UNL     1       1.404   9.701  20.163  0.00  0.00    +0.000 N 
ATOM      8  C   UNL     1       0.152   9.994  20.692  0.00  0.00    +0.000 C 
ATOM      9  O   UNL     1      -0.739   9.163  20.875  0.00  0.00    +0.000 OA
ATOM     10  N   UNL     1      -0.017  11.339  20.990  0.00  0.00    +0.000 N 
ATOM     11  H   UNL     1       2.141  10.371  20.333  0.00  0.00    +0.000 HD
ATOM     12  H   UNL     1       0.463  11.969  20.362  0.00  0.00    +0.000 HD
BRANCH  10  13
ATOM     13  C   UNL     1      -1.255  11.794  21.515  0.00  0.00    +0.000 A 
ATOM     14  C   UNL     1      -1.561  11.670  22.877  0.00  0.00    +0.000 A 
ATOM     15  C   UNL     1      -2.793  12.115  23.375  0.00  0.00    +0.000 A 
ATOM     16  C   UNL     1      -3.730  12.664  22.507  0.00  0.00    +0.000 A 
ATOM     17 CL   UNL     1      -5.249  13.204  23.109  0.00  0.00    +0.000 Cl
ATOM     18  C   UNL     1      -3.442  12.781  21.147  0.00  0.00    +0.000 A 
ATOM     19  C   UNL     1      -2.197  12.365  20.655  0.00  0.00    +0.000 A 
ENDBRANCH  10  13
ENDBRANCH   4   7
BRANCH   1  20
ATOM     20  S   UNL     1       2.880   4.201  18.161  0.00  0.00    +0.000 S 
BRANCH  20  27
ATOM     21  C   UNL     1       6.309   3.948  14.359  0.00  0.00    +0.000 C 
ATOM     22  C   UNL     1       6.041   4.279  15.796  0.00  0.00    +0.000 A 
ATOM     23  C   UNL     1       7.045   4.759  16.611  0.00  0.00    +0.000 A 
ATOM     24  C   UNL     1       6.699   5.043  17.917  0.00  0.00    +0.000 A 
ATOM     25  C   UNL     1       7.707   5.579  18.887  0.00  0.00    +0.000 C 
ATOM     26  N   UNL     1       5.448   4.863  18.383  0.00  0.00    +0.000 NA
ATOM     27  C   UNL     1       4.528   4.401  17.518  0.00  0.00    +0.000 A 
ATOM     28  N   UNL     1       4.779   4.089  16.235  0.00  0.00    +0.000 NA
ENDBRANCH  20  27
ENDBRANCH   1  20
TORSDOF 4
ENDMDL
