MODEL 1
REMARK VINA RESULT:      -7.6      0.000      0.000
REMARK  Name = 
REMARK  6 active torsions:
REMARK  status: ('A' for Active; 'I' for Inactive)
REMARK    1  A    between atoms: C_1  and  C_2
REMARK    2  A    between atoms: C_4  and  S_5
REMARK    3  A    between atoms: S_5  and  N_8
REMARK    4  A    between atoms: C_12  and  C_14
REMARK    5  A    between atoms: C_14  and  C_15
REMARK    6  A    between atoms: C_15  and  C_16
REMARK                            x       y       z     vdW  Elec       q    Type
REMARK                         _______ _______ _______ _____ _____    ______ ____
ROOT
ATOM      1  N   UNL     1      -0.236  11.378  20.360  0.00  0.00    +0.000 NA
ATOM      2  C   UNL     1       0.170  10.485  21.480  0.00  0.00    +0.000 C 
ATOM      3  C   UNL     1       0.218   9.034  20.963  0.00  0.00    +0.000 C 
ATOM      4  N   UNL     1       1.077   8.912  19.771  0.00  0.00    +0.000 N 
ATOM      5  C   UNL     1       1.889   7.797  19.637  0.00  0.00    +0.000 C 
ATOM      6  O   UNL     1       1.978   6.947  20.526  0.00  0.00    +0.000 OA
ATOM      7  C   UNL     1       0.772   9.879  18.702  0.00  0.00    +0.000 C 
ATOM      8  C   UNL     1       0.736  11.315  19.241  0.00  0.00    +0.000 C 
ENDROOT
BRANCH   1   9
ATOM      9  S   UNL     1      -0.947  12.865  20.712  0.00  0.00    +0.000 S 
ATOM     10  O   UNL     1      -0.388  13.851  19.810  0.00  0.00    +0.000 OA
ATOM     11  O   UNL     1      -0.901  13.052  22.144  0.00  0.00    +0.000 OA
BRANCH   9  15
ATOM     12  C   UNL     1      -4.602  11.211  17.319  0.00  0.00    +0.000 C 
ATOM     13  C   UNL     1      -4.299  11.814  18.663  0.00  0.00    +0.000 A 
ATOM     14  C   UNL     1      -2.959  12.018  19.032  0.00  0.00    +0.000 A 
ATOM     15  C   UNL     1      -2.648  12.622  20.257  0.00  0.00    +0.000 A 
ATOM     16  C   UNL     1      -3.657  12.978  21.152  0.00  0.00    +0.000 A 
ATOM     17  C   UNL     1      -4.988  12.759  20.803  0.00  0.00    +0.000 A 
ATOM     18  C   UNL     1      -5.308  12.188  19.566  0.00  0.00    +0.000 A 
ATOM     19 BR   UNL     1      -7.150  11.937  19.172  0.00  0.00    +0.000 Br
ENDBRANCH   9  15
ENDBRANCH   1   9
BRANCH   5  20
ATOM     20  C   UNL     1       2.747   7.695  18.389  0.00  0.00    +0.000 C 
BRANCH  20  21
ATOM     21  C   UNL     1       3.019   6.240  18.022  0.00  0.00    +0.000 C 
BRANCH  21  22
ATOM     22  C   UNL     1       4.412   5.802  18.437  0.00  0.00    +0.000 C 
ATOM     23  O   UNL     1       4.649   5.418  19.579  0.00  0.00    +0.000 OA
ATOM     24  N   UNL     1       5.389   5.863  17.454  0.00  0.00    +0.000 N 
ATOM     25  C   UNL     1       5.204   6.374  16.094  0.00  0.00    +0.000 C 
ATOM     26  C   UNL     1       5.859   5.437  15.073  0.00  0.00    +0.000 C 
ATOM     27  O   UNL     1       7.244   5.223  15.384  0.00  0.00    +0.000 OA
ATOM     28  C   UNL     1       7.384   4.634  16.690  0.00  0.00    +0.000 C 
ATOM     29  C   UNL     1       6.777   5.528  17.776  0.00  0.00    +0.000 C 
ENDBRANCH  21  22
ENDBRANCH  20  21
ENDBRANCH   5  20
TORSDOF 5
ENDMDL
MODEL 2
REMARK VINA RESULT:      -7.5      4.467     10.690
REMARK  Name = 
REMARK  6 active torsions:
REMARK  status: ('A' for Active; 'I' for Inactive)
REMARK    1  A    between atoms: C_1  and  C_2
REMARK    2  A    between atoms: C_4  and  S_5
REMARK    3  A    between atoms: S_5  and  N_8
REMARK    4  A    between atoms: C_12  and  C_14
REMARK    5  A    between atoms: C_14  and  C_15
REMARK    6  A    between atoms: C_15  and  C_16
REMARK                            x       y       z     vdW  Elec       q    Type
REMARK                         _______ _______ _______ _____ _____    ______ ____
ROOT
ATOM      1  N   UNL     1       3.897   5.327  18.548  0.00  0.00    +0.000 NA
ATOM      2  C   UNL     1       4.228   6.590  17.830  0.00  0.00    +0.000 C 
ATOM      3  C   UNL     1       2.937   7.413  17.657  0.00  0.00    +0.000 C 
ATOM      4  N   UNL     1       2.256   7.629  18.946  0.00  0.00    +0.000 N 
ATOM      5  C   UNL     1       1.669   8.859  19.201  0.00  0.00    +0.000 C 
ATOM      6  O   UNL     1       1.776   9.805  18.416  0.00  0.00    +0.000 OA
ATOM      7  C   UNL     1       2.037   6.402  19.731  0.00  0.00    +0.000 C 
ATOM      8  C   UNL     1       3.337   5.603  19.894  0.00  0.00    +0.000 C 
ENDROOT
BRANCH   1   9
ATOM      9  S   UNL     1       4.907   3.991  18.366  0.00  0.00    +0.000 S 
ATOM     10  O   UNL     1       4.071   2.822  18.182  0.00  0.00    +0.000 OA
ATOM     11  O   UNL     1       5.902   4.040  19.412  0.00  0.00    +0.000 OA
BRANCH   9  15
ATOM     12  C   UNL     1       5.083   3.772  13.119  0.00  0.00    +0.000 C 
ATOM     13  C   UNL     1       5.751   4.209  14.394  0.00  0.00    +0.000 A 
ATOM     14  C   UNL     1       5.113   3.957  15.619  0.00  0.00    +0.000 A 
ATOM     15  C   UNL     1       5.733   4.309  16.824  0.00  0.00    +0.000 A 
ATOM     16  C   UNL     1       6.964   4.966  16.826  0.00  0.00    +0.000 A 
ATOM     17  C   UNL     1       7.593   5.241  15.614  0.00  0.00    +0.000 A 
ATOM     18  C   UNL     1       6.996   4.859  14.406  0.00  0.00    +0.000 A 
ATOM     19 BR   UNL     1       7.933   5.264  12.804  0.00  0.00    +0.000 Br
ENDBRANCH   9  15
ENDBRANCH   1   9
BRANCH   5  20
ATOM     20  C   UNL     1       0.960   9.042  20.530  0.00  0.00    +0.000 C 
BRANCH  20  21
ATOM     21  C   UNL     1       0.692  10.515  20.817  0.00  0.00    +0.000 C 
BRANCH  21  22
ATOM     22  C   UNL     1      -0.104  10.708  22.095  0.00  0.00    +0.000 C 
ATOM     23  O   UNL     1       0.223  10.159  23.143  0.00  0.00    +0.000 OA
ATOM     24  N   UNL     1      -1.214  11.535  22.003  0.00  0.00    +0.000 N 
ATOM     25  C   UNL     1      -1.712  12.167  20.778  0.00  0.00    +0.000 C 
ATOM     26  C   UNL     1      -2.069  13.635  21.039  0.00  0.00    +0.000 C 
ATOM     27  O   UNL     1      -3.001  13.755  22.123  0.00  0.00    +0.000 OA
ATOM     28  C   UNL     1      -2.443  13.207  23.333  0.00  0.00    +0.000 C 
ATOM     29  C   UNL     1      -2.086  11.727  23.164  0.00  0.00    +0.000 C 
ENDBRANCH  21  22
ENDBRANCH  20  21
ENDBRANCH   5  20
TORSDOF 5
ENDMDL
MODEL 3
REMARK VINA RESULT:      -7.5      4.346     10.519
REMARK  Name = 
REMARK  6 active torsions:
REMARK  status: ('A' for Active; 'I' for Inactive)
REMARK    1  A    between atoms: C_1  and  C_2
REMARK    2  A    between atoms: C_4  and  S_5
REMARK    3  A    between atoms: S_5  and  N_8
REMARK    4  A    between atoms: C_12  and  C_14
REMARK    5  A    between atoms: C_14  and  C_15
REMARK    6  A    between atoms: C_15  and  C_16
REMARK                            x       y       z     vdW  Elec       q    Type
REMARK                         _______ _______ _______ _____ _____    ______ ____
ROOT
ATOM      1  N   UNL     1       3.639   5.223  18.640  0.00  0.00    +0.000 NA
ATOM      2  C   UNL     1       2.653   5.251  19.756  0.00  0.00    +0.000 C 
ATOM      3  C   UNL     1       2.546   6.694  20.286  0.00  0.00    +0.000 C 
ATOM      4  N   UNL     1       2.240   7.647  19.204  0.00  0.00    +0.000 N 
ATOM      5  C   UNL     1       1.358   8.687  19.452  0.00  0.00    +0.000 C 
ATOM      6  O   UNL     1       0.757   8.787  20.524  0.00  0.00    +0.000 OA
ATOM      7  C   UNL     1       3.129   7.543  18.033  0.00  0.00    +0.000 C 
ATOM      8  C   UNL     1       3.213   6.099  17.521  0.00  0.00    +0.000 C 
ENDROOT
BRANCH   1   9
ATOM      9  S   UNL     1       4.411   3.773  18.264  0.00  0.00    +0.000 S 
ATOM     10  O   UNL     1       3.402   2.832  17.820  0.00  0.00    +0.000 OA
ATOM     11  O   UNL     1       5.306   3.450  19.352  0.00  0.00    +0.000 OA
BRANCH   9  15
ATOM     12  C   UNL     1       5.336   3.670  13.093  0.00  0.00    +0.000 C 
ATOM     13  C   UNL     1       5.775   4.143  14.451  0.00  0.00    +0.000 A 
ATOM     14  C   UNL     1       5.000   3.810  15.573  0.00  0.00    +0.000 A 
ATOM     15  C   UNL     1       5.410   4.196  16.855  0.00  0.00    +0.000 A 
ATOM     16  C   UNL     1       6.561   4.965  17.034  0.00  0.00    +0.000 A 
ATOM     17  C   UNL     1       7.324   5.319  15.924  0.00  0.00    +0.000 A 
ATOM     18  C   UNL     1       6.940   4.906  14.642  0.00  0.00    +0.000 A 
ATOM     19 BR   UNL     1       8.048   5.427  13.190  0.00  0.00    +0.000 Br
ENDBRANCH   9  15
ENDBRANCH   1   9
BRANCH   5  20
ATOM     20  C   UNL     1       1.079   9.661  18.321  0.00  0.00    +0.000 C 
BRANCH  20  21
ATOM     21  C   UNL     1       0.065  10.719  18.740  0.00  0.00    +0.000 C 
BRANCH  21  22
ATOM     22  C   UNL     1      -1.253  10.563  18.003  0.00  0.00    +0.000 C 
ATOM     23  O   UNL     1      -1.411   9.698  17.147  0.00  0.00    +0.000 OA
ATOM     24  N   UNL     1      -2.257  11.454  18.355  0.00  0.00    +0.000 N 
ATOM     25  C   UNL     1      -2.127  12.557  19.311  0.00  0.00    +0.000 C 
ATOM     26  C   UNL     1      -3.340  12.601  20.248  0.00  0.00    +0.000 C 
ATOM     27  O   UNL     1      -4.564  12.675  19.504  0.00  0.00    +0.000 OA
ATOM     28  C   UNL     1      -4.704  11.530  18.643  0.00  0.00    +0.000 C 
ATOM     29  C   UNL     1      -3.541  11.430  17.651  0.00  0.00    +0.000 C 
ENDBRANCH  21  22
ENDBRANCH  20  21
ENDBRANCH   5  20
TORSDOF 5
ENDMDL
MODEL 4
REMARK VINA RESULT:      -7.5      2.086      3.315
REMARK  Name = 
REMARK  6 active torsions:
REMARK  status: ('A' for Active; 'I' for Inactive)
REMARK    1  A    between atoms: C_1  and  C_2
REMARK    2  A    between atoms: C_4  and  S_5
REMARK    3  A    between atoms: S_5  and  N_8
REMARK    4  A    between atoms: C_12  and  C_14
REMARK    5  A    between atoms: C_14  and  C_15
REMARK    6  A    between atoms: C_15  and  C_16
REMARK                            x       y       z     vdW  Elec       q    Type
REMARK                         _______ _______ _______ _____ _____    ______ ____
ROOT
ATOM      1  N   UNL     1       0.433  10.985  19.417  0.00  0.00    +0.000 NA
ATOM      2  C   UNL     1       0.801  10.273  20.672  0.00  0.00    +0.000 C 
ATOM      3  C   UNL     1       0.825   8.758  20.392  0.00  0.00    +0.000 C 
ATOM      4  N   UNL     1       1.700   8.432  19.250  0.00  0.00    +0.000 N 
ATOM      5  C   UNL     1       2.489   7.294  19.310  0.00  0.00    +0.000 C 
ATOM      6  O   UNL     1       2.545   6.595  20.324  0.00  0.00    +0.000 OA
ATOM      7  C   UNL     1       1.433   9.223  18.036  0.00  0.00    +0.000 C 
ATOM      8  C   UNL     1       1.421  10.727  18.340  0.00  0.00    +0.000 C 
ENDROOT
BRANCH   1   9
ATOM      9  S   UNL     1      -0.251  12.523  19.516  0.00  0.00    +0.000 S 
ATOM     10  O   UNL     1       0.278  13.317  18.426  0.00  0.00    +0.000 OA
ATOM     11  O   UNL     1      -0.143  12.970  20.886  0.00  0.00    +0.000 OA
BRANCH   9  15
ATOM     12  C   UNL     1      -5.316  12.858  20.869  0.00  0.00    +0.000 C 
ATOM     13  C   UNL     1      -4.303  12.435  19.842  0.00  0.00    +0.000 A 
ATOM     14  C   UNL     1      -2.940  12.655  20.097  0.00  0.00    +0.000 A 
ATOM     15  C   UNL     1      -1.972  12.227  19.181  0.00  0.00    +0.000 A 
ATOM     16  C   UNL     1      -2.345  11.629  17.977  0.00  0.00    +0.000 A 
ATOM     17  C   UNL     1      -3.696  11.427  17.705  0.00  0.00    +0.000 A 
ATOM     18  C   UNL     1      -4.669  11.819  18.633  0.00  0.00    +0.000 A 
ATOM     19 BR   UNL     1      -6.485  11.493  18.182  0.00  0.00    +0.000 Br
ENDBRANCH   9  15
ENDBRANCH   1   9
BRANCH   5  20
ATOM     20  C   UNL     1       3.364   6.979  18.110  0.00  0.00    +0.000 C 
BRANCH  20  21
ATOM     21  C   UNL     1       3.181   5.535  17.656  0.00  0.00    +0.000 C 
BRANCH  21  22
ATOM     22  C   UNL     1       3.876   4.557  18.585  0.00  0.00    +0.000 C 
ATOM     23  O   UNL     1       5.095   4.565  18.729  0.00  0.00    +0.000 OA
ATOM     24  N   UNL     1       3.054   3.660  19.253  0.00  0.00    +0.000 N 
ATOM     25  C   UNL     1       1.604   3.538  19.081  0.00  0.00    +0.000 C 
ATOM     26  C   UNL     1       0.910   3.418  20.443  0.00  0.00    +0.000 C 
ATOM     27  O   UNL     1       1.456   2.332  21.206  0.00  0.00    +0.000 OA
ATOM     28  C   UNL     1       2.863   2.531  21.435  0.00  0.00    +0.000 C 
ATOM     29  C   UNL     1       3.636   2.631  20.116  0.00  0.00    +0.000 C 
ENDBRANCH  21  22
ENDBRANCH  20  21
ENDBRANCH   5  20
TORSDOF 5
ENDMDL
MODEL 5
REMARK VINA RESULT:      -7.4      4.455     10.219
REMARK  Name = 
REMARK  6 active torsions:
REMARK  status: ('A' for Active; 'I' for Inactive)
REMARK    1  A    between atoms: C_1  and  C_2
REMARK    2  A    between atoms: C_4  and  S_5
REMARK    3  A    between atoms: S_5  and  N_8
REMARK    4  A    between atoms: C_12  and  C_14
REMARK    5  A    between atoms: C_14  and  C_15
REMARK    6  A    between atoms: C_15  and  C_16
REMARK                            x       y       z     vdW  Elec       q    Type
REMARK                         _______ _______ _______ _____ _____    ______ ____
ROOT
ATOM      1  N   UNL     1       3.550   5.149  18.626  0.00  0.00    +0.000 NA
ATOM      2  C   UNL     1       2.492   5.151  19.674  0.00  0.00    +0.000 C 
ATOM      3  C   UNL     1       2.448   6.545  20.331  0.00  0.00    +0.000 C 
ATOM      4  N   UNL     1       2.285   7.612  19.326  0.00  0.00    +0.000 N 
ATOM      5  C   UNL     1       1.461   8.689  19.615  0.00  0.00    +0.000 C 
ATOM      6  O   UNL     1       0.795   8.737  20.652  0.00  0.00    +0.000 OA
ATOM      7  C   UNL     1       3.244   7.546  18.210  0.00  0.00    +0.000 C 
ATOM      8  C   UNL     1       3.264   6.152  17.570  0.00  0.00    +0.000 C 
ENDROOT
BRANCH   1   9
ATOM      9  S   UNL     1       4.245   3.685  18.165  0.00  0.00    +0.000 S 
ATOM     10  O   UNL     1       3.192   2.835  17.647  0.00  0.00    +0.000 OA
ATOM     11  O   UNL     1       5.102   3.241  19.240  0.00  0.00    +0.000 OA
BRANCH   9  15
ATOM     12  C   UNL     1       5.312   3.748  13.020  0.00  0.00    +0.000 C 
ATOM     13  C   UNL     1       5.720   4.167  14.406  0.00  0.00    +0.000 A 
ATOM     14  C   UNL     1       4.909   3.807  15.494  0.00  0.00    +0.000 A 
ATOM     15  C   UNL     1       5.289   4.141  16.799  0.00  0.00    +0.000 A 
ATOM     16  C   UNL     1       6.445   4.885  17.036  0.00  0.00    +0.000 A 
ATOM     17  C   UNL     1       7.244   5.266  15.961  0.00  0.00    +0.000 A 
ATOM     18  C   UNL     1       6.890   4.904  14.655  0.00  0.00    +0.000 A 
ATOM     19 BR   UNL     1       8.046   5.458  13.253  0.00  0.00    +0.000 Br
ENDBRANCH   9  15
ENDBRANCH   1   9
BRANCH   5  20
ATOM     20  C   UNL     1       1.330   9.778  18.566  0.00  0.00    +0.000 C 
BRANCH  20  21
ATOM     21  C   UNL     1       0.071   9.589  17.727  0.00  0.00    +0.000 C 
BRANCH  21  22
ATOM     22  C   UNL     1      -1.108  10.360  18.293  0.00  0.00    +0.000 C 
ATOM     23  O   UNL     1      -1.015  10.996  19.339  0.00  0.00    +0.000 OA
ATOM     24  N   UNL     1      -2.285  10.299  17.562  0.00  0.00    +0.000 N 
ATOM     25  C   UNL     1      -2.497   9.506  16.347  0.00  0.00    +0.000 C 
ATOM     26  C   UNL     1      -3.228  10.337  15.286  0.00  0.00    +0.000 C 
ATOM     27  O   UNL     1      -4.457  10.869  15.803  0.00  0.00    +0.000 OA
ATOM     28  C   UNL     1      -4.202  11.717  16.939  0.00  0.00    +0.000 C 
ATOM     29  C   UNL     1      -3.496  10.950  18.062  0.00  0.00    +0.000 C 
ENDBRANCH  21  22
ENDBRANCH  20  21
ENDBRANCH   5  20
TORSDOF 5
ENDMDL
MODEL 6
REMARK VINA RESULT:      -7.4      4.684     10.282
REMARK  Name = 
REMARK  6 active torsions:
REMARK  status: ('A' for Active; 'I' for Inactive)
REMARK    1  A    between atoms: C_1  and  C_2
REMARK    2  A    between atoms: C_4  and  S_5
REMARK    3  A    between atoms: S_5  and  N_8
REMARK    4  A    between atoms: C_12  and  C_14
REMARK    5  A    between atoms: C_14  and  C_15
REMARK    6  A    between atoms: C_15  and  C_16
REMARK                            x       y       z     vdW  Elec       q    Type
REMARK                         _______ _______ _______ _____ _____    ______ ____
ROOT
ATOM      1  N   UNL     1       3.862   5.249  18.562  0.00  0.00    +0.000 NA
ATOM      2  C   UNL     1       4.178   6.518  17.851  0.00  0.00    +0.000 C 
ATOM      3  C   UNL     1       2.883   7.344  17.716  0.00  0.00    +0.000 C 
ATOM      4  N   UNL     1       2.231   7.546  19.022  0.00  0.00    +0.000 N 
ATOM      5  C   UNL     1       1.651   8.774  19.303  0.00  0.00    +0.000 C 
ATOM      6  O   UNL     1       1.740   9.727  18.526  0.00  0.00    +0.000 OA
ATOM      7  C   UNL     1       2.029   6.310  19.798  0.00  0.00    +0.000 C 
ATOM      8  C   UNL     1       3.332   5.510  19.923  0.00  0.00    +0.000 C 
ENDROOT
BRANCH   1   9
ATOM      9  S   UNL     1       4.867   3.914  18.343  0.00  0.00    +0.000 S 
ATOM     10  O   UNL     1       4.027   2.755  18.118  0.00  0.00    +0.000 OA
ATOM     11  O   UNL     1       5.857   3.925  19.396  0.00  0.00    +0.000 OA
BRANCH   9  15
ATOM     12  C   UNL     1       5.127   3.748  13.098  0.00  0.00    +0.000 C 
ATOM     13  C   UNL     1       5.759   4.199  14.386  0.00  0.00    +0.000 A 
ATOM     14  C   UNL     1       5.114   3.912  15.600  0.00  0.00    +0.000 A 
ATOM     15  C   UNL     1       5.702   4.277  16.816  0.00  0.00    +0.000 A 
ATOM     16  C   UNL     1       6.907   4.981  16.842  0.00  0.00    +0.000 A 
ATOM     17  C   UNL     1       7.543   5.289  15.642  0.00  0.00    +0.000 A 
ATOM     18  C   UNL     1       6.978   4.896  14.422  0.00  0.00    +0.000 A 
ATOM     19 BR   UNL     1       7.922   5.351  12.838  0.00  0.00    +0.000 Br
ENDBRANCH   9  15
ENDBRANCH   1   9
BRANCH   5  20
ATOM     20  C   UNL     1       0.972   8.942  20.650  0.00  0.00    +0.000 C 
BRANCH  20  21
ATOM     21  C   UNL     1      -0.198   9.915  20.562  0.00  0.00    +0.000 C 
BRANCH  21  22
ATOM     22  C   UNL     1      -0.043  11.076  21.527  0.00  0.00    +0.000 C 
ATOM     23  O   UNL     1      -0.032  10.903  22.743  0.00  0.00    +0.000 OA
ATOM     24  N   UNL     1       0.082  12.333  20.954  0.00  0.00    +0.000 N 
ATOM     25  C   UNL     1       0.006  12.632  19.521  0.00  0.00    +0.000 C 
ATOM     26  C   UNL     1       1.126  13.597  19.114  0.00  0.00    +0.000 C 
ATOM     27  O   UNL     1       1.097  14.787  19.914  0.00  0.00    +0.000 OA
ATOM     28  C   UNL     1       1.268  14.465  21.307  0.00  0.00    +0.000 C 
ATOM     29  C   UNL     1       0.165  13.523  21.802  0.00  0.00    +0.000 C 
ENDBRANCH  21  22
ENDBRANCH  20  21
ENDBRANCH   5  20
TORSDOF 5
ENDMDL
MODEL 7
REMARK VINA RESULT:      -7.4      1.401      1.715
REMARK  Name = 
REMARK  6 active torsions:
REMARK  status: ('A' for Active; 'I' for Inactive)
REMARK    1  A    between atoms: C_1  and  C_2
REMARK    2  A    between atoms: C_4  and  S_5
REMARK    3  A    between atoms: S_5  and  N_8
REMARK    4  A    between atoms: C_12  and  C_14
REMARK    5  A    between atoms: C_14  and  C_15
REMARK    6  A    between atoms: C_15  and  C_16
REMARK                            x       y       z     vdW  Elec       q    Type
REMARK                         _______ _______ _______ _____ _____    ______ ____
ROOT
ATOM      1  N   UNL     1       0.629  10.344  20.554  0.00  0.00    +0.000 NA
ATOM      2  C   UNL     1       0.847   9.432  21.710  0.00  0.00    +0.000 C 
ATOM      3  C   UNL     1       0.715   7.976  21.224  0.00  0.00    +0.000 C 
ATOM      4  N   UNL     1       1.608   7.704  20.082  0.00  0.00    +0.000 N 
ATOM      5  C   UNL     1       2.261   6.483  20.013  0.00  0.00    +0.000 C 
ATOM      6  O   UNL     1       2.183   5.653  20.922  0.00  0.00    +0.000 OA
ATOM      7  C   UNL     1       1.498   8.676  18.981  0.00  0.00    +0.000 C 
ATOM      8  C   UNL     1       1.639  10.117  19.490  0.00  0.00    +0.000 C 
ENDROOT
BRANCH   1   9
ATOM      9  S   UNL     1       0.119  11.925  20.839  0.00  0.00    +0.000 S 
ATOM     10  O   UNL     1       0.994  12.816  20.105  0.00  0.00    +0.000 OA
ATOM     11  O   UNL     1      -0.079  12.078  22.262  0.00  0.00    +0.000 OA
BRANCH   9  15
ATOM     12  C   UNL     1      -3.152  10.597  16.948  0.00  0.00    +0.000 C 
ATOM     13  C   UNL     1      -2.961  11.316  18.255  0.00  0.00    +0.000 A 
ATOM     14  C   UNL     1      -1.701  11.284  18.873  0.00  0.00    +0.000 A 
ATOM     15  C   UNL     1      -1.481  11.984  20.065  0.00  0.00    +0.000 A 
ATOM     16  C   UNL     1      -2.521  12.676  20.687  0.00  0.00    +0.000 A 
ATOM     17  C   UNL     1      -3.780  12.694  20.092  0.00  0.00    +0.000 A 
ATOM     18  C   UNL     1      -3.999  12.026  18.881  0.00  0.00    +0.000 A 
ATOM     19 BR   UNL     1      -5.745  12.116  18.138  0.00  0.00    +0.000 Br
ENDBRANCH   9  15
ENDBRANCH   1   9
BRANCH   5  20
ATOM     20  C   UNL     1       3.157   6.229  18.815  0.00  0.00    +0.000 C 
BRANCH  20  21
ATOM     21  C   UNL     1       3.873   4.888  18.934  0.00  0.00    +0.000 C 
BRANCH  21  22
ATOM     22  C   UNL     1       4.142   4.267  17.576  0.00  0.00    +0.000 C 
ATOM     23  O   UNL     1       3.284   3.616  16.986  0.00  0.00    +0.000 OA
ATOM     24  N   UNL     1       5.408   4.479  17.049  0.00  0.00    +0.000 N 
ATOM     25  C   UNL     1       6.508   5.179  17.718  0.00  0.00    +0.000 C 
ATOM     26  C   UNL     1       7.196   6.147  16.748  0.00  0.00    +0.000 C 
ATOM     27  O   UNL     1       7.633   5.467  15.563  0.00  0.00    +0.000 OA
ATOM     28  C   UNL     1       6.515   4.869  14.881  0.00  0.00    +0.000 C 
ATOM     29  C   UNL     1       5.788   3.861  15.777  0.00  0.00    +0.000 C 
ENDBRANCH  21  22
ENDBRANCH  20  21
ENDBRANCH   5  20
TORSDOF 5
ENDMDL
MODEL 8
REMARK VINA RESULT:      -7.3      1.138      1.814
REMARK  Name = 
REMARK  6 active torsions:
REMARK  status: ('A' for Active; 'I' for Inactive)
REMARK    1  A    between atoms: C_1  and  C_2
REMARK    2  A    between atoms: C_4  and  S_5
REMARK    3  A    between atoms: S_5  and  N_8
REMARK    4  A    between atoms: C_12  and  C_14
REMARK    5  A    between atoms: C_14  and  C_15
REMARK    6  A    between atoms: C_15  and  C_16
REMARK                            x       y       z     vdW  Elec       q    Type
REMARK                         _______ _______ _______ _____ _____    ______ ____
ROOT
ATOM      1  N   UNL     1       0.174  10.996  19.605  0.00  0.00    +0.000 NA
ATOM      2  C   UNL     1       0.364  10.319  20.918  0.00  0.00    +0.000 C 
ATOM      3  C   UNL     1       0.378   8.795  20.691  0.00  0.00    +0.000 C 
ATOM      4  N   UNL     1       1.377   8.408  19.678  0.00  0.00    +0.000 N 
ATOM      5  C   UNL     1       2.120   7.253  19.871  0.00  0.00    +0.000 C 
ATOM      6  O   UNL     1       2.029   6.589  20.906  0.00  0.00    +0.000 OA
ATOM      7  C   UNL     1       1.286   9.163  18.416  0.00  0.00    +0.000 C 
ATOM      8  C   UNL     1       1.280  10.676  18.669  0.00  0.00    +0.000 C 
ENDROOT
BRANCH   1   9
ATOM      9  S   UNL     1      -0.471  12.553  19.570  0.00  0.00    +0.000 S 
ATOM     10  O   UNL     1       0.080  13.238  18.418  0.00  0.00    +0.000 OA
ATOM     11  O   UNL     1      -0.355  13.112  20.897  0.00  0.00    +0.000 OA
BRANCH   9  15
ATOM     12  C   UNL     1      -5.522  12.991  20.947  0.00  0.00    +0.000 C 
ATOM     13  C   UNL     1      -4.522  12.528  19.924  0.00  0.00    +0.000 A 
ATOM     14  C   UNL     1      -3.154  12.736  20.165  0.00  0.00    +0.000 A 
ATOM     15  C   UNL     1      -2.198  12.272  19.254  0.00  0.00    +0.000 A 
ATOM     16  C   UNL     1      -2.587  11.649  18.067  0.00  0.00    +0.000 A 
ATOM     17  C   UNL     1      -3.943  11.458  17.810  0.00  0.00    +0.000 A 
ATOM     18  C   UNL     1      -4.904  11.887  18.733  0.00  0.00    +0.000 A 
ATOM     19 BR   UNL     1      -6.728  11.574  18.303  0.00  0.00    +0.000 Br
ENDBRANCH   9  15
ENDBRANCH   1   9
BRANCH   5  20
ATOM     20  C   UNL     1       3.126   6.875  18.801  0.00  0.00    +0.000 C 
BRANCH  20  21
ATOM     21  C   UNL     1       3.745   5.510  19.081  0.00  0.00    +0.000 C 
BRANCH  21  22
ATOM     22  C   UNL     1       4.029   4.742  17.803  0.00  0.00    +0.000 C 
ATOM     23  O   UNL     1       3.165   4.058  17.260  0.00  0.00    +0.000 OA
ATOM     24  N   UNL     1       5.313   4.861  17.292  0.00  0.00    +0.000 N 
ATOM     25  C   UNL     1       6.417   5.596  17.915  0.00  0.00    +0.000 C 
ATOM     26  C   UNL     1       7.159   6.438  16.870  0.00  0.00    +0.000 C 
ATOM     27  O   UNL     1       7.604   5.625  15.775  0.00  0.00    +0.000 OA
ATOM     28  C   UNL     1       6.485   4.991  15.128  0.00  0.00    +0.000 C 
ATOM     29  C   UNL     1       5.704   4.103  16.103  0.00  0.00    +0.000 C 
ENDBRANCH  21  22
ENDBRANCH  20  21
ENDBRANCH   5  20
TORSDOF 5
ENDMDL
MODEL 9
REMARK VINA RESULT:      -7.3      1.892      2.973
REMARK  Name = 
REMARK  6 active torsions:
REMARK  status: ('A' for Active; 'I' for Inactive)
REMARK    1  A    between atoms: C_1  and  C_2
REMARK    2  A    between atoms: C_4  and  S_5
REMARK    3  A    between atoms: S_5  and  N_8
REMARK    4  A    between atoms: C_12  and  C_14
REMARK    5  A    between atoms: C_14  and  C_15
REMARK    6  A    between atoms: C_15  and  C_16
REMARK                            x       y       z     vdW  Elec       q    Type
REMARK                         _______ _______ _______ _____ _____    ______ ____
ROOT
ATOM      1  N   UNL     1      -0.139  11.071  21.288  0.00  0.00    +0.000 NA
ATOM      2  C   UNL     1       0.066   9.951  22.248  0.00  0.00    +0.000 C 
ATOM      3  C   UNL     1       0.074   8.624  21.465  0.00  0.00    +0.000 C 
ATOM      4  N   UNL     1       1.060   8.649  20.368  0.00  0.00    +0.000 N 
ATOM      5  C   UNL     1       1.803   7.509  20.104  0.00  0.00    +0.000 C 
ATOM      6  O   UNL     1       1.725   6.503  20.814  0.00  0.00    +0.000 OA
ATOM      7  C   UNL     1       0.954   9.822  19.484  0.00  0.00    +0.000 C 
ATOM      8  C   UNL     1       0.953  11.129  20.286  0.00  0.00    +0.000 C 
ENDROOT
BRANCH   1   9
ATOM      9  S   UNL     1      -0.782  12.525  21.849  0.00  0.00    +0.000 S 
ATOM     10  O   UNL     1      -0.067  13.607  21.203  0.00  0.00    +0.000 OA
ATOM     11  O   UNL     1      -0.874  12.444  23.288  0.00  0.00    +0.000 OA
BRANCH   9  15
ATOM     12  C   UNL     1      -5.968  13.062  22.500  0.00  0.00    +0.000 C 
ATOM     13  C   UNL     1      -4.829  12.803  21.553  0.00  0.00    +0.000 A 
ATOM     14  C   UNL     1      -3.516  12.800  22.051  0.00  0.00    +0.000 A 
ATOM     15  C   UNL     1      -2.439  12.514  21.203  0.00  0.00    +0.000 A 
ATOM     16  C   UNL     1      -2.645  12.285  19.842  0.00  0.00    +0.000 A 
ATOM     17  C   UNL     1      -3.943  12.307  19.336  0.00  0.00    +0.000 A 
ATOM     18  C   UNL     1      -5.028  12.557  20.184  0.00  0.00    +0.000 A 
ATOM     19 BR   UNL     1      -6.761  12.557  19.407  0.00  0.00    +0.000 Br
ENDBRANCH   9  15
ENDBRANCH   1   9
BRANCH   5  20
ATOM     20  C   UNL     1       2.795   7.563  18.957  0.00  0.00    +0.000 C 
BRANCH  20  21
ATOM     21  C   UNL     1       2.388   6.623  17.828  0.00  0.00    +0.000 C 
BRANCH  21  22
ATOM     22  C   UNL     1       3.344   5.453  17.692  0.00  0.00    +0.000 C 
ATOM     23  O   UNL     1       4.520   5.619  17.380  0.00  0.00    +0.000 OA
ATOM     24  N   UNL     1       2.810   4.196  17.939  0.00  0.00    +0.000 N 
ATOM     25  C   UNL     1       1.406   3.908  18.245  0.00  0.00    +0.000 C 
ATOM     26  C   UNL     1       1.303   2.919  19.411  0.00  0.00    +0.000 C 
ATOM     27  O   UNL     1       2.052   1.724  19.142  0.00  0.00    +0.000 OA
ATOM     28  C   UNL     1       3.443   2.034  18.939  0.00  0.00    +0.000 C 
ATOM     29  C   UNL     1       3.635   3.000  17.765  0.00  0.00    +0.000 C 
ENDBRANCH  21  22
ENDBRANCH  20  21
ENDBRANCH   5  20
TORSDOF 5
ENDMDL
