MODEL 1
REMARK VINA RESULT:      -7.2      0.000      0.000
REMARK  Name = 
REMARK  8 active torsions:
REMARK  status: ('A' for Active; 'I' for Inactive)
REMARK    1  A    between atoms: C_2  and  C_3
REMARK    2  A    between atoms: C_3  and  C_4
REMARK    3  A    between atoms: C_4  and  C_5
REMARK    4  A    between atoms: C_5  and  N_6
REMARK    5  A    between atoms: C_7  and  S_8
REMARK    6  A    between atoms: S_8  and  C_9
REMARK    7  A    between atoms: C_11  and  O_12
REMARK    8  A    between atoms: O_12  and  C_13
REMARK                            x       y       z     vdW  Elec       q    Type
REMARK                         _______ _______ _______ _____ _____    ______ ____
ROOT
ATOM      1  N   UNL     1       2.206   6.791  19.662  0.00  0.00    +0.000 N 
ATOM      2  C   UNL     1       2.647   6.945  18.367  0.00  0.00    +0.000 A 
ATOM      3  N   UNL     1       2.435   8.172  17.934  0.00  0.00    +0.000 NA
ATOM      4  C   UNL     1       1.731   8.799  18.944  0.00  0.00    +0.000 A 
ATOM      5  C   UNL     1       1.214  10.097  19.100  0.00  0.00    +0.000 A 
ATOM      6  N   UNL     1       1.409  11.108  18.180  0.00  0.00    +0.000 N 
ATOM      7  N   UNL     1       0.505  10.383  20.220  0.00  0.00    +0.000 NA
ATOM      8  C   UNL     1       0.372   9.427  21.160  0.00  0.00    +0.000 A 
ATOM      9  N   UNL     1       0.875   8.181  21.148  0.00  0.00    +0.000 NA
ATOM     10  C   UNL     1       1.540   7.939  20.006  0.00  0.00    +0.000 A 
ATOM     11  H   UNL     1       1.709  10.825  17.257  0.00  0.00    +0.000 HD
ATOM     12  H   UNL     1       0.805  11.909  18.297  0.00  0.00    +0.000 HD
ENDROOT
BRANCH   1  13
ATOM     13  C   UNL     1       2.369   5.685  20.584  0.00  0.00    +0.000 C 
BRANCH  13  14
ATOM     14  C   UNL     1       1.185   4.733  20.581  0.00  0.00    +0.000 C 
BRANCH  14  15
ATOM     15  C   UNL     1       1.638   3.294  20.746  0.00  0.00    +0.000 C 
BRANCH  15  17
ATOM     16  C   UNL     1       2.018   2.213  18.164  0.00  0.00    +0.000 C 
ATOM     17  C   UNL     1       1.842   2.712  19.356  0.00  0.00    +0.000 C 
ENDBRANCH  15  17
ENDBRANCH  14  15
ENDBRANCH  13  14
ENDBRANCH   1  13
BRANCH   2  18
ATOM     18  S   UNL     1       3.524   5.707  17.519  0.00  0.00    +0.000 S 
BRANCH  18  19
ATOM     19  C   UNL     1       5.272   5.950  17.899  0.00  0.00    +0.000 A 
ATOM     20  C   UNL     1       6.022   7.026  17.404  0.00  0.00    +0.000 A 
ATOM     21  C   UNL     1       7.359   7.248  17.766  0.00  0.00    +0.000 A 
ATOM     22  C   UNL     1       7.980   6.382  18.659  0.00  0.00    +0.000 A 
ATOM     23  C   UNL     1       7.270   5.290  19.157  0.00  0.00    +0.000 A 
ATOM     24  C   UNL     1       5.938   5.068  18.781  0.00  0.00    +0.000 A 
ATOM     25 CL   UNL     1       5.181   3.662  19.459  0.00  0.00    +0.000 Cl
BRANCH  21  26
ATOM     26  O   UNL     1       7.938   8.340  17.186  0.00  0.00    +0.000 OA
ATOM     27  C   UNL     1       8.376   9.379  18.044  0.00  0.00    +0.000 C 
ENDBRANCH  21  26
ENDBRANCH  18  19
ENDBRANCH   2  18
TORSDOF 7
ENDMDL
MODEL 2
REMARK VINA RESULT:      -6.7      3.961      7.285
REMARK  Name = 
REMARK  8 active torsions:
REMARK  status: ('A' for Active; 'I' for Inactive)
REMARK    1  A    between atoms: C_2  and  C_3
REMARK    2  A    between atoms: C_3  and  C_4
REMARK    3  A    between atoms: C_4  and  C_5
REMARK    4  A    between atoms: C_5  and  N_6
REMARK    5  A    between atoms: C_7  and  S_8
REMARK    6  A    between atoms: S_8  and  C_9
REMARK    7  A    between atoms: C_11  and  O_12
REMARK    8  A    between atoms: O_12  and  C_13
REMARK                            x       y       z     vdW  Elec       q    Type
REMARK                         _______ _______ _______ _____ _____    ______ ____
ROOT
ATOM      1  N   UNL     1       6.642   4.632  16.474  0.00  0.00    +0.000 N 
ATOM      2  C   UNL     1       5.536   3.818  16.575  0.00  0.00    +0.000 A 
ATOM      3  N   UNL     1       5.208   3.313  15.402  0.00  0.00    +0.000 NA
ATOM      4  C   UNL     1       6.063   3.910  14.495  0.00  0.00    +0.000 A 
ATOM      5  C   UNL     1       6.227   3.798  13.103  0.00  0.00    +0.000 A 
ATOM      6  N   UNL     1       5.515   2.908  12.323  0.00  0.00    +0.000 N 
ATOM      7  N   UNL     1       7.145   4.587  12.492  0.00  0.00    +0.000 NA
ATOM      8  C   UNL     1       7.899   5.405  13.252  0.00  0.00    +0.000 A 
ATOM      9  N   UNL     1       7.875   5.546  14.588  0.00  0.00    +0.000 NA
ATOM     10  C   UNL     1       6.929   4.768  15.140  0.00  0.00    +0.000 A 
ATOM     11  H   UNL     1       4.678   2.519  12.735  0.00  0.00    +0.000 HD
ATOM     12  H   UNL     1       5.560   3.085  11.331  0.00  0.00    +0.000 HD
ENDROOT
BRANCH   1  13
ATOM     13  C   UNL     1       7.439   5.265  17.506  0.00  0.00    +0.000 C 
BRANCH  13  14
ATOM     14  C   UNL     1       7.303   6.778  17.513  0.00  0.00    +0.000 C 
BRANCH  14  15
ATOM     15  C   UNL     1       8.169   7.401  18.594  0.00  0.00    +0.000 C 
BRANCH  15  17
ATOM     16  C   UNL     1       8.533  10.123  17.937  0.00  0.00    +0.000 C 
ATOM     17  C   UNL     1       8.365   8.867  18.240  0.00  0.00    +0.000 C 
ENDBRANCH  15  17
ENDBRANCH  14  15
ENDBRANCH  13  14
ENDBRANCH   1  13
BRANCH   2  18
ATOM     18  S   UNL     1       4.812   3.402  18.098  0.00  0.00    +0.000 S 
BRANCH  18  19
ATOM     19  C   UNL     1       3.818   4.818  18.610  0.00  0.00    +0.000 A 
ATOM     20  C   UNL     1       3.747   6.011  17.877  0.00  0.00    +0.000 A 
ATOM     21  C   UNL     1       2.913   7.078  18.243  0.00  0.00    +0.000 A 
ATOM     22  C   UNL     1       2.108   6.962  19.371  0.00  0.00    +0.000 A 
ATOM     23  C   UNL     1       2.167   5.798  20.136  0.00  0.00    +0.000 A 
ATOM     24  C   UNL     1       3.012   4.741  19.770  0.00  0.00    +0.000 A 
ATOM     25 CL   UNL     1       3.002   3.360  20.821  0.00  0.00    +0.000 Cl
BRANCH  21  26
ATOM     26  O   UNL     1       2.972   8.164  17.418  0.00  0.00    +0.000 OA
ATOM     27  C   UNL     1       2.181   9.288  17.761  0.00  0.00    +0.000 C 
ENDBRANCH  21  26
ENDBRANCH  18  19
ENDBRANCH   2  18
TORSDOF 7
ENDMDL
MODEL 3
REMARK VINA RESULT:      -6.5      1.927      2.070
REMARK  Name = 
REMARK  8 active torsions:
REMARK  status: ('A' for Active; 'I' for Inactive)
REMARK    1  A    between atoms: C_2  and  C_3
REMARK    2  A    between atoms: C_3  and  C_4
REMARK    3  A    between atoms: C_4  and  C_5
REMARK    4  A    between atoms: C_5  and  N_6
REMARK    5  A    between atoms: C_7  and  S_8
REMARK    6  A    between atoms: S_8  and  C_9
REMARK    7  A    between atoms: C_11  and  O_12
REMARK    8  A    between atoms: O_12  and  C_13
REMARK                            x       y       z     vdW  Elec       q    Type
REMARK                         _______ _______ _______ _____ _____    ______ ____
ROOT
ATOM      1  N   UNL     1       2.162   6.428  19.650  0.00  0.00    +0.000 N 
ATOM      2  C   UNL     1       2.457   6.390  18.305  0.00  0.00    +0.000 A 
ATOM      3  N   UNL     1       2.370   7.590  17.765  0.00  0.00    +0.000 NA
ATOM      4  C   UNL     1       1.893   8.410  18.770  0.00  0.00    +0.000 A 
ATOM      5  C   UNL     1       1.589   9.781  18.835  0.00  0.00    +0.000 A 
ATOM      6  N   UNL     1       1.811  10.659  17.793  0.00  0.00    +0.000 N 
ATOM      7  N   UNL     1       1.071  10.276  19.986  0.00  0.00    +0.000 NA
ATOM      8  C   UNL     1       0.921   9.445  21.035  0.00  0.00    +0.000 A 
ATOM      9  N   UNL     1       1.237   8.141  21.107  0.00  0.00    +0.000 NA
ATOM     10  C   UNL     1       1.714   7.693  19.934  0.00  0.00    +0.000 A 
ATOM     11  H   UNL     1       1.951  10.249  16.880  0.00  0.00    +0.000 HD
ATOM     12  H   UNL     1       1.347  11.551  17.884  0.00  0.00    +0.000 HD
ENDROOT
BRANCH   1  13
ATOM     13  C   UNL     1       2.279   5.402  20.666  0.00  0.00    +0.000 C 
BRANCH  13  14
ATOM     14  C   UNL     1       1.188   4.349  20.570  0.00  0.00    +0.000 C 
BRANCH  14  15
ATOM     15  C   UNL     1       1.575   3.088  21.321  0.00  0.00    +0.000 C 
BRANCH  15  17
ATOM     16  C   UNL     1       4.087   2.244  20.344  0.00  0.00    +0.000 C 
ATOM     17  C   UNL     1       2.927   2.634  20.795  0.00  0.00    +0.000 C 
ENDBRANCH  15  17
ENDBRANCH  14  15
ENDBRANCH  13  14
ENDBRANCH   1  13
BRANCH   2  18
ATOM     18  S   UNL     1       3.037   4.958  17.511  0.00  0.00    +0.000 S 
BRANCH  18  19
ATOM     19  C   UNL     1       4.835   4.961  17.674  0.00  0.00    +0.000 A 
ATOM     20  C   UNL     1       5.495   5.185  18.891  0.00  0.00    +0.000 A 
ATOM     21  C   UNL     1       6.889   5.109  19.022  0.00  0.00    +0.000 A 
ATOM     22  C   UNL     1       7.665   4.790  17.913  0.00  0.00    +0.000 A 
ATOM     23  C   UNL     1       7.045   4.581  16.683  0.00  0.00    +0.000 A 
ATOM     24  C   UNL     1       5.651   4.670  16.557  0.00  0.00    +0.000 A 
ATOM     25 CL   UNL     1       5.014   4.405  14.965  0.00  0.00    +0.000 Cl
BRANCH  21  26
ATOM     26  O   UNL     1       7.363   5.360  20.278  0.00  0.00    +0.000 OA
ATOM     27  C   UNL     1       8.767   5.315  20.467  0.00  0.00    +0.000 C 
ENDBRANCH  21  26
ENDBRANCH  18  19
ENDBRANCH   2  18
TORSDOF 7
ENDMDL
MODEL 4
REMARK VINA RESULT:      -6.4      2.120      2.514
REMARK  Name = 
REMARK  8 active torsions:
REMARK  status: ('A' for Active; 'I' for Inactive)
REMARK    1  A    between atoms: C_2  and  C_3
REMARK    2  A    between atoms: C_3  and  C_4
REMARK    3  A    between atoms: C_4  and  C_5
REMARK    4  A    between atoms: C_5  and  N_6
REMARK    5  A    between atoms: C_7  and  S_8
REMARK    6  A    between atoms: S_8  and  C_9
REMARK    7  A    between atoms: C_11  and  O_12
REMARK    8  A    between atoms: O_12  and  C_13
REMARK                            x       y       z     vdW  Elec       q    Type
REMARK                         _______ _______ _______ _____ _____    ______ ____
ROOT
ATOM      1  N   UNL     1       2.309   5.884  19.609  0.00  0.00    +0.000 N 
ATOM      2  C   UNL     1       2.638   5.804  18.275  0.00  0.00    +0.000 A 
ATOM      3  N   UNL     1       2.572   6.986  17.695  0.00  0.00    +0.000 NA
ATOM      4  C   UNL     1       2.074   7.839  18.662  0.00  0.00    +0.000 A 
ATOM      5  C   UNL     1       1.776   9.213  18.678  0.00  0.00    +0.000 A 
ATOM      6  N   UNL     1       2.030  10.058  17.616  0.00  0.00    +0.000 N 
ATOM      7  N   UNL     1       1.232   9.746  19.800  0.00  0.00    +0.000 NA
ATOM      8  C   UNL     1       1.050   8.948  20.870  0.00  0.00    +0.000 A 
ATOM      9  N   UNL     1       1.356   7.645  20.989  0.00  0.00    +0.000 NA
ATOM     10  C   UNL     1       1.861   7.160  19.843  0.00  0.00    +0.000 A 
ATOM     11  H   UNL     1       2.191   9.619  16.720  0.00  0.00    +0.000 HD
ATOM     12  H   UNL     1       1.568  10.954  17.668  0.00  0.00    +0.000 HD
ENDROOT
BRANCH   1  13
ATOM     13  C   UNL     1       2.393   4.889  20.659  0.00  0.00    +0.000 C 
BRANCH  13  14
ATOM     14  C   UNL     1       1.154   4.014  20.745  0.00  0.00    +0.000 C 
BRANCH  14  15
ATOM     15  C   UNL     1       1.456   2.592  20.310  0.00  0.00    +0.000 C 
BRANCH  15  17
ATOM     16  C   UNL     1       4.242   2.194  20.548  0.00  0.00    +0.000 C 
ATOM     17  C   UNL     1       2.956   2.377  20.438  0.00  0.00    +0.000 C 
ENDBRANCH  15  17
ENDBRANCH  14  15
ENDBRANCH  13  14
ENDBRANCH   1  13
BRANCH   2  18
ATOM     18  S   UNL     1       3.230   4.345  17.540  0.00  0.00    +0.000 S 
BRANCH  18  19
ATOM     19  C   UNL     1       4.881   4.710  16.908  0.00  0.00    +0.000 A 
ATOM     20  C   UNL     1       5.219   4.622  15.550  0.00  0.00    +0.000 A 
ATOM     21  C   UNL     1       6.482   4.981  15.058  0.00  0.00    +0.000 A 
ATOM     22  C   UNL     1       7.450   5.455  15.938  0.00  0.00    +0.000 A 
ATOM     23  C   UNL     1       7.156   5.536  17.298  0.00  0.00    +0.000 A 
ATOM     24  C   UNL     1       5.894   5.164  17.783  0.00  0.00    +0.000 A 
ATOM     25 CL   UNL     1       5.669   5.297  19.498  0.00  0.00    +0.000 Cl
BRANCH  21  26
ATOM     26  O   UNL     1       6.640   4.830  13.711  0.00  0.00    +0.000 OA
ATOM     27  C   UNL     1       6.156   3.632  13.128  0.00  0.00    +0.000 C 
ENDBRANCH  21  26
ENDBRANCH  18  19
ENDBRANCH   2  18
TORSDOF 7
ENDMDL
MODEL 5
REMARK VINA RESULT:      -6.4      3.315      5.561
REMARK  Name = 
REMARK  8 active torsions:
REMARK  status: ('A' for Active; 'I' for Inactive)
REMARK    1  A    between atoms: C_2  and  C_3
REMARK    2  A    between atoms: C_3  and  C_4
REMARK    3  A    between atoms: C_4  and  C_5
REMARK    4  A    between atoms: C_5  and  N_6
REMARK    5  A    between atoms: C_7  and  S_8
REMARK    6  A    between atoms: S_8  and  C_9
REMARK    7  A    between atoms: C_11  and  O_12
REMARK    8  A    between atoms: O_12  and  C_13
REMARK                            x       y       z     vdW  Elec       q    Type
REMARK                         _______ _______ _______ _____ _____    ______ ____
ROOT
ATOM      1  N   UNL     1       2.810   5.540  19.328  0.00  0.00    +0.000 N 
ATOM      2  C   UNL     1       3.953   5.432  18.569  0.00  0.00    +0.000 A 
ATOM      3  N   UNL     1       4.582   4.299  18.812  0.00  0.00    +0.000 NA
ATOM      4  C   UNL     1       3.880   3.707  19.845  0.00  0.00    +0.000 A 
ATOM      5  C   UNL     1       4.034   2.501  20.552  0.00  0.00    +0.000 A 
ATOM      6  N   UNL     1       4.994   1.557  20.244  0.00  0.00    +0.000 N 
ATOM      7  N   UNL     1       3.186   2.236  21.575  0.00  0.00    +0.000 NA
ATOM      8  C   UNL     1       2.198   3.113  21.837  0.00  0.00    +0.000 A 
ATOM      9  N   UNL     1       1.916   4.256  21.190  0.00  0.00    +0.000 NA
ATOM     10  C   UNL     1       2.803   4.488  20.209  0.00  0.00    +0.000 A 
ATOM     11  H   UNL     1       5.762   1.869  19.665  0.00  0.00    +0.000 HD
ATOM     12  H   UNL     1       5.145   0.858  20.956  0.00  0.00    +0.000 HD
ENDROOT
BRANCH   1  13
ATOM     13  C   UNL     1       1.742   6.518  19.283  0.00  0.00    +0.000 C 
BRANCH  13  14
ATOM     14  C   UNL     1       2.068   7.785  20.056  0.00  0.00    +0.000 C 
BRANCH  14  15
ATOM     15  C   UNL     1       1.065   8.022  21.169  0.00  0.00    +0.000 C 
BRANCH  15  17
ATOM     16  C   UNL     1      -0.395  10.353  20.527  0.00  0.00    +0.000 C 
ATOM     17  C   UNL     1       0.279   9.277  20.824  0.00  0.00    +0.000 C 
ENDBRANCH  15  17
ENDBRANCH  14  15
ENDBRANCH  13  14
ENDBRANCH   1  13
BRANCH   2  18
ATOM     18  S   UNL     1       4.374   6.582  17.336  0.00  0.00    +0.000 S 
BRANCH  18  19
ATOM     19  C   UNL     1       5.439   5.722  16.159  0.00  0.00    +0.000 A 
ATOM     20  C   UNL     1       4.946   5.022  15.048  0.00  0.00    +0.000 A 
ATOM     21  C   UNL     1       5.785   4.422  14.097  0.00  0.00    +0.000 A 
ATOM     22  C   UNL     1       7.164   4.522  14.241  0.00  0.00    +0.000 A 
ATOM     23  C   UNL     1       7.690   5.193  15.344  0.00  0.00    +0.000 A 
ATOM     24  C   UNL     1       6.845   5.781  16.296  0.00  0.00    +0.000 A 
ATOM     25 CL   UNL     1       7.631   6.566  17.628  0.00  0.00    +0.000 Cl
BRANCH  21  26
ATOM     26  O   UNL     1       5.136   3.779  13.083  0.00  0.00    +0.000 OA
ATOM     27  C   UNL     1       5.933   3.133  12.105  0.00  0.00    +0.000 C 
ENDBRANCH  21  26
ENDBRANCH  18  19
ENDBRANCH   2  18
TORSDOF 7
ENDMDL
MODEL 6
REMARK VINA RESULT:      -6.3      3.219      6.976
REMARK  Name = 
REMARK  8 active torsions:
REMARK  status: ('A' for Active; 'I' for Inactive)
REMARK    1  A    between atoms: C_2  and  C_3
REMARK    2  A    between atoms: C_3  and  C_4
REMARK    3  A    between atoms: C_4  and  C_5
REMARK    4  A    between atoms: C_5  and  N_6
REMARK    5  A    between atoms: C_7  and  S_8
REMARK    6  A    between atoms: S_8  and  C_9
REMARK    7  A    between atoms: C_11  and  O_12
REMARK    8  A    between atoms: O_12  and  C_13
REMARK                            x       y       z     vdW  Elec       q    Type
REMARK                         _______ _______ _______ _____ _____    ______ ____
ROOT
ATOM      1  N   UNL     1       3.509   5.762  17.666  0.00  0.00    +0.000 N 
ATOM      2  C   UNL     1       2.662   6.644  18.298  0.00  0.00    +0.000 A 
ATOM      3  N   UNL     1       1.765   6.005  19.025  0.00  0.00    +0.000 NA
ATOM      4  C   UNL     1       1.971   4.664  18.762  0.00  0.00    +0.000 A 
ATOM      5  C   UNL     1       1.356   3.484  19.217  0.00  0.00    +0.000 A 
ATOM      6  N   UNL     1       0.363   3.467  20.176  0.00  0.00    +0.000 N 
ATOM      7  N   UNL     1       1.769   2.298  18.707  0.00  0.00    +0.000 NA
ATOM      8  C   UNL     1       2.789   2.296  17.826  0.00  0.00    +0.000 A 
ATOM      9  N   UNL     1       3.490   3.348  17.373  0.00  0.00    +0.000 NA
ATOM     10  C   UNL     1       3.021   4.499  17.883  0.00  0.00    +0.000 A 
ATOM     11  H   UNL     1      -0.104   4.345  20.357  0.00  0.00    +0.000 HD
ATOM     12  H   UNL     1      -0.144   2.597  20.246  0.00  0.00    +0.000 HD
ENDROOT
BRANCH   1  13
ATOM     13  C   UNL     1       4.718   6.004  16.905  0.00  0.00    +0.000 C 
BRANCH  13  14
ATOM     14  C   UNL     1       5.978   5.897  17.748  0.00  0.00    +0.000 C 
BRANCH  14  15
ATOM     15  C   UNL     1       7.206   6.302  16.953  0.00  0.00    +0.000 C 
BRANCH  15  17
ATOM     16  C   UNL     1       8.048   8.825  17.902  0.00  0.00    +0.000 C 
ATOM     17  C   UNL     1       7.659   7.660  17.464  0.00  0.00    +0.000 C 
ENDBRANCH  15  17
ENDBRANCH  14  15
ENDBRANCH  13  14
ENDBRANCH   1  13
BRANCH   2  18
ATOM     18  S   UNL     1       2.895   8.365  18.257  0.00  0.00    +0.000 S 
BRANCH  18  19
ATOM     19  C   UNL     1       1.323   9.118  18.725  0.00  0.00    +0.000 A 
ATOM     20  C   UNL     1       0.413   9.636  17.793  0.00  0.00    +0.000 A 
ATOM     21  C   UNL     1      -0.840  10.150  18.160  0.00  0.00    +0.000 A 
ATOM     22  C   UNL     1      -1.216  10.144  19.499  0.00  0.00    +0.000 A 
ATOM     23  C   UNL     1      -0.329   9.654  20.456  0.00  0.00    +0.000 A 
ATOM     24  C   UNL     1       0.926   9.153  20.082  0.00  0.00    +0.000 A 
ATOM     25 CL   UNL     1       1.937   8.594  21.375  0.00  0.00    +0.000 Cl
BRANCH  21  26
ATOM     26  O   UNL     1      -1.596  10.617  17.124  0.00  0.00    +0.000 OA
ATOM     27  C   UNL     1      -2.788   9.914  16.818  0.00  0.00    +0.000 C 
ENDBRANCH  21  26
ENDBRANCH  18  19
ENDBRANCH   2  18
TORSDOF 7
ENDMDL
MODEL 7
REMARK VINA RESULT:      -6.3      4.255      7.331
REMARK  Name = 
REMARK  8 active torsions:
REMARK  status: ('A' for Active; 'I' for Inactive)
REMARK    1  A    between atoms: C_2  and  C_3
REMARK    2  A    between atoms: C_3  and  C_4
REMARK    3  A    between atoms: C_4  and  C_5
REMARK    4  A    between atoms: C_5  and  N_6
REMARK    5  A    between atoms: C_7  and  S_8
REMARK    6  A    between atoms: S_8  and  C_9
REMARK    7  A    between atoms: C_11  and  O_12
REMARK    8  A    between atoms: O_12  and  C_13
REMARK                            x       y       z     vdW  Elec       q    Type
REMARK                         _______ _______ _______ _____ _____    ______ ____
ROOT
ATOM      1  N   UNL     1       1.839   7.855  20.029  0.00  0.00    +0.000 N 
ATOM      2  C   UNL     1       2.091   8.248  18.733  0.00  0.00    +0.000 A 
ATOM      3  N   UNL     1       2.218   7.205  17.936  0.00  0.00    +0.000 NA
ATOM      4  C   UNL     1       2.160   6.101  18.766  0.00  0.00    +0.000 A 
ATOM      5  C   UNL     1       2.230   4.716  18.537  0.00  0.00    +0.000 A 
ATOM      6  N   UNL     1       2.310   4.156  17.278  0.00  0.00    +0.000 N 
ATOM      7  N   UNL     1       2.196   3.880  19.604  0.00  0.00    +0.000 NA
ATOM      8  C   UNL     1       2.041   4.410  20.833  0.00  0.00    +0.000 A 
ATOM      9  N   UNL     1       1.898   5.704  21.162  0.00  0.00    +0.000 NA
ATOM     10  C   UNL     1       1.972   6.491  20.076  0.00  0.00    +0.000 A 
ATOM     11  H   UNL     1       2.587   4.775  16.527  0.00  0.00    +0.000 HD
ATOM     12  H   UNL     1       2.581   3.184  17.262  0.00  0.00    +0.000 HD
ENDROOT
BRANCH   1  13
ATOM     13  C   UNL     1       1.480   8.638  21.193  0.00  0.00    +0.000 C 
BRANCH  13  14
ATOM     14  C   UNL     1      -0.020   8.684  21.435  0.00  0.00    +0.000 C 
BRANCH  14  15
ATOM     15  C   UNL     1      -0.333   9.044  22.876  0.00  0.00    +0.000 C 
BRANCH  15  17
ATOM     16  C   UNL     1      -1.249  11.716  22.912  0.00  0.00    +0.000 C 
ATOM     17  C   UNL     1      -0.826  10.483  22.895  0.00  0.00    +0.000 C 
ENDBRANCH  15  17
ENDBRANCH  14  15
ENDBRANCH  13  14
ENDBRANCH   1  13
BRANCH   2  18
ATOM     18  S   UNL     1       2.056   9.910  18.232  0.00  0.00    +0.000 S 
BRANCH  18  19
ATOM     19  C   UNL     1       0.334  10.445  18.311  0.00  0.00    +0.000 A 
ATOM     20  C   UNL     1      -0.692   9.842  17.570  0.00  0.00    +0.000 A 
ATOM     21  C   UNL     1      -2.038  10.213  17.695  0.00  0.00    +0.000 A 
ATOM     22  C   UNL     1      -2.391  11.214  18.595  0.00  0.00    +0.000 A 
ATOM     23  C   UNL     1      -1.395  11.851  19.334  0.00  0.00    +0.000 A 
ATOM     24  C   UNL     1      -0.050  11.481  19.194  0.00  0.00    +0.000 A 
ATOM     25 CL   UNL     1       1.086  12.367  20.159  0.00  0.00    +0.000 Cl
BRANCH  21  26
ATOM     26  O   UNL     1      -2.903   9.524  16.895  0.00  0.00    +0.000 OA
ATOM     27  C   UNL     1      -3.272  10.123  15.665  0.00  0.00    +0.000 C 
ENDBRANCH  21  26
ENDBRANCH  18  19
ENDBRANCH   2  18
TORSDOF 7
ENDMDL
MODEL 8
REMARK VINA RESULT:      -6.1      3.372      6.744
REMARK  Name = 
REMARK  8 active torsions:
REMARK  status: ('A' for Active; 'I' for Inactive)
REMARK    1  A    between atoms: C_2  and  C_3
REMARK    2  A    between atoms: C_3  and  C_4
REMARK    3  A    between atoms: C_4  and  C_5
REMARK    4  A    between atoms: C_5  and  N_6
REMARK    5  A    between atoms: C_7  and  S_8
REMARK    6  A    between atoms: S_8  and  C_9
REMARK    7  A    between atoms: C_11  and  O_12
REMARK    8  A    between atoms: O_12  and  C_13
REMARK                            x       y       z     vdW  Elec       q    Type
REMARK                         _______ _______ _______ _____ _____    ______ ____
ROOT
ATOM      1  N   UNL     1       3.394   5.689  17.601  0.00  0.00    +0.000 N 
ATOM      2  C   UNL     1       2.661   6.575  18.358  0.00  0.00    +0.000 A 
ATOM      3  N   UNL     1       1.851   5.941  19.183  0.00  0.00    +0.000 NA
ATOM      4  C   UNL     1       1.984   4.602  18.868  0.00  0.00    +0.000 A 
ATOM      5  C   UNL     1       1.403   3.427  19.376  0.00  0.00    +0.000 A 
ATOM      6  N   UNL     1       0.545   3.410  20.457  0.00  0.00    +0.000 N 
ATOM      7  N   UNL     1       1.714   2.244  18.791  0.00  0.00    +0.000 NA
ATOM      8  C   UNL     1       2.608   2.238  17.784  0.00  0.00    +0.000 A 
ATOM      9  N   UNL     1       3.272   3.284  17.264  0.00  0.00    +0.000 NA
ATOM     10  C   UNL     1       2.905   4.433  17.855  0.00  0.00    +0.000 A 
ATOM     11  H   UNL     1       0.129   4.294  20.716  0.00  0.00    +0.000 HD
ATOM     12  H   UNL     1       0.028   2.551  20.575  0.00  0.00    +0.000 HD
ENDROOT
BRANCH   1  13
ATOM     13  C   UNL     1       4.499   5.921  16.693  0.00  0.00    +0.000 C 
BRANCH  13  14
ATOM     14  C   UNL     1       5.852   5.863  17.382  0.00  0.00    +0.000 C 
BRANCH  14  15
ATOM     15  C   UNL     1       6.603   4.597  17.009  0.00  0.00    +0.000 C 
BRANCH  15  17
ATOM     16  C   UNL     1       6.272   4.189  14.234  0.00  0.00    +0.000 C 
ATOM     17  C   UNL     1       6.425   4.377  15.515  0.00  0.00    +0.000 C 
ENDBRANCH  15  17
ENDBRANCH  14  15
ENDBRANCH  13  14
ENDBRANCH   1  13
BRANCH   2  18
ATOM     18  S   UNL     1       2.932   8.291  18.322  0.00  0.00    +0.000 S 
BRANCH  18  19
ATOM     19  C   UNL     1       1.366   9.078  18.749  0.00  0.00    +0.000 A 
ATOM     20  C   UNL     1       0.476   9.587  17.792  0.00  0.00    +0.000 A 
ATOM     21  C   UNL     1      -0.773  10.128  18.129  0.00  0.00    +0.000 A 
ATOM     22  C   UNL     1      -1.168  10.161  19.462  0.00  0.00    +0.000 A 
ATOM     23  C   UNL     1      -0.300   9.682  20.444  0.00  0.00    +0.000 A 
ATOM     24  C   UNL     1       0.951   9.154  20.099  0.00  0.00    +0.000 A 
ATOM     25 CL   UNL     1       1.937   8.612  21.420  0.00  0.00    +0.000 Cl
BRANCH  21  26
ATOM     26  O   UNL     1      -1.509  10.580  17.072  0.00  0.00    +0.000 OA
ATOM     27  C   UNL     1      -2.671  11.338  17.362  0.00  0.00    +0.000 C 
ENDBRANCH  21  26
ENDBRANCH  18  19
ENDBRANCH   2  18
TORSDOF 7
ENDMDL
MODEL 9
REMARK VINA RESULT:      -6.1      2.421      2.914
REMARK  Name = 
REMARK  8 active torsions:
REMARK  status: ('A' for Active; 'I' for Inactive)
REMARK    1  A    between atoms: C_2  and  C_3
REMARK    2  A    between atoms: C_3  and  C_4
REMARK    3  A    between atoms: C_4  and  C_5
REMARK    4  A    between atoms: C_5  and  N_6
REMARK    5  A    between atoms: C_7  and  S_8
REMARK    6  A    between atoms: S_8  and  C_9
REMARK    7  A    between atoms: C_11  and  O_12
REMARK    8  A    between atoms: O_12  and  C_13
REMARK                            x       y       z     vdW  Elec       q    Type
REMARK                         _______ _______ _______ _____ _____    ______ ____
ROOT
ATOM      1  N   UNL     1       2.724   5.523  20.290  0.00  0.00    +0.000 N 
ATOM      2  C   UNL     1       3.297   5.307  19.056  0.00  0.00    +0.000 A 
ATOM      3  N   UNL     1       3.172   6.366  18.281  0.00  0.00    +0.000 NA
ATOM      4  C   UNL     1       2.393   7.254  18.999  0.00  0.00    +0.000 A 
ATOM      5  C   UNL     1       1.908   8.547  18.734  0.00  0.00    +0.000 A 
ATOM      6  N   UNL     1       2.228   9.261  17.596  0.00  0.00    +0.000 N 
ATOM      7  N   UNL     1       1.101   9.138  19.650  0.00  0.00    +0.000 NA
ATOM      8  C   UNL     1       0.842   8.482  20.798  0.00  0.00    +0.000 A 
ATOM      9  N   UNL     1       1.301   7.280  21.184  0.00  0.00    +0.000 NA
ATOM     10  C   UNL     1       2.067   6.726  20.231  0.00  0.00    +0.000 A 
ATOM     11  H   UNL     1       2.609   8.730  16.824  0.00  0.00    +0.000 HD
ATOM     12  H   UNL     1       1.645  10.065  17.422  0.00  0.00    +0.000 HD
ENDROOT
BRANCH   1  13
ATOM     13  C   UNL     1       2.756   4.717  21.494  0.00  0.00    +0.000 C 
BRANCH  13  14
ATOM     14  C   UNL     1       2.451   3.252  21.232  0.00  0.00    +0.000 C 
BRANCH  14  15
ATOM     15  C   UNL     1       0.966   3.034  21.001  0.00  0.00    +0.000 C 
BRANCH  15  17
ATOM     16  C   UNL     1       0.627   2.211  18.321  0.00  0.00    +0.000 C 
ATOM     17  C   UNL     1       0.784   2.591  19.558  0.00  0.00    +0.000 C 
ENDBRANCH  15  17
ENDBRANCH  14  15
ENDBRANCH  13  14
ENDBRANCH   1  13
BRANCH   2  18
ATOM     18  S   UNL     1       4.210   3.878  18.682  0.00  0.00    +0.000 S 
BRANCH  18  19
ATOM     19  C   UNL     1       5.286   4.292  17.293  0.00  0.00    +0.000 A 
ATOM     20  C   UNL     1       4.980   3.971  15.963  0.00  0.00    +0.000 A 
ATOM     21  C   UNL     1       5.784   4.364  14.883  0.00  0.00    +0.000 A 
ATOM     22  C   UNL     1       6.932   5.112  15.122  0.00  0.00    +0.000 A 
ATOM     23  C   UNL     1       7.278   5.433  16.433  0.00  0.00    +0.000 A 
ATOM     24  C   UNL     1       6.475   5.026  17.508  0.00  0.00    +0.000 A 
ATOM     25 CL   UNL     1       7.034   5.476  19.087  0.00  0.00    +0.000 Cl
BRANCH  21  26
ATOM     26  O   UNL     1       5.338   3.962  13.658  0.00  0.00    +0.000 OA
ATOM     27  C   UNL     1       6.313   3.584  12.701  0.00  0.00    +0.000 C 
ENDBRANCH  21  26
ENDBRANCH  18  19
ENDBRANCH   2  18
TORSDOF 7
ENDMDL
