MODEL 1
REMARK VINA RESULT:      -8.3      0.000      0.000
REMARK  Name = 
REMARK  6 active torsions:
REMARK  status: ('A' for Active; 'I' for Inactive)
REMARK    1  A    between atoms: C_2  and  O_3
REMARK    2  A    between atoms: C_2  and  C_4
REMARK    3  A    between atoms: C_4  and  C_20
REMARK    4  A    between atoms: C_5  and  C_6
REMARK    5  A    between atoms: CA_7  and  C_8
REMARK    6  A    between atoms: C_8  and  OXT_10
REMARK                            x       y       z     vdW  Elec       q    Type
REMARK                         _______ _______ _______ _____ _____    ______ ____
ROOT
ATOM      1  C   UNL     1       4.106   4.371  17.865  0.00  0.00    +0.000 A 
ATOM      2  CA  UNL     1       3.840   3.352  18.774  0.00  0.00    +0.000 A 
ATOM      3  N   UNL     1       3.079   3.935  19.771  0.00  0.00    +0.000 N 
ATOM      4  C   UNL     1       2.864   5.269  19.538  0.00  0.00    +0.000 A 
ATOM      5  C   UNL     1       2.190   6.214  20.325  0.00  0.00    +0.000 A 
ATOM      6  C   UNL     1       2.083   7.517  19.830  0.00  0.00    +0.000 A 
ATOM      7 CL   UNL     1       1.289   8.714  20.781  0.00  0.00    +0.000 Cl
ATOM      8  C   UNL     1       2.594   7.864  18.588  0.00  0.00    +0.000 A 
ATOM      9  C   UNL     1       3.271   6.900  17.838  0.00  0.00    +0.000 A 
ATOM     10 CL   UNL     1       3.848   7.282  16.273  0.00  0.00    +0.000 Cl
ATOM     11  C   UNL     1       3.451   5.578  18.309  0.00  0.00    +0.000 A 
ATOM     12  H   UNL     1       2.739   3.420  20.576  0.00  0.00    +0.000 HD
ENDROOT
BRANCH   1  14
ATOM     13  C   UNL     1       6.201   4.733  16.529  0.00  0.00    +0.000 C 
ATOM     14  C   UNL     1       4.943   4.275  16.711  0.00  0.00    +0.000 C 
BRANCH  13  15
ATOM     15  C   UNL     1       6.953   5.425  17.532  0.00  0.00    +0.000 A 
ATOM     16  C   UNL     1       7.368   6.753  17.641  0.00  0.00    +0.000 A 
ATOM     17  C   UNL     1       8.070   6.911  18.856  0.00  0.00    +0.000 A 
ATOM     18  C   UNL     1       8.059   5.681  19.454  0.00  0.00    +0.000 A 
ATOM     19  O   UNL     1       7.387   4.793  18.687  0.00  0.00    +0.000 OA
ENDBRANCH  13  15
BRANCH  13  21
ATOM     20  O   UNL     1       7.598   5.205  14.634  0.00  0.00    +0.000 OA
ATOM     21  C   UNL     1       6.760   4.483  15.157  0.00  0.00    +0.000 C 
BRANCH  21  22
ATOM     22  O   UNL     1       6.285   3.389  14.525  0.00  0.00    +0.000 OA
ATOM     23  H   UNL     1       6.976   2.776  14.203  0.00  0.00    +0.000 HD
ENDBRANCH  21  22
ENDBRANCH  13  21
ENDBRANCH   1  14
BRANCH   2  24
ATOM     24  C   UNL     1       4.143   1.942  18.906  0.00  0.00    +0.000 C 
ATOM     25  O   UNL     1       3.622   1.078  18.211  0.00  0.00    +0.000 OA
BRANCH  24  26
ATOM     26  OXT UNL     1       5.053   1.630  19.851  0.00  0.00    +0.000 OA
ATOM     27  HXT UNL     1       4.703   1.565  20.753  0.00  0.00    +0.000 HD
ENDBRANCH  24  26
ENDBRANCH   2  24
TORSDOF 6
ENDMDL
MODEL 2
REMARK VINA RESULT:      -8.0      0.651      1.042
REMARK  Name = 
REMARK  6 active torsions:
REMARK  status: ('A' for Active; 'I' for Inactive)
REMARK    1  A    between atoms: C_2  and  O_3
REMARK    2  A    between atoms: C_2  and  C_4
REMARK    3  A    between atoms: C_4  and  C_20
REMARK    4  A    between atoms: C_5  and  C_6
REMARK    5  A    between atoms: CA_7  and  C_8
REMARK    6  A    between atoms: C_8  and  OXT_10
REMARK                            x       y       z     vdW  Elec       q    Type
REMARK                         _______ _______ _______ _____ _____    ______ ____
ROOT
ATOM      1  C   UNL     1       4.118   4.355  17.819  0.00  0.00    +0.000 A 
ATOM      2  CA  UNL     1       3.876   3.354  18.755  0.00  0.00    +0.000 A 
ATOM      3  N   UNL     1       3.141   3.958  19.760  0.00  0.00    +0.000 N 
ATOM      4  C   UNL     1       2.920   5.286  19.507  0.00  0.00    +0.000 A 
ATOM      5  C   UNL     1       2.266   6.248  20.292  0.00  0.00    +0.000 A 
ATOM      6  C   UNL     1       2.147   7.541  19.774  0.00  0.00    +0.000 A 
ATOM      7 CL   UNL     1       1.378   8.756  20.722  0.00  0.00    +0.000 Cl
ATOM      8  C   UNL     1       2.625   7.862  18.512  0.00  0.00    +0.000 A 
ATOM      9  C   UNL     1       3.282   6.884  17.764  0.00  0.00    +0.000 A 
ATOM     10 CL   UNL     1       3.819   7.235  16.178  0.00  0.00    +0.000 Cl
ATOM     11  C   UNL     1       3.475   5.571  18.257  0.00  0.00    +0.000 A 
ATOM     12  H   UNL     1       2.823   3.459  20.583  0.00  0.00    +0.000 HD
ENDROOT
BRANCH   1  14
ATOM     13  C   UNL     1       6.131   4.784  16.381  0.00  0.00    +0.000 C 
ATOM     14  C   UNL     1       4.925   4.237  16.646  0.00  0.00    +0.000 C 
BRANCH  13  15
ATOM     15  C   UNL     1       6.849   5.619  17.297  0.00  0.00    +0.000 A 
ATOM     16  C   UNL     1       7.418   5.367  18.546  0.00  0.00    +0.000 A 
ATOM     17  C   UNL     1       8.033   6.549  19.012  0.00  0.00    +0.000 A 
ATOM     18  C   UNL     1       7.829   7.484  18.035  0.00  0.00    +0.000 A 
ATOM     19  O   UNL     1       7.139   6.943  17.005  0.00  0.00    +0.000 OA
ENDBRANCH  13  15
BRANCH  13  21
ATOM     20  O   UNL     1       6.207   3.591  14.299  0.00  0.00    +0.000 OA
ATOM     21  C   UNL     1       6.668   4.471  15.014  0.00  0.00    +0.000 C 
BRANCH  21  22
ATOM     22  O   UNL     1       7.700   5.238  14.603  0.00  0.00    +0.000 OA
ATOM     23  H   UNL     1       7.699   6.147  14.964  0.00  0.00    +0.000 HD
ENDBRANCH  21  22
ENDBRANCH  13  21
ENDBRANCH   1  14
BRANCH   2  24
ATOM     24  C   UNL     1       4.183   1.948  18.907  0.00  0.00    +0.000 C 
ATOM     25  O   UNL     1       3.670   1.073  18.218  0.00  0.00    +0.000 OA
BRANCH  24  26
ATOM     26  OXT UNL     1       5.085   1.651  19.864  0.00  0.00    +0.000 OA
ATOM     27  HXT UNL     1       5.840   2.257  19.919  0.00  0.00    +0.000 HD
ENDBRANCH  24  26
ENDBRANCH   2  24
TORSDOF 6
ENDMDL
MODEL 3
REMARK VINA RESULT:      -7.6      2.922      5.915
REMARK  Name = 
REMARK  6 active torsions:
REMARK  status: ('A' for Active; 'I' for Inactive)
REMARK    1  A    between atoms: C_2  and  O_3
REMARK    2  A    between atoms: C_2  and  C_4
REMARK    3  A    between atoms: C_4  and  C_20
REMARK    4  A    between atoms: C_5  and  C_6
REMARK    5  A    between atoms: CA_7  and  C_8
REMARK    6  A    between atoms: C_8  and  OXT_10
REMARK                            x       y       z     vdW  Elec       q    Type
REMARK                         _______ _______ _______ _____ _____    ______ ____
ROOT
ATOM      1  C   UNL     1       5.916   4.668  18.023  0.00  0.00    +0.000 A 
ATOM      2  CA  UNL     1       7.124   5.316  18.262  0.00  0.00    +0.000 A 
ATOM      3  N   UNL     1       7.744   5.410  17.030  0.00  0.00    +0.000 N 
ATOM      4  C   UNL     1       6.993   4.846  16.032  0.00  0.00    +0.000 A 
ATOM      5  C   UNL     1       7.286   4.697  14.669  0.00  0.00    +0.000 A 
ATOM      6  C   UNL     1       6.316   4.108  13.853  0.00  0.00    +0.000 A 
ATOM      7 CL   UNL     1       6.652   3.880  12.179  0.00  0.00    +0.000 Cl
ATOM      8  C   UNL     1       5.086   3.715  14.361  0.00  0.00    +0.000 A 
ATOM      9  C   UNL     1       4.833   3.866  15.725  0.00  0.00    +0.000 A 
ATOM     10 CL   UNL     1       3.300   3.454  16.363  0.00  0.00    +0.000 Cl
ATOM     11  C   UNL     1       5.796   4.410  16.607  0.00  0.00    +0.000 A 
ATOM     12  H   UNL     1       8.654   5.841  16.904  0.00  0.00    +0.000 HD
ENDROOT
BRANCH   1  14
ATOM     13  C   UNL     1       3.844   4.880  19.425  0.00  0.00    +0.000 C 
ATOM     14  C   UNL     1       4.968   4.256  19.009  0.00  0.00    +0.000 C 
BRANCH  13  15
ATOM     15  C   UNL     1       3.385   6.132  18.904  0.00  0.00    +0.000 A 
ATOM     16  C   UNL     1       3.675   6.819  17.725  0.00  0.00    +0.000 A 
ATOM     17  C   UNL     1       2.922   8.013  17.698  0.00  0.00    +0.000 A 
ATOM     18  C   UNL     1       2.191   8.017  18.854  0.00  0.00    +0.000 A 
ATOM     19  O   UNL     1       2.445   6.901  19.573  0.00  0.00    +0.000 OA
ENDBRANCH  13  15
BRANCH  13  21
ATOM     20  O   UNL     1       3.038   2.944  20.594  0.00  0.00    +0.000 OA
ATOM     21  C   UNL     1       3.106   4.163  20.520  0.00  0.00    +0.000 C 
BRANCH  21  22
ATOM     22  O   UNL     1       2.521   4.955  21.444  0.00  0.00    +0.000 OA
ATOM     23  H   UNL     1       2.998   5.791  21.621  0.00  0.00    +0.000 HD
ENDBRANCH  21  22
ENDBRANCH  13  21
ENDBRANCH   1  14
BRANCH   2  24
ATOM     24  C   UNL     1       7.821   5.872  19.403  0.00  0.00    +0.000 C 
ATOM     25  O   UNL     1       7.811   5.350  20.512  0.00  0.00    +0.000 OA
BRANCH  24  26
ATOM     26  OXT UNL     1       8.500   7.013  19.170  0.00  0.00    +0.000 OA
ATOM     27  HXT UNL     1       8.086   7.614  18.530  0.00  0.00    +0.000 HD
ENDBRANCH  24  26
ENDBRANCH   2  24
TORSDOF 6
ENDMDL
MODEL 4
REMARK VINA RESULT:      -7.2      2.767      3.840
REMARK  Name = 
REMARK  6 active torsions:
REMARK  status: ('A' for Active; 'I' for Inactive)
REMARK    1  A    between atoms: C_2  and  O_3
REMARK    2  A    between atoms: C_2  and  C_4
REMARK    3  A    between atoms: C_4  and  C_20
REMARK    4  A    between atoms: C_5  and  C_6
REMARK    5  A    between atoms: CA_7  and  C_8
REMARK    6  A    between atoms: C_8  and  OXT_10
REMARK                            x       y       z     vdW  Elec       q    Type
REMARK                         _______ _______ _______ _____ _____    ______ ____
ROOT
ATOM      1  C   UNL     1       3.479   5.423  17.762  0.00  0.00    +0.000 A 
ATOM      2  CA  UNL     1       3.019   6.678  18.146  0.00  0.00    +0.000 A 
ATOM      3  N   UNL     1       2.317   6.471  19.320  0.00  0.00    +0.000 N 
ATOM      4  C   UNL     1       2.304   5.151  19.685  0.00  0.00    +0.000 A 
ATOM      5  C   UNL     1       1.670   4.530  20.771  0.00  0.00    +0.000 A 
ATOM      6  C   UNL     1       1.851   3.154  20.934  0.00  0.00    +0.000 A 
ATOM      7 CL   UNL     1       1.063   2.352  22.239  0.00  0.00    +0.000 Cl
ATOM      8  C   UNL     1       2.660   2.424  20.074  0.00  0.00    +0.000 A 
ATOM      9  C   UNL     1       3.265   3.071  18.996  0.00  0.00    +0.000 A 
ATOM     10 CL   UNL     1       4.322   2.209  17.963  0.00  0.00    +0.000 Cl
ATOM     11  C   UNL     1       3.078   4.453  18.754  0.00  0.00    +0.000 A 
ATOM     12  H   UNL     1       1.863   7.222  19.829  0.00  0.00    +0.000 HD
ENDROOT
BRANCH   1  14
ATOM     13  C   UNL     1       5.473   5.322  16.240  0.00  0.00    +0.000 C 
ATOM     14  C   UNL     1       4.176   5.112  16.554  0.00  0.00    +0.000 C 
BRANCH  13  15
ATOM     15  C   UNL     1       6.424   5.920  17.127  0.00  0.00    +0.000 A 
ATOM     16  C   UNL     1       7.069   5.443  18.269  0.00  0.00    +0.000 A 
ATOM     17  C   UNL     1       7.935   6.447  18.754  0.00  0.00    +0.000 A 
ATOM     18  C   UNL     1       7.800   7.502  17.895  0.00  0.00    +0.000 A 
ATOM     19  O   UNL     1       6.917   7.199  16.916  0.00  0.00    +0.000 OA
ENDBRANCH  13  15
BRANCH  13  21
ATOM     20  O   UNL     1       5.174   4.133  14.175  0.00  0.00    +0.000 OA
ATOM     21  C   UNL     1       5.850   4.898  14.849  0.00  0.00    +0.000 C 
BRANCH  21  22
ATOM     22  O   UNL     1       6.994   5.431  14.368  0.00  0.00    +0.000 OA
ATOM     23  H   UNL     1       7.643   5.684  15.054  0.00  0.00    +0.000 HD
ENDBRANCH  21  22
ENDBRANCH  13  21
ENDBRANCH   1  14
BRANCH   2  24
ATOM     24  C   UNL     1       3.100   8.035  17.649  0.00  0.00    +0.000 C 
ATOM     25  O   UNL     1       2.113   8.733  17.443  0.00  0.00    +0.000 OA
BRANCH  24  26
ATOM     26  OXT UNL     1       4.347   8.499  17.427  0.00  0.00    +0.000 OA
ATOM     27  HXT UNL     1       5.058   7.859  17.587  0.00  0.00    +0.000 HD
ENDBRANCH  24  26
ENDBRANCH   2  24
TORSDOF 6
ENDMDL
MODEL 5
REMARK VINA RESULT:      -6.9      2.700      3.739
REMARK  Name = 
REMARK  6 active torsions:
REMARK  status: ('A' for Active; 'I' for Inactive)
REMARK    1  A    between atoms: C_2  and  O_3
REMARK    2  A    between atoms: C_2  and  C_4
REMARK    3  A    between atoms: C_4  and  C_20
REMARK    4  A    between atoms: C_5  and  C_6
REMARK    5  A    between atoms: CA_7  and  C_8
REMARK    6  A    between atoms: C_8  and  OXT_10
REMARK                            x       y       z     vdW  Elec       q    Type
REMARK                         _______ _______ _______ _____ _____    ______ ____
ROOT
ATOM      1  C   UNL     1       3.541   5.292  17.880  0.00  0.00    +0.000 A 
ATOM      2  CA  UNL     1       3.039   6.549  18.203  0.00  0.00    +0.000 A 
ATOM      3  N   UNL     1       2.298   6.366  19.356  0.00  0.00    +0.000 N 
ATOM      4  C   UNL     1       2.302   5.059  19.767  0.00  0.00    +0.000 A 
ATOM      5  C   UNL     1       1.642   4.461  20.851  0.00  0.00    +0.000 A 
ATOM      6  C   UNL     1       1.849   3.096  21.069  0.00  0.00    +0.000 A 
ATOM      7 CL   UNL     1       1.031   2.321  22.372  0.00  0.00    +0.000 Cl
ATOM      8  C   UNL     1       2.706   2.357  20.266  0.00  0.00    +0.000 A 
ATOM      9  C   UNL     1       3.336   2.981  19.189  0.00  0.00    +0.000 A 
ATOM     10 CL   UNL     1       4.451   2.109  18.227  0.00  0.00    +0.000 Cl
ATOM     11  C   UNL     1       3.126   4.348  18.891  0.00  0.00    +0.000 A 
ATOM     12  H   UNL     1       1.808   7.123  19.821  0.00  0.00    +0.000 HD
ENDROOT
BRANCH   1  14
ATOM     13  C   UNL     1       5.616   5.081  16.482  0.00  0.00    +0.000 C 
ATOM     14  C   UNL     1       4.291   4.957  16.711  0.00  0.00    +0.000 C 
BRANCH  13  15
ATOM     15  C   UNL     1       6.549   5.593  17.440  0.00  0.00    +0.000 A 
ATOM     16  C   UNL     1       7.182   6.830  17.562  0.00  0.00    +0.000 A 
ATOM     17  C   UNL     1       7.996   6.812  18.716  0.00  0.00    +0.000 A 
ATOM     18  C   UNL     1       7.832   5.572  19.267  0.00  0.00    +0.000 A 
ATOM     19  O   UNL     1       6.965   4.842  18.528  0.00  0.00    +0.000 OA
ENDBRANCH  13  15
BRANCH  13  21
ATOM     20  O   UNL     1       5.272   4.255  14.254  0.00  0.00    +0.000 OA
ATOM     21  C   UNL     1       6.050   4.659  15.107  0.00  0.00    +0.000 C 
BRANCH  21  22
ATOM     22  O   UNL     1       7.373   4.766  14.855  0.00  0.00    +0.000 OA
ATOM     23  H   UNL     1       7.706   4.149  14.174  0.00  0.00    +0.000 HD
ENDBRANCH  21  22
ENDBRANCH  13  21
ENDBRANCH   1  14
BRANCH   2  24
ATOM     24  C   UNL     1       3.108   7.890  17.661  0.00  0.00    +0.000 C 
ATOM     25  O   UNL     1       3.840   8.197  16.727  0.00  0.00    +0.000 OA
BRANCH  24  26
ATOM     26  OXT UNL     1       2.301   8.796  18.249  0.00  0.00    +0.000 OA
ATOM     27  HXT UNL     1       1.379   8.781  17.950  0.00  0.00    +0.000 HD
ENDBRANCH  24  26
ENDBRANCH   2  24
TORSDOF 6
ENDMDL
MODEL 6
REMARK VINA RESULT:      -6.8      2.152      4.006
REMARK  Name = 
REMARK  6 active torsions:
REMARK  status: ('A' for Active; 'I' for Inactive)
REMARK    1  A    between atoms: C_2  and  O_3
REMARK    2  A    between atoms: C_2  and  C_4
REMARK    3  A    between atoms: C_4  and  C_20
REMARK    4  A    between atoms: C_5  and  C_6
REMARK    5  A    between atoms: CA_7  and  C_8
REMARK    6  A    between atoms: C_8  and  OXT_10
REMARK                            x       y       z     vdW  Elec       q    Type
REMARK                         _______ _______ _______ _____ _____    ______ ____
ROOT
ATOM      1  C   UNL     1       3.358   6.280  18.305  0.00  0.00    +0.000 A 
ATOM      2  CA  UNL     1       4.014   6.697  17.151  0.00  0.00    +0.000 A 
ATOM      3  N   UNL     1       3.569   7.987  16.919  0.00  0.00    +0.000 N 
ATOM      4  C   UNL     1       2.661   8.394  17.862  0.00  0.00    +0.000 A 
ATOM      5  C   UNL     1       1.950   9.599  17.954  0.00  0.00    +0.000 A 
ATOM      6  C   UNL     1       1.102   9.774  19.052  0.00  0.00    +0.000 A 
ATOM      7 CL   UNL     1       0.188  11.228  19.184  0.00  0.00    +0.000 Cl
ATOM      8  C   UNL     1       0.990   8.807  20.041  0.00  0.00    +0.000 A 
ATOM      9  C   UNL     1       1.702   7.614  19.909  0.00  0.00    +0.000 A 
ATOM     10 CL   UNL     1       1.635   6.435  21.148  0.00  0.00    +0.000 Cl
ATOM     11  C   UNL     1       2.538   7.362  18.795  0.00  0.00    +0.000 A 
ATOM     12  H   UNL     1       3.883   8.543  16.132  0.00  0.00    +0.000 HD
ENDROOT
BRANCH   1  14
ATOM     13  C   UNL     1       4.504   4.224  19.181  0.00  0.00    +0.000 C 
ATOM     14  C   UNL     1       3.421   4.976  18.887  0.00  0.00    +0.000 C 
BRANCH  13  15
ATOM     15  C   UNL     1       5.853   4.642  18.951  0.00  0.00    +0.000 A 
ATOM     16  C   UNL     1       6.652   5.608  19.563  0.00  0.00    +0.000 A 
ATOM     17  C   UNL     1       7.927   5.595  18.956  0.00  0.00    +0.000 A 
ATOM     18  C   UNL     1       7.873   4.620  17.999  0.00  0.00    +0.000 A 
ATOM     19  O   UNL     1       6.653   4.036  17.993  0.00  0.00    +0.000 OA
ENDBRANCH  13  15
BRANCH  13  21
ATOM     20  O   UNL     1       3.072   2.566  20.162  0.00  0.00    +0.000 OA
ATOM     21  C   UNL     1       4.183   2.873  19.754  0.00  0.00    +0.000 C 
BRANCH  21  22
ATOM     22  O   UNL     1       5.208   1.994  19.783  0.00  0.00    +0.000 OA
ATOM     23  H   UNL     1       4.936   1.055  19.801  0.00  0.00    +0.000 HD
ENDBRANCH  21  22
ENDBRANCH  13  21
ENDBRANCH   1  14
BRANCH   2  24
ATOM     24  C   UNL     1       4.974   6.147  16.219  0.00  0.00    +0.000 C 
ATOM     25  O   UNL     1       5.969   6.758  15.845  0.00  0.00    +0.000 OA
BRANCH  24  26
ATOM     26  OXT UNL     1       4.710   4.899  15.782  0.00  0.00    +0.000 OA
ATOM     27  HXT UNL     1       4.804   4.201  16.449  0.00  0.00    +0.000 HD
ENDBRANCH  24  26
ENDBRANCH   2  24
TORSDOF 6
ENDMDL
MODEL 7
REMARK VINA RESULT:      -6.6      2.121      3.855
REMARK  Name = 
REMARK  6 active torsions:
REMARK  status: ('A' for Active; 'I' for Inactive)
REMARK    1  A    between atoms: C_2  and  O_3
REMARK    2  A    between atoms: C_2  and  C_4
REMARK    3  A    between atoms: C_4  and  C_20
REMARK    4  A    between atoms: C_5  and  C_6
REMARK    5  A    between atoms: CA_7  and  C_8
REMARK    6  A    between atoms: C_8  and  OXT_10
REMARK                            x       y       z     vdW  Elec       q    Type
REMARK                         _______ _______ _______ _____ _____    ______ ____
ROOT
ATOM      1  C   UNL     1       3.389   6.073  18.288  0.00  0.00    +0.000 A 
ATOM      2  CA  UNL     1       4.018   6.728  17.234  0.00  0.00    +0.000 A 
ATOM      3  N   UNL     1       3.528   8.021  17.257  0.00  0.00    +0.000 N 
ATOM      4  C   UNL     1       2.617   8.207  18.263  0.00  0.00    +0.000 A 
ATOM      5  C   UNL     1       1.866   9.346  18.588  0.00  0.00    +0.000 A 
ATOM      6  C   UNL     1       1.024   9.277  19.702  0.00  0.00    +0.000 A 
ATOM      7 CL   UNL     1       0.063  10.645  20.115  0.00  0.00    +0.000 Cl
ATOM      8  C   UNL     1       0.954   8.134  20.486  0.00  0.00    +0.000 A 
ATOM      9  C   UNL     1       1.705   7.014  20.125  0.00  0.00    +0.000 A 
ATOM     10 CL   UNL     1       1.691   5.618  21.114  0.00  0.00    +0.000 Cl
ATOM     11  C   UNL     1       2.538   7.011  18.980  0.00  0.00    +0.000 A 
ATOM     12  H   UNL     1       3.814   8.730  16.590  0.00  0.00    +0.000 HD
ENDROOT
BRANCH   1  14
ATOM     13  C   UNL     1       4.610   3.953  18.854  0.00  0.00    +0.000 C 
ATOM     14  C   UNL     1       3.502   4.685  18.607  0.00  0.00    +0.000 C 
BRANCH  13  15
ATOM     15  C   UNL     1       5.939   4.487  18.844  0.00  0.00    +0.000 A 
ATOM     16  C   UNL     1       6.978   4.396  17.917  0.00  0.00    +0.000 A 
ATOM     17  C   UNL     1       8.081   5.136  18.397  0.00  0.00    +0.000 A 
ATOM     18  C   UNL     1       7.683   5.661  19.595  0.00  0.00    +0.000 A 
ATOM     19  O   UNL     1       6.409   5.296  19.867  0.00  0.00    +0.000 OA
ENDBRANCH  13  15
BRANCH  13  21
ATOM     20  O   UNL     1       3.494   1.854  18.523  0.00  0.00    +0.000 OA
ATOM     21  C   UNL     1       4.347   2.498  19.118  0.00  0.00    +0.000 C 
BRANCH  21  22
ATOM     22  O   UNL     1       5.129   1.926  20.059  0.00  0.00    +0.000 OA
ATOM     23  H   UNL     1       4.789   2.009  20.972  0.00  0.00    +0.000 HD
ENDBRANCH  21  22
ENDBRANCH  13  21
ENDBRANCH   1  14
BRANCH   2  24
ATOM     24  C   UNL     1       4.987   6.401  16.209  0.00  0.00    +0.000 C 
ATOM     25  O   UNL     1       4.834   5.482  15.413  0.00  0.00    +0.000 OA
BRANCH  24  26
ATOM     26  OXT UNL     1       6.085   7.184  16.177  0.00  0.00    +0.000 OA
ATOM     27  HXT UNL     1       6.869   6.775  15.780  0.00  0.00    +0.000 HD
ENDBRANCH  24  26
ENDBRANCH   2  24
TORSDOF 6
ENDMDL
MODEL 8
REMARK VINA RESULT:      -6.5      6.893      9.498
REMARK  Name = 
REMARK  6 active torsions:
REMARK  status: ('A' for Active; 'I' for Inactive)
REMARK    1  A    between atoms: C_2  and  O_3
REMARK    2  A    between atoms: C_2  and  C_4
REMARK    3  A    between atoms: C_4  and  C_20
REMARK    4  A    between atoms: C_5  and  C_6
REMARK    5  A    between atoms: CA_7  and  C_8
REMARK    6  A    between atoms: C_8  and  OXT_10
REMARK                            x       y       z     vdW  Elec       q    Type
REMARK                         _______ _______ _______ _____ _____    ______ ____
ROOT
ATOM      1  C   UNL     1      -0.362  10.576  19.761  0.00  0.00    +0.000 A 
ATOM      2  CA  UNL     1      -0.703  10.992  18.478  0.00  0.00    +0.000 A 
ATOM      3  N   UNL     1       0.051  10.208  17.623  0.00  0.00    +0.000 N 
ATOM      4  C   UNL     1       0.853   9.330  18.304  0.00  0.00    +0.000 A 
ATOM      5  C   UNL     1       1.788   8.409  17.811  0.00  0.00    +0.000 A 
ATOM      6  C   UNL     1       2.455   7.598  18.734  0.00  0.00    +0.000 A 
ATOM      7 CL   UNL     1       3.633   6.476  18.169  0.00  0.00    +0.000 Cl
ATOM      8  C   UNL     1       2.180   7.671  20.092  0.00  0.00    +0.000 A 
ATOM      9  C   UNL     1       1.253   8.609  20.549  0.00  0.00    +0.000 A 
ATOM     10 CL   UNL     1       0.845   8.671  22.209  0.00  0.00    +0.000 Cl
ATOM     11  C   UNL     1       0.584   9.489  19.665  0.00  0.00    +0.000 A 
ATOM     12  H   UNL     1       0.007  10.297  16.613  0.00  0.00    +0.000 HD
ENDROOT
BRANCH   1  14
ATOM     13  C   UNL     1      -0.381  12.281  21.604  0.00  0.00    +0.000 C 
ATOM     14  C   UNL     1      -0.811  11.160  20.985  0.00  0.00    +0.000 C 
BRANCH  13  15
ATOM     15  C   UNL     1       0.656  13.127  21.095  0.00  0.00    +0.000 A 
ATOM     16  C   UNL     1       0.622  14.325  20.381  0.00  0.00    +0.000 A 
ATOM     17  C   UNL     1       1.947  14.753  20.148  0.00  0.00    +0.000 A 
ATOM     18  C   UNL     1       2.750  13.811  20.729  0.00  0.00    +0.000 A 
ATOM     19  O   UNL     1       1.998  12.847  21.308  0.00  0.00    +0.000 OA
ENDBRANCH  13  15
BRANCH  13  21
ATOM     20  O   UNL     1      -0.798  13.542  23.604  0.00  0.00    +0.000 OA
ATOM     21  C   UNL     1      -1.064  12.570  22.910  0.00  0.00    +0.000 C 
BRANCH  21  22
ATOM     22  O   UNL     1      -2.018  11.687  23.276  0.00  0.00    +0.000 OA
ATOM     23  H   UNL     1      -2.912  11.892  22.936  0.00  0.00    +0.000 HD
ENDBRANCH  21  22
ENDBRANCH  13  21
ENDBRANCH   1  14
BRANCH   2  24
ATOM     24  C   UNL     1      -1.589  11.967  17.880  0.00  0.00    +0.000 C 
ATOM     25  O   UNL     1      -2.791  11.777  17.733  0.00  0.00    +0.000 OA
BRANCH  24  26
ATOM     26  OXT UNL     1      -1.007  13.120  17.492  0.00  0.00    +0.000 OA
ATOM     27  HXT UNL     1      -0.093  13.240  17.790  0.00  0.00    +0.000 HD
ENDBRANCH  24  26
ENDBRANCH   2  24
TORSDOF 6
ENDMDL
MODEL 9
REMARK VINA RESULT:      -6.5      1.995      4.863
REMARK  Name = 
REMARK  6 active torsions:
REMARK  status: ('A' for Active; 'I' for Inactive)
REMARK    1  A    between atoms: C_2  and  O_3
REMARK    2  A    between atoms: C_2  and  C_4
REMARK    3  A    between atoms: C_4  and  C_20
REMARK    4  A    between atoms: C_5  and  C_6
REMARK    5  A    between atoms: CA_7  and  C_8
REMARK    6  A    between atoms: C_8  and  OXT_10
REMARK                            x       y       z     vdW  Elec       q    Type
REMARK                         _______ _______ _______ _____ _____    ______ ____
ROOT
ATOM      1  C   UNL     1       5.021   5.051  18.319  0.00  0.00    +0.000 A 
ATOM      2  CA  UNL     1       5.763   5.474  17.221  0.00  0.00    +0.000 A 
ATOM      3  N   UNL     1       5.169   6.652  16.806  0.00  0.00    +0.000 N 
ATOM      4  C   UNL     1       4.089   6.984  17.581  0.00  0.00    +0.000 A 
ATOM      5  C   UNL     1       3.201   8.063  17.461  0.00  0.00    +0.000 A 
ATOM      6  C   UNL     1       2.192   8.188  18.420  0.00  0.00    +0.000 A 
ATOM      7 CL   UNL     1       1.064   9.483  18.288  0.00  0.00    +0.000 Cl
ATOM      8  C   UNL     1       2.087   7.298  19.479  0.00  0.00    +0.000 A 
ATOM      9  C   UNL     1       2.978   6.228  19.560  0.00  0.00    +0.000 A 
ATOM     10 CL   UNL     1       2.914   5.157  20.893  0.00  0.00    +0.000 Cl
ATOM     11  C   UNL     1       3.990   6.023  18.591  0.00  0.00    +0.000 A 
ATOM     12  H   UNL     1       5.505   7.187  16.012  0.00  0.00    +0.000 HD
ENDROOT
BRANCH   1  14
ATOM     13  C   UNL     1       4.305   2.831  19.249  0.00  0.00    +0.000 C 
ATOM     14  C   UNL     1       5.194   3.825  19.033  0.00  0.00    +0.000 C 
BRANCH  13  15
ATOM     15  C   UNL     1       2.961   2.839  18.757  0.00  0.00    +0.000 A 
ATOM     16  C   UNL     1       2.417   3.200  17.524  0.00  0.00    +0.000 A 
ATOM     17  C   UNL     1       1.021   2.993  17.565  0.00  0.00    +0.000 A 
ATOM     18  C   UNL     1       0.754   2.509  18.816  0.00  0.00    +0.000 A 
ATOM     19  O   UNL     1       1.897   2.399  19.530  0.00  0.00    +0.000 OA
ENDBRANCH  13  15
BRANCH  13  21
ATOM     20  O   UNL     1       5.144   1.827  21.262  0.00  0.00    +0.000 OA
ATOM     21  C   UNL     1       4.831   1.700  20.086  0.00  0.00    +0.000 C 
BRANCH  21  22
ATOM     22  O   UNL     1       4.929   0.508  19.459  0.00  0.00    +0.000 OA
ATOM     23  H   UNL     1       5.577  -0.107  19.857  0.00  0.00    +0.000 HD
ENDBRANCH  21  22
ENDBRANCH  13  21
ENDBRANCH   1  14
BRANCH   2  24
ATOM     24  C   UNL     1       6.915   5.011  16.477  0.00  0.00    +0.000 C 
ATOM     25  O   UNL     1       7.848   4.407  16.996  0.00  0.00    +0.000 OA
BRANCH  24  26
ATOM     26  OXT UNL     1       6.901   5.281  15.156  0.00  0.00    +0.000 OA
ATOM     27  HXT UNL     1       7.175   4.548  14.584  0.00  0.00    +0.000 HD
ENDBRANCH  24  26
ENDBRANCH   2  24
TORSDOF 6
ENDMDL
