MODEL 1
REMARK VINA RESULT:      -7.5      0.000      0.000
REMARK  Name = 
REMARK  17 active torsions:
REMARK  status: ('A' for Active; 'I' for Inactive)
REMARK    1  A    between atoms: C_2  and  C_24
REMARK    2  A    between atoms: N_3  and  C_4
REMARK    3  A    between atoms: C_4  and  C_5
REMARK    4  A    between atoms: C_5  and  C_6
REMARK    5  A    between atoms: C_6  and  C_7
REMARK    6  A    between atoms: C_7  and  C_8
REMARK    7  A    between atoms: C_8  and  C_9
REMARK    8  A    between atoms: C_9  and  C_10
REMARK    9  A    between atoms: C_10  and  C_11
REMARK   10  A    between atoms: C_11  and  N_12
REMARK   11  A    between atoms: C_13  and  C_15
REMARK   12  A    between atoms: C_17  and  O_18
REMARK   13  A    between atoms: C_19  and  O_20
REMARK   14  A    between atoms: C_21  and  O_22
REMARK   15  A    between atoms: C_26  and  O_27
REMARK   16  A    between atoms: C_28  and  O_29
REMARK   17  A    between atoms: C_30  and  O_31
REMARK                            x       y       z     vdW  Elec       q    Type
REMARK                         _______ _______ _______ _____ _____    ______ ____
ROOT
ATOM      1  C   UNL     1       1.257   3.570  20.885  0.00  0.00    +0.000 C 
ENDROOT
BRANCH   1   2
ATOM      2  C   UNL     1       1.265   4.740  19.910  0.00  0.00    +0.000 C 
BRANCH   2   3
ATOM      3  C   UNL     1       2.398   5.717  20.231  0.00  0.00    +0.000 C 
BRANCH   3   4
ATOM      4  C   UNL     1       2.089   7.144  19.781  0.00  0.00    +0.000 C 
BRANCH   4   5
ATOM      5  C   UNL     1       1.421   7.971  20.877  0.00  0.00    +0.000 C 
BRANCH   5   6
ATOM      6  N   UNL     1       1.019   9.267  20.383  0.00  0.00    +0.000 N 
ATOM      7  C   UNL     1       0.845  10.344  21.221  0.00  0.00    +0.000 C 
ATOM      8  O   UNL     1       0.979  10.293  22.439  0.00  0.00    +0.000 OA
ATOM      9  H   UNL     1       0.840   9.353  19.393  0.00  0.00    +0.000 HD
BRANCH   7  10
ATOM     10  C   UNL     1       0.446  11.621  20.574  0.00  0.00    +0.000 A 
ATOM     11  C   UNL     1      -0.096  11.568  19.276  0.00  0.00    +0.000 A 
ATOM     12  C   UNL     1      -0.520  12.744  18.667  0.00  0.00    +0.000 A 
ATOM     13  C   UNL     1      -0.411  13.957  19.339  0.00  0.00    +0.000 A 
ATOM     14  C   UNL     1       0.130  14.005  20.616  0.00  0.00    +0.000 A 
ATOM     15  C   UNL     1       0.558  12.847  21.246  0.00  0.00    +0.000 A 
BRANCH  14  16
ATOM     16  O   UNL     1       0.230  15.192  21.279  0.00  0.00    +0.000 OA
ATOM     17  H   UNL     1       0.815  15.742  20.717  0.00  0.00    +0.000 HD
ENDBRANCH  14  16
BRANCH  13  18
ATOM     18  O   UNL     1      -0.847  15.117  18.760  0.00  0.00    +0.000 OA
ATOM     19  H   UNL     1      -1.540  14.827  18.131  0.00  0.00    +0.000 HD
ENDBRANCH  13  18
BRANCH  12  20
ATOM     20  O   UNL     1      -1.061  12.759  17.411  0.00  0.00    +0.000 OA
ATOM     21  H   UNL     1      -1.880  13.287  17.438  0.00  0.00    +0.000 HD
ENDBRANCH  12  20
ENDBRANCH   7  10
ENDBRANCH   5   6
ENDBRANCH   4   5
ENDBRANCH   3   4
ENDBRANCH   2   3
ENDBRANCH   1   2
BRANCH   1  22
ATOM     22  C   UNL     1       1.208   2.229  20.149  0.00  0.00    +0.000 C 
BRANCH  22  23
ATOM     23  C   UNL     1       1.387   2.382  18.636  0.00  0.00    +0.000 C 
BRANCH  23  24
ATOM     24  C   UNL     1       2.767   1.928  18.159  0.00  0.00    +0.000 C 
BRANCH  24  27
ATOM     25  O   UNL     1       4.855   2.896  19.777  0.00  0.00    +0.000 OA
ATOM     26  C   UNL     1       4.613   3.454  18.710  0.00  0.00    +0.000 C 
ATOM     27  N   UNL     1       3.631   3.041  17.839  0.00  0.00    +0.000 N 
ATOM     28  H   UNL     1       3.571   3.445  16.913  0.00  0.00    +0.000 HD
BRANCH  26  29
ATOM     29  C   UNL     1       5.427   4.623  18.298  0.00  0.00    +0.000 A 
ATOM     30  C   UNL     1       5.067   5.269  17.102  0.00  0.00    +0.000 A 
ATOM     31  C   UNL     1       5.830   6.335  16.644  0.00  0.00    +0.000 A 
ATOM     32  C   UNL     1       6.945   6.752  17.360  0.00  0.00    +0.000 A 
ATOM     33  C   UNL     1       7.303   6.110  18.541  0.00  0.00    +0.000 A 
ATOM     34  C   UNL     1       6.552   5.045  19.023  0.00  0.00    +0.000 A 
BRANCH  33  35
ATOM     35  O   UNL     1       8.413   6.511  19.225  0.00  0.00    +0.000 OA
ATOM     36  H   UNL     1       8.420   7.488  19.133  0.00  0.00    +0.000 HD
ENDBRANCH  33  35
BRANCH  32  37
ATOM     37  O   UNL     1       7.716   7.786  16.904  0.00  0.00    +0.000 OA
ATOM     38  H   UNL     1       7.128   8.567  16.957  0.00  0.00    +0.000 HD
ENDBRANCH  32  37
BRANCH  31  39
ATOM     39  O   UNL     1       5.527   6.997  15.487  0.00  0.00    +0.000 OA
ATOM     40  H   UNL     1       4.818   6.505  15.034  0.00  0.00    +0.000 HD
ENDBRANCH  31  39
ENDBRANCH  26  29
ENDBRANCH  24  27
ENDBRANCH  23  24
ENDBRANCH  22  23
ENDBRANCH   1  22
TORSDOF 17
ENDMDL
MODEL 2
REMARK VINA RESULT:      -7.5      1.537      8.998
REMARK  Name = 
REMARK  17 active torsions:
REMARK  status: ('A' for Active; 'I' for Inactive)
REMARK    1  A    between atoms: C_2  and  C_24
REMARK    2  A    between atoms: N_3  and  C_4
REMARK    3  A    between atoms: C_4  and  C_5
REMARK    4  A    between atoms: C_5  and  C_6
REMARK    5  A    between atoms: C_6  and  C_7
REMARK    6  A    between atoms: C_7  and  C_8
REMARK    7  A    between atoms: C_8  and  C_9
REMARK    8  A    between atoms: C_9  and  C_10
REMARK    9  A    between atoms: C_10  and  C_11
REMARK   10  A    between atoms: C_11  and  N_12
REMARK   11  A    between atoms: C_13  and  C_15
REMARK   12  A    between atoms: C_17  and  O_18
REMARK   13  A    between atoms: C_19  and  O_20
REMARK   14  A    between atoms: C_21  and  O_22
REMARK   15  A    between atoms: C_26  and  O_27
REMARK   16  A    between atoms: C_28  and  O_29
REMARK   17  A    between atoms: C_30  and  O_31
REMARK                            x       y       z     vdW  Elec       q    Type
REMARK                         _______ _______ _______ _____ _____    ______ ____
ROOT
ATOM      1  C   UNL     1       1.766   6.250  20.458  0.00  0.00    +0.000 C 
ENDROOT
BRANCH   1   2
ATOM      2  C   UNL     1       1.739   4.740  20.657  0.00  0.00    +0.000 C 
BRANCH   2   3
ATOM      3  C   UNL     1       1.203   4.030  19.413  0.00  0.00    +0.000 C 
BRANCH   3   4
ATOM      4  C   UNL     1       1.321   2.509  19.507  0.00  0.00    +0.000 C 
BRANCH   4   5
ATOM      5  C   UNL     1       2.618   1.984  18.898  0.00  0.00    +0.000 C 
BRANCH   5   6
ATOM      6  N   UNL     1       3.451   3.066  18.427  0.00  0.00    +0.000 N 
ATOM      7  C   UNL     1       4.687   3.325  18.972  0.00  0.00    +0.000 C 
ATOM      8  O   UNL     1       5.167   2.698  19.909  0.00  0.00    +0.000 OA
ATOM      9  H   UNL     1       3.080   3.651  17.692  0.00  0.00    +0.000 HD
BRANCH   7  10
ATOM     10  C   UNL     1       5.440   4.460  18.378  0.00  0.00    +0.000 A 
ATOM     11  C   UNL     1       6.508   5.008  19.112  0.00  0.00    +0.000 A 
ATOM     12  C   UNL     1       7.258   6.040  18.557  0.00  0.00    +0.000 A 
ATOM     13  C   UNL     1       6.953   6.519  17.288  0.00  0.00    +0.000 A 
ATOM     14  C   UNL     1       5.894   5.980  16.569  0.00  0.00    +0.000 A 
ATOM     15  C   UNL     1       5.134   4.949  17.099  0.00  0.00    +0.000 A 
BRANCH  14  16
ATOM     16  O   UNL     1       5.600   6.443  15.321  0.00  0.00    +0.000 OA
ATOM     17  H   UNL     1       5.358   5.642  14.810  0.00  0.00    +0.000 HD
ENDBRANCH  14  16
BRANCH  13  18
ATOM     18  O   UNL     1       7.698   7.516  16.721  0.00  0.00    +0.000 OA
ATOM     19  H   UNL     1       8.471   7.607  17.315  0.00  0.00    +0.000 HD
ENDBRANCH  13  18
BRANCH  12  20
ATOM     20  O   UNL     1       8.311   6.610  19.216  0.00  0.00    +0.000 OA
ATOM     21  H   UNL     1       8.178   7.575  19.228  0.00  0.00    +0.000 HD
ENDBRANCH  12  20
ENDBRANCH   7  10
ENDBRANCH   5   6
ENDBRANCH   4   5
ENDBRANCH   3   4
ENDBRANCH   2   3
ENDBRANCH   1   2
BRANCH   1  22
ATOM     22  C   UNL     1       2.873   6.666  19.486  0.00  0.00    +0.000 C 
BRANCH  22  23
ATOM     23  C   UNL     1       2.330   7.059  18.110  0.00  0.00    +0.000 C 
BRANCH  23  24
ATOM     24  C   UNL     1       2.319   8.572  17.894  0.00  0.00    +0.000 C 
BRANCH  24  27
ATOM     25  O   UNL     1       2.079  11.354  18.243  0.00  0.00    +0.000 OA
ATOM     26  C   UNL     1       1.299  10.605  18.827  0.00  0.00    +0.000 C 
ATOM     27  N   UNL     1       1.319   9.235  18.701  0.00  0.00    +0.000 N 
ATOM     28  H   UNL     1       0.567   8.679  19.086  0.00  0.00    +0.000 HD
BRANCH  26  29
ATOM     29  C   UNL     1       0.249  11.183  19.700  0.00  0.00    +0.000 A 
ATOM     30  C   UNL     1       0.343  10.925  21.079  0.00  0.00    +0.000 A 
ATOM     31  C   UNL     1      -0.644  11.398  21.932  0.00  0.00    +0.000 A 
ATOM     32  C   UNL     1      -1.721  12.111  21.423  0.00  0.00    +0.000 A 
ATOM     33  C   UNL     1      -1.817  12.363  20.058  0.00  0.00    +0.000 A 
ATOM     34  C   UNL     1      -0.837  11.906  19.184  0.00  0.00    +0.000 A 
BRANCH  33  35
ATOM     35  O   UNL     1      -2.890  13.045  19.564  0.00  0.00    +0.000 OA
ATOM     36  H   UNL     1      -3.165  12.533  18.773  0.00  0.00    +0.000 HD
ENDBRANCH  33  35
BRANCH  32  37
ATOM     37  O   UNL     1      -2.712  12.560  22.253  0.00  0.00    +0.000 OA
ATOM     38  H   UNL     1      -2.302  12.556  23.142  0.00  0.00    +0.000 HD
ENDBRANCH  32  37
BRANCH  31  39
ATOM     39  O   UNL     1      -0.604  11.173  23.280  0.00  0.00    +0.000 OA
ATOM     40  H   UNL     1       0.254  10.761  23.492  0.00  0.00    +0.000 HD
ENDBRANCH  31  39
ENDBRANCH  26  29
ENDBRANCH  24  27
ENDBRANCH  23  24
ENDBRANCH  22  23
ENDBRANCH   1  22
TORSDOF 17
ENDMDL
MODEL 3
REMARK VINA RESULT:      -7.5      2.079      9.051
REMARK  Name = 
REMARK  17 active torsions:
REMARK  status: ('A' for Active; 'I' for Inactive)
REMARK    1  A    between atoms: C_2  and  C_24
REMARK    2  A    between atoms: N_3  and  C_4
REMARK    3  A    between atoms: C_4  and  C_5
REMARK    4  A    between atoms: C_5  and  C_6
REMARK    5  A    between atoms: C_6  and  C_7
REMARK    6  A    between atoms: C_7  and  C_8
REMARK    7  A    between atoms: C_8  and  C_9
REMARK    8  A    between atoms: C_9  and  C_10
REMARK    9  A    between atoms: C_10  and  C_11
REMARK   10  A    between atoms: C_11  and  N_12
REMARK   11  A    between atoms: C_13  and  C_15
REMARK   12  A    between atoms: C_17  and  O_18
REMARK   13  A    between atoms: C_19  and  O_20
REMARK   14  A    between atoms: C_21  and  O_22
REMARK   15  A    between atoms: C_26  and  O_27
REMARK   16  A    between atoms: C_28  and  O_29
REMARK   17  A    between atoms: C_30  and  O_31
REMARK                            x       y       z     vdW  Elec       q    Type
REMARK                         _______ _______ _______ _____ _____    ______ ____
ROOT
ATOM      1  C   UNL     1       2.195   5.432  20.024  0.00  0.00    +0.000 C 
ENDROOT
BRANCH   1   2
ATOM      2  C   UNL     1       1.052   4.501  20.409  0.00  0.00    +0.000 C 
BRANCH   2   3
ATOM      3  C   UNL     1       1.580   3.142  20.870  0.00  0.00    +0.000 C 
BRANCH   3   4
ATOM      4  C   UNL     1       3.079   3.165  21.170  0.00  0.00    +0.000 C 
BRANCH   4   5
ATOM      5  C   UNL     1       3.856   2.142  20.346  0.00  0.00    +0.000 C 
BRANCH   5   6
ATOM      6  N   UNL     1       4.697   2.789  19.366  0.00  0.00    +0.000 N 
ATOM      7  C   UNL     1       4.317   2.917  18.050  0.00  0.00    +0.000 C 
ATOM      8  O   UNL     1       3.270   2.473  17.593  0.00  0.00    +0.000 OA
ATOM      9  H   UNL     1       5.598   3.125  19.676  0.00  0.00    +0.000 HD
BRANCH   7  10
ATOM     10  C   UNL     1       5.276   3.619  17.157  0.00  0.00    +0.000 A 
ATOM     11  C   UNL     1       5.340   3.224  15.808  0.00  0.00    +0.000 A 
ATOM     12  C   UNL     1       6.196   3.897  14.942  0.00  0.00    +0.000 A 
ATOM     13  C   UNL     1       6.975   4.950  15.409  0.00  0.00    +0.000 A 
ATOM     14  C   UNL     1       6.912   5.332  16.742  0.00  0.00    +0.000 A 
ATOM     15  C   UNL     1       6.066   4.679  17.625  0.00  0.00    +0.000 A 
BRANCH  14  16
ATOM     16  O   UNL     1       7.669   6.370  17.199  0.00  0.00    +0.000 OA
ATOM     17  H   UNL     1       7.060   7.138  17.204  0.00  0.00    +0.000 HD
ENDBRANCH  14  16
BRANCH  13  18
ATOM     18  O   UNL     1       7.801   5.636  14.562  0.00  0.00    +0.000 OA
ATOM     19  H   UNL     1       7.201   5.984  13.869  0.00  0.00    +0.000 HD
ENDBRANCH  13  18
BRANCH  12  20
ATOM     20  O   UNL     1       6.299   3.567  13.620  0.00  0.00    +0.000 OA
ATOM     21  H   UNL     1       7.243   3.445  13.408  0.00  0.00    +0.000 HD
ENDBRANCH  12  20
ENDBRANCH   7  10
ENDBRANCH   5   6
ENDBRANCH   4   5
ENDBRANCH   3   4
ENDBRANCH   2   3
ENDBRANCH   1   2
BRANCH   1  22
ATOM     22  C   UNL     1       2.195   5.724  18.521  0.00  0.00    +0.000 C 
BRANCH  22  23
ATOM     23  C   UNL     1       3.201   6.811  18.134  0.00  0.00    +0.000 C 
BRANCH  23  24
ATOM     24  C   UNL     1       2.531   8.157  17.853  0.00  0.00    +0.000 C 
BRANCH  24  27
ATOM     25  O   UNL     1       0.421  10.016  17.807  0.00  0.00    +0.000 OA
ATOM     26  C   UNL     1       0.838   9.609  18.887  0.00  0.00    +0.000 C 
ATOM     27  N   UNL     1       1.847   8.682  19.014  0.00  0.00    +0.000 N 
ATOM     28  H   UNL     1       2.053   8.275  19.917  0.00  0.00    +0.000 HD
BRANCH  26  29
ATOM     29  C   UNL     1       0.222  10.104  20.141  0.00  0.00    +0.000 A 
ATOM     30  C   UNL     1      -0.692  11.168  20.035  0.00  0.00    +0.000 A 
ATOM     31  C   UNL     1      -1.256  11.703  21.185  0.00  0.00    +0.000 A 
ATOM     32  C   UNL     1      -0.911  11.195  22.431  0.00  0.00    +0.000 A 
ATOM     33  C   UNL     1      -0.004  10.145  22.536  0.00  0.00    +0.000 A 
ATOM     34  C   UNL     1       0.569   9.588  21.399  0.00  0.00    +0.000 A 
BRANCH  33  35
ATOM     35  O   UNL     1       0.346   9.668  23.765  0.00  0.00    +0.000 OA
ATOM     36  H   UNL     1       1.240   9.284  23.636  0.00  0.00    +0.000 HD
ENDBRANCH  33  35
BRANCH  32  37
ATOM     37  O   UNL     1      -1.443  11.731  23.572  0.00  0.00    +0.000 OA
ATOM     38  H   UNL     1      -0.662  11.958  24.118  0.00  0.00    +0.000 HD
ENDBRANCH  32  37
BRANCH  31  39
ATOM     39  O   UNL     1      -2.146  12.739  21.139  0.00  0.00    +0.000 OA
ATOM     40  H   UNL     1      -1.667  13.560  21.356  0.00  0.00    +0.000 HD
ENDBRANCH  31  39
ENDBRANCH  26  29
ENDBRANCH  24  27
ENDBRANCH  23  24
ENDBRANCH  22  23
ENDBRANCH   1  22
TORSDOF 17
ENDMDL
MODEL 4
REMARK VINA RESULT:      -7.4      2.418      9.653
REMARK  Name = 
REMARK  17 active torsions:
REMARK  status: ('A' for Active; 'I' for Inactive)
REMARK    1  A    between atoms: C_2  and  C_24
REMARK    2  A    between atoms: N_3  and  C_4
REMARK    3  A    between atoms: C_4  and  C_5
REMARK    4  A    between atoms: C_5  and  C_6
REMARK    5  A    between atoms: C_6  and  C_7
REMARK    6  A    between atoms: C_7  and  C_8
REMARK    7  A    between atoms: C_8  and  C_9
REMARK    8  A    between atoms: C_9  and  C_10
REMARK    9  A    between atoms: C_10  and  C_11
REMARK   10  A    between atoms: C_11  and  N_12
REMARK   11  A    between atoms: C_13  and  C_15
REMARK   12  A    between atoms: C_17  and  O_18
REMARK   13  A    between atoms: C_19  and  O_20
REMARK   14  A    between atoms: C_21  and  O_22
REMARK   15  A    between atoms: C_26  and  O_27
REMARK   16  A    between atoms: C_28  and  O_29
REMARK   17  A    between atoms: C_30  and  O_31
REMARK                            x       y       z     vdW  Elec       q    Type
REMARK                         _______ _______ _______ _____ _____    ______ ____
ROOT
ATOM      1  C   UNL     1       2.048   5.814  18.897  0.00  0.00    +0.000 C 
ENDROOT
BRANCH   1   2
ATOM      2  C   UNL     1       1.797   5.299  20.309  0.00  0.00    +0.000 C 
BRANCH   2   3
ATOM      3  C   UNL     1       0.885   4.071  20.293  0.00  0.00    +0.000 C 
BRANCH   3   4
ATOM      4  C   UNL     1       1.622   2.787  20.671  0.00  0.00    +0.000 C 
BRANCH   4   5
ATOM      5  C   UNL     1       2.106   2.009  19.450  0.00  0.00    +0.000 C 
BRANCH   5   6
ATOM      6  N   UNL     1       3.015   2.799  18.653  0.00  0.00    +0.000 N 
ATOM      7  C   UNL     1       4.330   2.983  19.015  0.00  0.00    +0.000 C 
ATOM      8  O   UNL     1       4.827   2.533  20.041  0.00  0.00    +0.000 OA
ATOM      9  H   UNL     1       2.644   3.241  17.824  0.00  0.00    +0.000 HD
BRANCH   7  10
ATOM     10  C   UNL     1       5.154   3.806  18.093  0.00  0.00    +0.000 A 
ATOM     11  C   UNL     1       6.071   4.716  18.651  0.00  0.00    +0.000 A 
ATOM     12  C   UNL     1       6.887   5.464  17.809  0.00  0.00    +0.000 A 
ATOM     13  C   UNL     1       6.795   5.309  16.429  0.00  0.00    +0.000 A 
ATOM     14  C   UNL     1       5.885   4.415  15.883  0.00  0.00    +0.000 A 
ATOM     15  C   UNL     1       5.063   3.656  16.701  0.00  0.00    +0.000 A 
BRANCH  14  16
ATOM     16  O   UNL     1       5.800   4.255  14.532  0.00  0.00    +0.000 OA
ATOM     17  H   UNL     1       6.497   3.600  14.316  0.00  0.00    +0.000 HD
ENDBRANCH  14  16
BRANCH  13  18
ATOM     18  O   UNL     1       7.609   6.020  15.591  0.00  0.00    +0.000 OA
ATOM     19  H   UNL     1       7.041   6.227  14.821  0.00  0.00    +0.000 HD
ENDBRANCH  13  18
BRANCH  12  20
ATOM     20  O   UNL     1       7.802   6.359  18.288  0.00  0.00    +0.000 OA
ATOM     21  H   UNL     1       8.349   5.908  18.957  0.00  0.00    +0.000 HD
ENDBRANCH  12  20
ENDBRANCH   7  10
ENDBRANCH   5   6
ENDBRANCH   4   5
ENDBRANCH   3   4
ENDBRANCH   2   3
ENDBRANCH   1   2
BRANCH   1  22
ATOM     22  C   UNL     1       2.817   7.138  18.914  0.00  0.00    +0.000 C 
BRANCH  22  23
ATOM     23  C   UNL     1       1.925   8.331  19.268  0.00  0.00    +0.000 C 
BRANCH  23  24
ATOM     24  C   UNL     1       1.808   9.335  18.121  0.00  0.00    +0.000 C 
BRANCH  24  27
ATOM     25  O   UNL     1       0.283  11.456  19.165  0.00  0.00    +0.000 OA
ATOM     26  C   UNL     1      -0.236  10.678  18.370  0.00  0.00    +0.000 C 
ATOM     27  N   UNL     1       0.432   9.627  17.785  0.00  0.00    +0.000 N 
ATOM     28  H   UNL     1       0.002   9.107  17.031  0.00  0.00    +0.000 HD
BRANCH  26  29
ATOM     29  C   UNL     1      -1.652  10.873  17.976  0.00  0.00    +0.000 A 
ATOM     30  C   UNL     1      -2.056  10.345  16.737  0.00  0.00    +0.000 A 
ATOM     31  C   UNL     1      -3.358  10.548  16.299  0.00  0.00    +0.000 A 
ATOM     32  C   UNL     1      -4.249  11.275  17.076  0.00  0.00    +0.000 A 
ATOM     33  C   UNL     1      -3.849  11.801  18.300  0.00  0.00    +0.000 A 
ATOM     34  C   UNL     1      -2.553  11.606  18.764  0.00  0.00    +0.000 A 
BRANCH  33  35
ATOM     35  O   UNL     1      -4.724  12.534  19.046  0.00  0.00    +0.000 OA
ATOM     36  H   UNL     1      -4.469  12.353  19.976  0.00  0.00    +0.000 HD
ENDBRANCH  33  35
BRANCH  32  37
ATOM     37  O   UNL     1      -5.527  11.501  16.641  0.00  0.00    +0.000 OA
ATOM     38  H   UNL     1      -6.065  10.840  17.123  0.00  0.00    +0.000 HD
ENDBRANCH  32  37
BRANCH  31  39
ATOM     39  O   UNL     1      -3.801  10.060  15.102  0.00  0.00    +0.000 OA
ATOM     40  H   UNL     1      -3.934   9.099  15.197  0.00  0.00    +0.000 HD
ENDBRANCH  31  39
ENDBRANCH  26  29
ENDBRANCH  24  27
ENDBRANCH  23  24
ENDBRANCH  22  23
ENDBRANCH   1  22
TORSDOF 17
ENDMDL
MODEL 5
REMARK VINA RESULT:      -7.3      1.667      2.287
REMARK  Name = 
REMARK  17 active torsions:
REMARK  status: ('A' for Active; 'I' for Inactive)
REMARK    1  A    between atoms: C_2  and  C_24
REMARK    2  A    between atoms: N_3  and  C_4
REMARK    3  A    between atoms: C_4  and  C_5
REMARK    4  A    between atoms: C_5  and  C_6
REMARK    5  A    between atoms: C_6  and  C_7
REMARK    6  A    between atoms: C_7  and  C_8
REMARK    7  A    between atoms: C_8  and  C_9
REMARK    8  A    between atoms: C_9  and  C_10
REMARK    9  A    between atoms: C_10  and  C_11
REMARK   10  A    between atoms: C_11  and  N_12
REMARK   11  A    between atoms: C_13  and  C_15
REMARK   12  A    between atoms: C_17  and  O_18
REMARK   13  A    between atoms: C_19  and  O_20
REMARK   14  A    between atoms: C_21  and  O_22
REMARK   15  A    between atoms: C_26  and  O_27
REMARK   16  A    between atoms: C_28  and  O_29
REMARK   17  A    between atoms: C_30  and  O_31
REMARK                            x       y       z     vdW  Elec       q    Type
REMARK                         _______ _______ _______ _____ _____    ______ ____
ROOT
ATOM      1  C   UNL     1       2.221   5.073  20.740  0.00  0.00    +0.000 C 
ENDROOT
BRANCH   1   2
ATOM      2  C   UNL     1       1.882   6.433  20.140  0.00  0.00    +0.000 C 
BRANCH   2   3
ATOM      3  C   UNL     1       2.434   6.560  18.720  0.00  0.00    +0.000 C 
BRANCH   3   4
ATOM      4  C   UNL     1       2.811   7.998  18.362  0.00  0.00    +0.000 C 
BRANCH   4   5
ATOM      5  C   UNL     1       1.659   8.761  17.714  0.00  0.00    +0.000 C 
BRANCH   5   6
ATOM      6  N   UNL     1       0.973   9.590  18.677  0.00  0.00    +0.000 N 
ATOM      7  C   UNL     1      -0.292  10.079  18.446  0.00  0.00    +0.000 C 
ATOM      8  O   UNL     1      -0.922   9.889  17.412  0.00  0.00    +0.000 OA
ATOM      9  H   UNL     1       1.468   9.825  19.525  0.00  0.00    +0.000 HD
BRANCH   7  10
ATOM     10  C   UNL     1      -0.883  10.906  19.531  0.00  0.00    +0.000 A 
ATOM     11  C   UNL     1      -1.980  11.729  19.219  0.00  0.00    +0.000 A 
ATOM     12  C   UNL     1      -2.579  12.477  20.227  0.00  0.00    +0.000 A 
ATOM     13  C   UNL     1      -2.097  12.405  21.530  0.00  0.00    +0.000 A 
ATOM     14  C   UNL     1      -1.010  11.596  21.832  0.00  0.00    +0.000 A 
ATOM     15  C   UNL     1      -0.397  10.839  20.845  0.00  0.00    +0.000 A 
BRANCH  14  16
ATOM     16  O   UNL     1      -0.543  11.517  23.110  0.00  0.00    +0.000 OA
ATOM     17  H   UNL     1      -0.489  10.556  23.296  0.00  0.00    +0.000 HD
ENDBRANCH  14  16
BRANCH  13  18
ATOM     18  O   UNL     1      -2.693  13.116  22.535  0.00  0.00    +0.000 OA
ATOM     19  H   UNL     1      -1.953  13.362  23.128  0.00  0.00    +0.000 HD
ENDBRANCH  13  18
BRANCH  12  20
ATOM     20  O   UNL     1      -3.651  13.291  19.990  0.00  0.00    +0.000 OA
ATOM     21  H   UNL     1      -3.416  13.905  19.271  0.00  0.00    +0.000 HD
ENDBRANCH  12  20
ENDBRANCH   7  10
ENDBRANCH   5   6
ENDBRANCH   4   5
ENDBRANCH   3   4
ENDBRANCH   2   3
ENDBRANCH   1   2
BRANCH   1  22
ATOM     22  C   UNL     1       1.118   4.050  20.463  0.00  0.00    +0.000 C 
BRANCH  22  23
ATOM     23  C   UNL     1       1.638   2.610  20.460  0.00  0.00    +0.000 C 
BRANCH  23  24
ATOM     24  C   UNL     1       2.209   2.196  19.103  0.00  0.00    +0.000 C 
BRANCH  24  27
ATOM     25  O   UNL     1       4.888   2.495  19.907  0.00  0.00    +0.000 OA
ATOM     26  C   UNL     1       4.429   3.252  19.056  0.00  0.00    +0.000 C 
ATOM     27  N   UNL     1       3.141   3.170  18.579  0.00  0.00    +0.000 N 
ATOM     28  H   UNL     1       2.860   3.721  17.778  0.00  0.00    +0.000 HD
BRANCH  26  29
ATOM     29  C   UNL     1       5.295   4.303  18.470  0.00  0.00    +0.000 A 
ATOM     30  C   UNL     1       5.054   4.665  17.133  0.00  0.00    +0.000 A 
ATOM     31  C   UNL     1       5.872   5.606  16.522  0.00  0.00    +0.000 A 
ATOM     32  C   UNL     1       6.925   6.176  17.226  0.00  0.00    +0.000 A 
ATOM     33  C   UNL     1       7.165   5.814  18.547  0.00  0.00    +0.000 A 
ATOM     34  C   UNL     1       6.357   4.880  19.183  0.00  0.00    +0.000 A 
BRANCH  33  35
ATOM     35  O   UNL     1       8.216   6.362  19.224  0.00  0.00    +0.000 OA
ATOM     36  H   UNL     1       7.803   6.985  19.859  0.00  0.00    +0.000 HD
ENDBRANCH  33  35
BRANCH  32  37
ATOM     37  O   UNL     1       7.751   7.086  16.624  0.00  0.00    +0.000 OA
ATOM     38  H   UNL     1       7.338   7.246  15.751  0.00  0.00    +0.000 HD
ENDBRANCH  32  37
BRANCH  31  39
ATOM     39  O   UNL     1       5.685   5.993  15.224  0.00  0.00    +0.000 OA
ATOM     40  H   UNL     1       5.792   6.960  15.178  0.00  0.00    +0.000 HD
ENDBRANCH  31  39
ENDBRANCH  26  29
ENDBRANCH  24  27
ENDBRANCH  23  24
ENDBRANCH  22  23
ENDBRANCH   1  22
TORSDOF 17
ENDMDL
MODEL 6
REMARK VINA RESULT:      -7.3      1.765      8.836
REMARK  Name = 
REMARK  17 active torsions:
REMARK  status: ('A' for Active; 'I' for Inactive)
REMARK    1  A    between atoms: C_2  and  C_24
REMARK    2  A    between atoms: N_3  and  C_4
REMARK    3  A    between atoms: C_4  and  C_5
REMARK    4  A    between atoms: C_5  and  C_6
REMARK    5  A    between atoms: C_6  and  C_7
REMARK    6  A    between atoms: C_7  and  C_8
REMARK    7  A    between atoms: C_8  and  C_9
REMARK    8  A    between atoms: C_9  and  C_10
REMARK    9  A    between atoms: C_10  and  C_11
REMARK   10  A    between atoms: C_11  and  N_12
REMARK   11  A    between atoms: C_13  and  C_15
REMARK   12  A    between atoms: C_17  and  O_18
REMARK   13  A    between atoms: C_19  and  O_20
REMARK   14  A    between atoms: C_21  and  O_22
REMARK   15  A    between atoms: C_26  and  O_27
REMARK   16  A    between atoms: C_28  and  O_29
REMARK   17  A    between atoms: C_30  and  O_31
REMARK                            x       y       z     vdW  Elec       q    Type
REMARK                         _______ _______ _______ _____ _____    ______ ____
ROOT
ATOM      1  C   UNL     1       1.917   4.766  21.101  0.00  0.00    +0.000 C 
ENDROOT
BRANCH   1   2
ATOM      2  C   UNL     1       1.081   3.725  20.366  0.00  0.00    +0.000 C 
BRANCH   2   3
ATOM      3  C   UNL     1       1.664   3.429  18.983  0.00  0.00    +0.000 C 
BRANCH   3   4
ATOM      4  C   UNL     1       2.192   2.000  18.861  0.00  0.00    +0.000 C 
BRANCH   4   5
ATOM      5  C   UNL     1       3.415   1.904  17.953  0.00  0.00    +0.000 C 
BRANCH   5   6
ATOM      6  N   UNL     1       4.388   2.922  18.277  0.00  0.00    +0.000 N 
ATOM      7  C   UNL     1       4.806   3.850  17.351  0.00  0.00    +0.000 C 
ATOM      8  O   UNL     1       4.426   3.875  16.186  0.00  0.00    +0.000 OA
ATOM      9  H   UNL     1       4.777   2.914  19.208  0.00  0.00    +0.000 HD
BRANCH   7  10
ATOM     10  C   UNL     1       5.799   4.848  17.827  0.00  0.00    +0.000 A 
ATOM     11  C   UNL     1       6.453   4.605  19.049  0.00  0.00    +0.000 A 
ATOM     12  C   UNL     1       7.420   5.501  19.493  0.00  0.00    +0.000 A 
ATOM     13  C   UNL     1       7.736   6.622  18.732  0.00  0.00    +0.000 A 
ATOM     14  C   UNL     1       7.084   6.859  17.530  0.00  0.00    +0.000 A 
ATOM     15  C   UNL     1       6.118   5.981  17.065  0.00  0.00    +0.000 A 
BRANCH  14  16
ATOM     16  O   UNL     1       7.398   7.953  16.779  0.00  0.00    +0.000 OA
ATOM     17  H   UNL     1       7.560   7.597  15.879  0.00  0.00    +0.000 HD
ENDBRANCH  14  16
BRANCH  13  18
ATOM     18  O   UNL     1       8.703   7.496  19.146  0.00  0.00    +0.000 OA
ATOM     19  H   UNL     1       8.825   8.098  18.383  0.00  0.00    +0.000 HD
ENDBRANCH  13  18
BRANCH  12  20
ATOM     20  O   UNL     1       8.096   5.319  20.668  0.00  0.00    +0.000 OA
ATOM     21  H   UNL     1       8.595   4.484  20.607  0.00  0.00    +0.000 HD
ENDBRANCH  12  20
ENDBRANCH   7  10
ENDBRANCH   5   6
ENDBRANCH   4   5
ENDBRANCH   3   4
ENDBRANCH   2   3
ENDBRANCH   1   2
BRANCH   1  22
ATOM     22  C   UNL     1       1.837   6.132  20.416  0.00  0.00    +0.000 C 
BRANCH  22  23
ATOM     23  C   UNL     1       2.714   6.214  19.165  0.00  0.00    +0.000 C 
BRANCH  23  24
ATOM     24  C   UNL     1       2.680   7.598  18.514  0.00  0.00    +0.000 C 
BRANCH  24  27
ATOM     25  O   UNL     1       2.030  10.191  17.638  0.00  0.00    +0.000 OA
ATOM     26  C   UNL     1       1.439   9.718  18.605  0.00  0.00    +0.000 C 
ATOM     27  N   UNL     1       1.667   8.452  19.093  0.00  0.00    +0.000 N 
ATOM     28  H   UNL     1       1.053   8.060  19.796  0.00  0.00    +0.000 HD
BRANCH  26  29
ATOM     29  C   UNL     1       0.396  10.522  19.287  0.00  0.00    +0.000 A 
ATOM     30  C   UNL     1       0.564  10.760  20.663  0.00  0.00    +0.000 A 
ATOM     31  C   UNL     1      -0.412  11.461  21.359  0.00  0.00    +0.000 A 
ATOM     32  C   UNL     1      -1.548  11.914  20.701  0.00  0.00    +0.000 A 
ATOM     33  C   UNL     1      -1.715  11.674  19.341  0.00  0.00    +0.000 A 
ATOM     34  C   UNL     1      -0.750  10.981  18.621  0.00  0.00    +0.000 A 
BRANCH  33  35
ATOM     35  O   UNL     1      -2.845  12.102  18.707  0.00  0.00    +0.000 OA
ATOM     36  H   UNL     1      -2.518  12.599  17.927  0.00  0.00    +0.000 HD
ENDBRANCH  33  35
BRANCH  32  37
ATOM     37  O   UNL     1      -2.526  12.584  21.384  0.00  0.00    +0.000 OA
ATOM     38  H   UNL     1      -2.062  12.962  22.159  0.00  0.00    +0.000 HD
ENDBRANCH  32  37
BRANCH  31  39
ATOM     39  O   UNL     1      -0.301  11.718  22.697  0.00  0.00    +0.000 OA
ATOM     40  H   UNL     1      -0.009  10.900  23.139  0.00  0.00    +0.000 HD
ENDBRANCH  31  39
ENDBRANCH  26  29
ENDBRANCH  24  27
ENDBRANCH  23  24
ENDBRANCH  22  23
ENDBRANCH   1  22
TORSDOF 17
ENDMDL
MODEL 7
REMARK VINA RESULT:      -7.3      2.376      2.721
REMARK  Name = 
REMARK  17 active torsions:
REMARK  status: ('A' for Active; 'I' for Inactive)
REMARK    1  A    between atoms: C_2  and  C_24
REMARK    2  A    between atoms: N_3  and  C_4
REMARK    3  A    between atoms: C_4  and  C_5
REMARK    4  A    between atoms: C_5  and  C_6
REMARK    5  A    between atoms: C_6  and  C_7
REMARK    6  A    between atoms: C_7  and  C_8
REMARK    7  A    between atoms: C_8  and  C_9
REMARK    8  A    between atoms: C_9  and  C_10
REMARK    9  A    between atoms: C_10  and  C_11
REMARK   10  A    between atoms: C_11  and  N_12
REMARK   11  A    between atoms: C_13  and  C_15
REMARK   12  A    between atoms: C_17  and  O_18
REMARK   13  A    between atoms: C_19  and  O_20
REMARK   14  A    between atoms: C_21  and  O_22
REMARK   15  A    between atoms: C_26  and  O_27
REMARK   16  A    between atoms: C_28  and  O_29
REMARK   17  A    between atoms: C_30  and  O_31
REMARK                            x       y       z     vdW  Elec       q    Type
REMARK                         _______ _______ _______ _____ _____    ______ ____
ROOT
ATOM      1  C   UNL     1       1.394   5.022  20.632  0.00  0.00    +0.000 C 
ENDROOT
BRANCH   1   2
ATOM      2  C   UNL     1       2.494   5.734  19.855  0.00  0.00    +0.000 C 
BRANCH   2   3
ATOM      3  C   UNL     1       2.230   7.239  19.781  0.00  0.00    +0.000 C 
BRANCH   3   4
ATOM      4  C   UNL     1       2.646   7.843  18.440  0.00  0.00    +0.000 C 
BRANCH   4   5
ATOM      5  C   UNL     1       1.498   8.570  17.745  0.00  0.00    +0.000 C 
BRANCH   5   6
ATOM      6  N   UNL     1       1.684  10.002  17.787  0.00  0.00    +0.000 N 
ATOM      7  C   UNL     1       1.179  10.772  18.809  0.00  0.00    +0.000 C 
ATOM      8  O   UNL     1       0.513  10.328  19.737  0.00  0.00    +0.000 OA
ATOM      9  H   UNL     1       2.178  10.429  17.017  0.00  0.00    +0.000 HD
BRANCH   7  10
ATOM     10  C   UNL     1       1.460  12.230  18.731  0.00  0.00    +0.000 A 
ATOM     11  C   UNL     1       2.728  12.640  18.279  0.00  0.00    +0.000 A 
ATOM     12  C   UNL     1       3.000  13.998  18.154  0.00  0.00    +0.000 A 
ATOM     13  C   UNL     1       2.023  14.937  18.469  0.00  0.00    +0.000 A 
ATOM     14  C   UNL     1       0.776  14.528  18.920  0.00  0.00    +0.000 A 
ATOM     15  C   UNL     1       0.480  13.180  19.051  0.00  0.00    +0.000 A 
BRANCH  14  16
ATOM     16  O   UNL     1      -0.185  15.447  19.221  0.00  0.00    +0.000 OA
ATOM     17  H   UNL     1      -0.573  15.133  20.065  0.00  0.00    +0.000 HD
ENDBRANCH  14  16
BRANCH  13  18
ATOM     18  O   UNL     1       2.269  16.275  18.325  0.00  0.00    +0.000 OA
ATOM     19  H   UNL     1       1.831  16.511  17.482  0.00  0.00    +0.000 HD
ENDBRANCH  13  18
BRANCH  12  20
ATOM     20  O   UNL     1       4.208  14.461  17.714  0.00  0.00    +0.000 OA
ATOM     21  H   UNL     1       4.595  15.019  18.414  0.00  0.00    +0.000 HD
ENDBRANCH  12  20
ENDBRANCH   7  10
ENDBRANCH   5   6
ENDBRANCH   4   5
ENDBRANCH   3   4
ENDBRANCH   2   3
ENDBRANCH   1   2
BRANCH   1  22
ATOM     22  C   UNL     1       1.522   3.501  20.516  0.00  0.00    +0.000 C 
BRANCH  22  23
ATOM     23  C   UNL     1       2.975   3.026  20.601  0.00  0.00    +0.000 C 
BRANCH  23  24
ATOM     24  C   UNL     1       3.374   2.144  19.417  0.00  0.00    +0.000 C 
BRANCH  24  27
ATOM     25  O   UNL     1       2.743   3.598  17.092  0.00  0.00    +0.000 OA
ATOM     26  C   UNL     1       3.920   3.464  17.416  0.00  0.00    +0.000 C 
ATOM     27  N   UNL     1       4.328   2.794  18.546  0.00  0.00    +0.000 N 
ATOM     28  H   UNL     1       5.295   2.838  18.842  0.00  0.00    +0.000 HD
BRANCH  26  29
ATOM     29  C   UNL     1       4.981   4.071  16.577  0.00  0.00    +0.000 A 
ATOM     30  C   UNL     1       5.231   3.481  15.326  0.00  0.00    +0.000 A 
ATOM     31  C   UNL     1       6.250   3.979  14.526  0.00  0.00    +0.000 A 
ATOM     32  C   UNL     1       7.022   5.046  14.965  0.00  0.00    +0.000 A 
ATOM     33  C   UNL     1       6.778   5.627  16.205  0.00  0.00    +0.000 A 
ATOM     34  C   UNL     1       5.759   5.151  17.021  0.00  0.00    +0.000 A 
BRANCH  33  35
ATOM     35  O   UNL     1       7.556   6.660  16.639  0.00  0.00    +0.000 OA
ATOM     36  H   UNL     1       8.454   6.273  16.728  0.00  0.00    +0.000 HD
ENDBRANCH  33  35
BRANCH  32  37
ATOM     37  O   UNL     1       8.045   5.528  14.195  0.00  0.00    +0.000 OA
ATOM     38  H   UNL     1       8.158   4.852  13.495  0.00  0.00    +0.000 HD
ENDBRANCH  32  37
BRANCH  31  39
ATOM     39  O   UNL     1       6.538   3.441  13.302  0.00  0.00    +0.000 OA
ATOM     40  H   UNL     1       5.708   3.386  12.793  0.00  0.00    +0.000 HD
ENDBRANCH  31  39
ENDBRANCH  26  29
ENDBRANCH  24  27
ENDBRANCH  23  24
ENDBRANCH  22  23
ENDBRANCH   1  22
TORSDOF 17
ENDMDL
MODEL 8
REMARK VINA RESULT:      -7.2      1.625      2.092
REMARK  Name = 
REMARK  17 active torsions:
REMARK  status: ('A' for Active; 'I' for Inactive)
REMARK    1  A    between atoms: C_2  and  C_24
REMARK    2  A    between atoms: N_3  and  C_4
REMARK    3  A    between atoms: C_4  and  C_5
REMARK    4  A    between atoms: C_5  and  C_6
REMARK    5  A    between atoms: C_6  and  C_7
REMARK    6  A    between atoms: C_7  and  C_8
REMARK    7  A    between atoms: C_8  and  C_9
REMARK    8  A    between atoms: C_9  and  C_10
REMARK    9  A    between atoms: C_10  and  C_11
REMARK   10  A    between atoms: C_11  and  N_12
REMARK   11  A    between atoms: C_13  and  C_15
REMARK   12  A    between atoms: C_17  and  O_18
REMARK   13  A    between atoms: C_19  and  O_20
REMARK   14  A    between atoms: C_21  and  O_22
REMARK   15  A    between atoms: C_26  and  O_27
REMARK   16  A    between atoms: C_28  and  O_29
REMARK   17  A    between atoms: C_30  and  O_31
REMARK                            x       y       z     vdW  Elec       q    Type
REMARK                         _______ _______ _______ _____ _____    ______ ____
ROOT
ATOM      1  C   UNL     1       2.055   3.477  21.324  0.00  0.00    +0.000 C 
ENDROOT
BRANCH   1   2
ATOM      2  C   UNL     1       0.869   3.812  20.428  0.00  0.00    +0.000 C 
BRANCH   2   3
ATOM      3  C   UNL     1       1.095   5.129  19.685  0.00  0.00    +0.000 C 
BRANCH   3   4
ATOM      4  C   UNL     1       2.448   5.763  20.010  0.00  0.00    +0.000 C 
BRANCH   4   5
ATOM      5  C   UNL     1       2.739   6.992  19.153  0.00  0.00    +0.000 C 
BRANCH   5   6
ATOM      6  N   UNL     1       1.879   8.096  19.513  0.00  0.00    +0.000 N 
ATOM      7  C   UNL     1       1.547   9.083  18.614  0.00  0.00    +0.000 C 
ATOM      8  O   UNL     1       1.969   9.133  17.464  0.00  0.00    +0.000 OA
ATOM      9  H   UNL     1       1.547   8.135  20.466  0.00  0.00    +0.000 HD
BRANCH   7  10
ATOM     10  C   UNL     1       0.641  10.148  19.116  0.00  0.00    +0.000 A 
ATOM     11  C   UNL     1      -0.431  10.551  18.299  0.00  0.00    +0.000 A 
ATOM     12  C   UNL     1      -1.319  11.514  18.766  0.00  0.00    +0.000 A 
ATOM     13  C   UNL     1      -1.148  12.067  20.031  0.00  0.00    +0.000 A 
ATOM     14  C   UNL     1      -0.085  11.670  20.831  0.00  0.00    +0.000 A 
ATOM     15  C   UNL     1       0.813  10.712  20.389  0.00  0.00    +0.000 A 
BRANCH  14  16
ATOM     16  O   UNL     1       0.079  12.205  22.075  0.00  0.00    +0.000 OA
ATOM     17  H   UNL     1       0.027  11.438  22.683  0.00  0.00    +0.000 HD
ENDBRANCH  14  16
BRANCH  13  18
ATOM     18  O   UNL     1      -2.029  12.995  20.512  0.00  0.00    +0.000 OA
ATOM     19  H   UNL     1      -2.879  12.512  20.572  0.00  0.00    +0.000 HD
ENDBRANCH  13  18
BRANCH  12  20
ATOM     20  O   UNL     1      -2.384  11.943  18.024  0.00  0.00    +0.000 OA
ATOM     21  H   UNL     1      -2.212  11.727  17.089  0.00  0.00    +0.000 HD
ENDBRANCH  12  20
ENDBRANCH   7  10
ENDBRANCH   5   6
ENDBRANCH   4   5
ENDBRANCH   3   4
ENDBRANCH   2   3
ENDBRANCH   1   2
BRANCH   1  22
ATOM     22  C   UNL     1       2.853   2.292  20.776  0.00  0.00    +0.000 C 
BRANCH  22  23
ATOM     23  C   UNL     1       2.304   1.780  19.442  0.00  0.00    +0.000 C 
BRANCH  23  24
ATOM     24  C   UNL     1       3.249   2.059  18.273  0.00  0.00    +0.000 C 
BRANCH  24  27
ATOM     25  O   UNL     1       4.226   4.044  16.535  0.00  0.00    +0.000 OA
ATOM     26  C   UNL     1       4.684   3.962  17.671  0.00  0.00    +0.000 C 
ATOM     27  N   UNL     1       4.255   3.044  18.602  0.00  0.00    +0.000 N 
ATOM     28  H   UNL     1       4.562   3.114  19.564  0.00  0.00    +0.000 HD
BRANCH  26  29
ATOM     29  C   UNL     1       5.739   4.910  18.103  0.00  0.00    +0.000 A 
ATOM     30  C   UNL     1       6.023   5.992  17.250  0.00  0.00    +0.000 A 
ATOM     31  C   UNL     1       7.038   6.877  17.583  0.00  0.00    +0.000 A 
ATOM     32  C   UNL     1       7.773   6.689  18.746  0.00  0.00    +0.000 A 
ATOM     33  C   UNL     1       7.496   5.617  19.588  0.00  0.00    +0.000 A 
ATOM     34  C   UNL     1       6.479   4.720  19.280  0.00  0.00    +0.000 A 
BRANCH  33  35
ATOM     35  O   UNL     1       8.238   5.426  20.716  0.00  0.00    +0.000 OA
ATOM     36  H   UNL     1       9.115   5.811  20.503  0.00  0.00    +0.000 HD
ENDBRANCH  33  35
BRANCH  32  37
ATOM     37  O   UNL     1       8.793   7.542  19.070  0.00  0.00    +0.000 OA
ATOM     38  H   UNL     1       8.789   8.206  18.350  0.00  0.00    +0.000 HD
ENDBRANCH  32  37
BRANCH  31  39
ATOM     39  O   UNL     1       7.358   7.943  16.789  0.00  0.00    +0.000 OA
ATOM     40  H   UNL     1       6.579   8.527  16.738  0.00  0.00    +0.000 HD
ENDBRANCH  31  39
ENDBRANCH  26  29
ENDBRANCH  24  27
ENDBRANCH  23  24
ENDBRANCH  22  23
ENDBRANCH   1  22
TORSDOF 17
ENDMDL
MODEL 9
REMARK VINA RESULT:      -7.2      1.676      9.384
REMARK  Name = 
REMARK  17 active torsions:
REMARK  status: ('A' for Active; 'I' for Inactive)
REMARK    1  A    between atoms: C_2  and  C_24
REMARK    2  A    between atoms: N_3  and  C_4
REMARK    3  A    between atoms: C_4  and  C_5
REMARK    4  A    between atoms: C_5  and  C_6
REMARK    5  A    between atoms: C_6  and  C_7
REMARK    6  A    between atoms: C_7  and  C_8
REMARK    7  A    between atoms: C_8  and  C_9
REMARK    8  A    between atoms: C_9  and  C_10
REMARK    9  A    between atoms: C_10  and  C_11
REMARK   10  A    between atoms: C_11  and  N_12
REMARK   11  A    between atoms: C_13  and  C_15
REMARK   12  A    between atoms: C_17  and  O_18
REMARK   13  A    between atoms: C_19  and  O_20
REMARK   14  A    between atoms: C_21  and  O_22
REMARK   15  A    between atoms: C_26  and  O_27
REMARK   16  A    between atoms: C_28  and  O_29
REMARK   17  A    between atoms: C_30  and  O_31
REMARK                            x       y       z     vdW  Elec       q    Type
REMARK                         _______ _______ _______ _____ _____    ______ ____
ROOT
ATOM      1  C   UNL     1       2.113   5.166  20.690  0.00  0.00    +0.000 C 
ENDROOT
BRANCH   1   2
ATOM      2  C   UNL     1       1.224   3.941  20.512  0.00  0.00    +0.000 C 
BRANCH   2   3
ATOM      3  C   UNL     1       2.060   2.685  20.263  0.00  0.00    +0.000 C 
BRANCH   3   4
ATOM      4  C   UNL     1       2.010   2.225  18.806  0.00  0.00    +0.000 C 
BRANCH   4   5
ATOM      5  C   UNL     1       3.358   1.707  18.310  0.00  0.00    +0.000 C 
BRANCH   5   6
ATOM      6  N   UNL     1       4.403   2.681  18.521  0.00  0.00    +0.000 N 
ATOM      7  C   UNL     1       4.532   3.795  17.723  0.00  0.00    +0.000 C 
ATOM      8  O   UNL     1       3.809   4.038  16.764  0.00  0.00    +0.000 OA
ATOM      9  H   UNL     1       5.063   2.503  19.264  0.00  0.00    +0.000 HD
BRANCH   7  10
ATOM     10  C   UNL     1       5.643   4.720  18.065  0.00  0.00    +0.000 A 
ATOM     11  C   UNL     1       5.904   5.797  17.197  0.00  0.00    +0.000 A 
ATOM     12  C   UNL     1       6.909   6.703  17.519  0.00  0.00    +0.000 A 
ATOM     13  C   UNL     1       7.644   6.543  18.689  0.00  0.00    +0.000 A 
ATOM     14  C   UNL     1       7.387   5.476  19.539  0.00  0.00    +0.000 A 
ATOM     15  C   UNL     1       6.390   4.561  19.242  0.00  0.00    +0.000 A 
BRANCH  14  16
ATOM     16  O   UNL     1       8.101   5.324  20.690  0.00  0.00    +0.000 OA
ATOM     17  H   UNL     1       7.532   5.711  21.388  0.00  0.00    +0.000 HD
ENDBRANCH  14  16
BRANCH  13  18
ATOM     18  O   UNL     1       8.618   7.442  19.030  0.00  0.00    +0.000 OA
ATOM     19  H   UNL     1       9.336   6.889  19.402  0.00  0.00    +0.000 HD
ENDBRANCH  13  18
BRANCH  12  20
ATOM     20  O   UNL     1       7.207   7.773  16.722  0.00  0.00    +0.000 OA
ATOM     21  H   UNL     1       6.685   7.698  15.903  0.00  0.00    +0.000 HD
ENDBRANCH  12  20
ENDBRANCH   7  10
ENDBRANCH   5   6
ENDBRANCH   4   5
ENDBRANCH   3   4
ENDBRANCH   2   3
ENDBRANCH   1   2
BRANCH   1  22
ATOM     22  C   UNL     1       1.922   6.166  19.548  0.00  0.00    +0.000 C 
BRANCH  22  23
ATOM     23  C   UNL     1       2.260   7.601  19.959  0.00  0.00    +0.000 C 
BRANCH  23  24
ATOM     24  C   UNL     1       1.451   8.069  21.170  0.00  0.00    +0.000 C 
BRANCH  24  27
ATOM     25  O   UNL     1       0.485   9.998  22.976  0.00  0.00    +0.000 OA
ATOM     26  C   UNL     1       0.115  10.032  21.806  0.00  0.00    +0.000 C 
ATOM     27  N   UNL     1       0.550   9.151  20.842  0.00  0.00    +0.000 N 
ATOM     28  H   UNL     1       0.328   9.313  19.868  0.00  0.00    +0.000 HD
BRANCH  26  29
ATOM     29  C   UNL     1      -0.830  11.089  21.370  0.00  0.00    +0.000 A 
ATOM     30  C   UNL     1      -1.486  11.821  22.375  0.00  0.00    +0.000 A 
ATOM     31  C   UNL     1      -2.421  12.785  22.019  0.00  0.00    +0.000 A 
ATOM     32  C   UNL     1      -2.709  13.014  20.681  0.00  0.00    +0.000 A 
ATOM     33  C   UNL     1      -2.063  12.286  19.687  0.00  0.00    +0.000 A 
ATOM     34  C   UNL     1      -1.119  11.322  20.017  0.00  0.00    +0.000 A 
BRANCH  33  35
ATOM     35  O   UNL     1      -2.370  12.502  18.375  0.00  0.00    +0.000 OA
ATOM     36  H   UNL     1      -1.500  12.558  17.924  0.00  0.00    +0.000 HD
ENDBRANCH  33  35
BRANCH  32  37
ATOM     37  O   UNL     1      -3.646  13.944  20.321  0.00  0.00    +0.000 OA
ATOM     38  H   UNL     1      -3.458  14.123  19.376  0.00  0.00    +0.000 HD
ENDBRANCH  32  37
BRANCH  31  39
ATOM     39  O   UNL     1      -3.090  13.523  22.955  0.00  0.00    +0.000 OA
ATOM     40  H   UNL     1      -3.756  14.064  22.494  0.00  0.00    +0.000 HD
ENDBRANCH  31  39
ENDBRANCH  26  29
ENDBRANCH  24  27
ENDBRANCH  23  24
ENDBRANCH  22  23
ENDBRANCH   1  22
TORSDOF 17
ENDMDL
