MODEL 1
REMARK VINA RESULT:      -6.7      0.000      0.000
REMARK  Name = 
REMARK  7 active torsions:
REMARK  status: ('A' for Active; 'I' for Inactive)
REMARK    1  A    between atoms: C_1  and  O_2
REMARK    2  A    between atoms: O_2  and  C_3
REMARK    3  A    between atoms: C_6  and  C_7
REMARK    4  A    between atoms: C_9  and  C_10
REMARK    5  A    between atoms: C_13  and  C_14
REMARK    6  A    between atoms: N_18  and  C_19
REMARK    7  A    between atoms: C_20  and  C_21
REMARK                            x       y       z     vdW  Elec       q    Type
REMARK                         _______ _______ _______ _____ _____    ______ ____
ROOT
ATOM      1  C   UNL     1       3.369   6.316  18.860  0.00  0.00    +0.000 A 
ATOM      2  C   UNL     1       2.926   7.650  19.234  0.00  0.00    +0.000 A 
ATOM      3  C   UNL     1       1.888   7.876  20.060  0.00  0.00    +0.000 A 
ATOM      4  C   UNL     1       1.129   6.686  20.571  0.00  0.00    +0.000 A 
ATOM      5  O   UNL     1       0.104   6.826  21.237  0.00  0.00    +0.000 OA
ATOM      6  N   UNL     1       1.624   5.419  20.229  0.00  0.00    +0.000 N 
ATOM      7  C   UNL     1       0.889   4.263  20.740  0.00  0.00    +0.000 C 
ATOM      8  C   UNL     1       2.715   5.244  19.371  0.00  0.00    +0.000 A 
ENDROOT
BRANCH   1  12
ATOM      9  C   UNL     1       6.646   5.576  16.190  0.00  0.00    +0.000 A 
ATOM     10  C   UNL     1       5.393   5.936  15.690  0.00  0.00    +0.000 A 
ATOM     11  C   UNL     1       4.338   6.228  16.557  0.00  0.00    +0.000 A 
ATOM     12  C   UNL     1       4.518   6.132  17.939  0.00  0.00    +0.000 A 
ATOM     13  C   UNL     1       5.784   5.796  18.442  0.00  0.00    +0.000 A 
ATOM     14  C   UNL     1       6.842   5.513  17.570  0.00  0.00    +0.000 A 
BRANCH   9  16
ATOM     15  C   UNL     1       7.075   4.793  13.995  0.00  0.00    +0.000 C 
ATOM     16  O   UNL     1       7.578   5.266  15.238  0.00  0.00    +0.000 OA
ENDBRANCH   9  16
ENDBRANCH   1  12
BRANCH   3  17
ATOM     17  C   UNL     1       1.462   9.186  20.456  0.00  0.00    +0.000 A 
ATOM     18  N   UNL     1       1.500   9.704  21.694  0.00  0.00    +0.000 NA
ATOM     19  O   UNL     1       0.976  10.981  21.542  0.00  0.00    +0.000 OA
ATOM     20  C   UNL     1       0.701  11.130  20.217  0.00  0.00    +0.000 A 
ATOM     21  C   UNL     1       0.125  12.421  19.803  0.00  0.00    +0.000 C 
ATOM     22  N   UNL     1       1.003  10.072  19.499  0.00  0.00    +0.000 NA
ENDBRANCH   3  17
BRANCH   8  23
ATOM     23  C   UNL     1       3.124   3.861  19.026  0.00  0.00    +0.000 A 
ATOM     24  C   UNL     1       3.996   3.150  19.854  0.00  0.00    +0.000 A 
ATOM     25  C   UNL     1       4.340   1.860  19.489  0.00  0.00    +0.000 A 
ATOM     26  N   UNL     1       3.881   1.244  18.380  0.00  0.00    +0.000 NA
ATOM     27  C   UNL     1       3.048   1.955  17.589  0.00  0.00    +0.000 A 
ATOM     28  C   UNL     1       2.643   3.250  17.866  0.00  0.00    +0.000 A 
ENDBRANCH   8  23
TORSDOF 4
ENDMDL
MODEL 2
REMARK VINA RESULT:      -6.4      0.624      1.374
REMARK  Name = 
REMARK  7 active torsions:
REMARK  status: ('A' for Active; 'I' for Inactive)
REMARK    1  A    between atoms: C_1  and  O_2
REMARK    2  A    between atoms: O_2  and  C_3
REMARK    3  A    between atoms: C_6  and  C_7
REMARK    4  A    between atoms: C_9  and  C_10
REMARK    5  A    between atoms: C_13  and  C_14
REMARK    6  A    between atoms: N_18  and  C_19
REMARK    7  A    between atoms: C_20  and  C_21
REMARK                            x       y       z     vdW  Elec       q    Type
REMARK                         _______ _______ _______ _____ _____    ______ ____
ROOT
ATOM      1  C   UNL     1       3.514   6.023  18.599  0.00  0.00    +0.000 A 
ATOM      2  C   UNL     1       3.031   7.381  18.790  0.00  0.00    +0.000 A 
ATOM      3  C   UNL     1       2.027   7.693  19.631  0.00  0.00    +0.000 A 
ATOM      4  C   UNL     1       1.351   6.569  20.361  0.00  0.00    +0.000 A 
ATOM      5  O   UNL     1       0.356   6.772  21.056  0.00  0.00    +0.000 OA
ATOM      6  N   UNL     1       1.885   5.284  20.188  0.00  0.00    +0.000 N 
ATOM      7  C   UNL     1       1.232   4.193  20.910  0.00  0.00    +0.000 C 
ATOM      8  C   UNL     1       2.938   5.019  19.304  0.00  0.00    +0.000 A 
ENDROOT
BRANCH   1  12
ATOM      9  C   UNL     1       6.693   5.407  15.782  0.00  0.00    +0.000 A 
ATOM     10  C   UNL     1       6.968   5.874  17.069  0.00  0.00    +0.000 A 
ATOM     11  C   UNL     1       5.943   6.027  18.005  0.00  0.00    +0.000 A 
ATOM     12  C   UNL     1       4.621   5.742  17.651  0.00  0.00    +0.000 A 
ATOM     13  C   UNL     1       4.349   5.248  16.367  0.00  0.00    +0.000 A 
ATOM     14  C   UNL     1       5.381   5.088  15.434  0.00  0.00    +0.000 A 
BRANCH   9  16
ATOM     15  C   UNL     1       7.509   5.005  13.594  0.00  0.00    +0.000 C 
ATOM     16  O   UNL     1       7.775   5.352  14.947  0.00  0.00    +0.000 OA
ENDBRANCH   9  16
ENDBRANCH   1  12
BRANCH   3  17
ATOM     17  C   UNL     1       1.562   9.032  19.847  0.00  0.00    +0.000 A 
ATOM     18  N   UNL     1       1.404   9.647  21.030  0.00  0.00    +0.000 NA
ATOM     19  O   UNL     1       0.933  10.909  20.693  0.00  0.00    +0.000 OA
ATOM     20  C   UNL     1       0.882  10.952  19.334  0.00  0.00    +0.000 A 
ATOM     21  C   UNL     1       0.403  12.208  18.730  0.00  0.00    +0.000 C 
ATOM     22  N   UNL     1       1.282   9.839  18.760  0.00  0.00    +0.000 NA
ENDBRANCH   3  17
BRANCH   8  23
ATOM     23  C   UNL     1       3.391   3.616  19.151  0.00  0.00    +0.000 A 
ATOM     24  C   UNL     1       2.849   2.799  18.156  0.00  0.00    +0.000 A 
ATOM     25  C   UNL     1       3.313   1.498  18.051  0.00  0.00    +0.000 A 
ATOM     26  N   UNL     1       4.261   0.971  18.854  0.00  0.00    +0.000 NA
ATOM     27  C   UNL     1       4.762   1.776  19.815  0.00  0.00    +0.000 A 
ATOM     28  C   UNL     1       4.367   3.090  20.002  0.00  0.00    +0.000 A 
ENDBRANCH   8  23
TORSDOF 4
ENDMDL
MODEL 3
REMARK VINA RESULT:      -6.3      0.882      1.342
REMARK  Name = 
REMARK  7 active torsions:
REMARK  status: ('A' for Active; 'I' for Inactive)
REMARK    1  A    between atoms: C_1  and  O_2
REMARK    2  A    between atoms: O_2  and  C_3
REMARK    3  A    between atoms: C_6  and  C_7
REMARK    4  A    between atoms: C_9  and  C_10
REMARK    5  A    between atoms: C_13  and  C_14
REMARK    6  A    between atoms: N_18  and  C_19
REMARK    7  A    between atoms: C_20  and  C_21
REMARK                            x       y       z     vdW  Elec       q    Type
REMARK                         _______ _______ _______ _____ _____    ______ ____
ROOT
ATOM      1  C   UNL     1       3.553   6.086  18.445  0.00  0.00    +0.000 A 
ATOM      2  C   UNL     1       3.051   7.447  18.544  0.00  0.00    +0.000 A 
ATOM      3  C   UNL     1       2.046   7.802  19.366  0.00  0.00    +0.000 A 
ATOM      4  C   UNL     1       1.389   6.722  20.175  0.00  0.00    +0.000 A 
ATOM      5  O   UNL     1       0.394   6.958  20.859  0.00  0.00    +0.000 OA
ATOM      6  N   UNL     1       1.942   5.436  20.089  0.00  0.00    +0.000 N 
ATOM      7  C   UNL     1       1.307   4.389  20.889  0.00  0.00    +0.000 C 
ATOM      8  C   UNL     1       2.995   5.125  19.222  0.00  0.00    +0.000 A 
ENDROOT
BRANCH   1  12
ATOM      9  C   UNL     1       6.725   5.319  15.658  0.00  0.00    +0.000 A 
ATOM     10  C   UNL     1       6.995   5.922  16.889  0.00  0.00    +0.000 A 
ATOM     11  C   UNL     1       5.974   6.127  17.819  0.00  0.00    +0.000 A 
ATOM     12  C   UNL     1       4.662   5.756  17.514  0.00  0.00    +0.000 A 
ATOM     13  C   UNL     1       4.396   5.126  16.290  0.00  0.00    +0.000 A 
ATOM     14  C   UNL     1       5.424   4.914  15.363  0.00  0.00    +0.000 A 
BRANCH   9  16
ATOM     15  C   UNL     1       7.509   4.953  13.452  0.00  0.00    +0.000 C 
ATOM     16  O   UNL     1       7.800   5.223  14.817  0.00  0.00    +0.000 OA
ENDBRANCH   9  16
ENDBRANCH   1  12
BRANCH   3  17
ATOM     17  C   UNL     1       1.562   9.146  19.491  0.00  0.00    +0.000 A 
ATOM     18  N   UNL     1       1.446  10.054  18.509  0.00  0.00    +0.000 NA
ATOM     19  O   UNL     1       0.941  11.179  19.148  0.00  0.00    +0.000 OA
ATOM     20  C   UNL     1       0.765  10.836  20.453  0.00  0.00    +0.000 A 
ATOM     21  C   UNL     1       0.233  11.880  21.345  0.00  0.00    +0.000 C 
ATOM     22  N   UNL     1       1.104   9.593  20.717  0.00  0.00    +0.000 NA
ENDBRANCH   3  17
BRANCH   8  23
ATOM     23  C   UNL     1       3.468   3.722  19.164  0.00  0.00    +0.000 A 
ATOM     24  C   UNL     1       4.441   3.263  20.056  0.00  0.00    +0.000 A 
ATOM     25  C   UNL     1       4.843   1.941  19.963  0.00  0.00    +0.000 A 
ATOM     26  N   UNL     1       4.349   1.066  19.063  0.00  0.00    +0.000 NA
ATOM     27  C   UNL     1       3.419   1.536  18.204  0.00  0.00    +0.000 A 
ATOM     28  C   UNL     1       2.949   2.838  18.214  0.00  0.00    +0.000 A 
ENDBRANCH   8  23
TORSDOF 4
ENDMDL
MODEL 4
REMARK VINA RESULT:      -6.3      5.242      9.125
REMARK  Name = 
REMARK  7 active torsions:
REMARK  status: ('A' for Active; 'I' for Inactive)
REMARK    1  A    between atoms: C_1  and  O_2
REMARK    2  A    between atoms: O_2  and  C_3
REMARK    3  A    between atoms: C_6  and  C_7
REMARK    4  A    between atoms: C_9  and  C_10
REMARK    5  A    between atoms: C_13  and  C_14
REMARK    6  A    between atoms: N_18  and  C_19
REMARK    7  A    between atoms: C_20  and  C_21
REMARK                            x       y       z     vdW  Elec       q    Type
REMARK                         _______ _______ _______ _____ _____    ______ ____
ROOT
ATOM      1  C   UNL     1      -1.076  12.415  21.125  0.00  0.00    +0.000 A 
ATOM      2  C   UNL     1      -2.294  12.139  21.870  0.00  0.00    +0.000 A 
ATOM      3  C   UNL     1      -2.860  13.026  22.708  0.00  0.00    +0.000 A 
ATOM      4  C   UNL     1      -2.163  14.341  22.912  0.00  0.00    +0.000 A 
ATOM      5  O   UNL     1      -2.566  15.149  23.747  0.00  0.00    +0.000 OA
ATOM      6  N   UNL     1      -1.023  14.585  22.132  0.00  0.00    +0.000 N 
ATOM      7  C   UNL     1      -0.355  15.871  22.323  0.00  0.00    +0.000 C 
ATOM      8  C   UNL     1      -0.482  13.626  21.268  0.00  0.00    +0.000 A 
ENDROOT
BRANCH   1  12
ATOM      9  C   UNL     1       0.739   9.603  18.439  0.00  0.00    +0.000 A 
ATOM     10  C   UNL     1       1.181   9.707  19.759  0.00  0.00    +0.000 A 
ATOM     11  C   UNL     1       0.560  10.585  20.650  0.00  0.00    +0.000 A 
ATOM     12  C   UNL     1      -0.496  11.392  20.219  0.00  0.00    +0.000 A 
ATOM     13  C   UNL     1      -0.957  11.268  18.901  0.00  0.00    +0.000 A 
ATOM     14  C   UNL     1      -0.337  10.381  18.012  0.00  0.00    +0.000 A 
BRANCH   9  16
ATOM     15  C   UNL     1       2.426   7.941  18.324  0.00  0.00    +0.000 C 
ATOM     16  O   UNL     1       1.465   8.748  17.655  0.00  0.00    +0.000 OA
ENDBRANCH   9  16
ENDBRANCH   1  12
BRANCH   3  17
ATOM     17  C   UNL     1      -4.075  12.774  23.426  0.00  0.00    +0.000 A 
ATOM     18  N   UNL     1      -4.227  11.977  24.494  0.00  0.00    +0.000 NA
ATOM     19  O   UNL     1      -5.579  12.075  24.800  0.00  0.00    +0.000 OA
ATOM     20  C   UNL     1      -6.113  12.952  23.906  0.00  0.00    +0.000 A 
ATOM     21  C   UNL     1      -7.556  13.222  24.028  0.00  0.00    +0.000 C 
ATOM     22  N   UNL     1      -5.233  13.433  23.057  0.00  0.00    +0.000 NA
ENDBRANCH   3  17
BRANCH   8  23
ATOM     23  C   UNL     1       0.760  13.963  20.532  0.00  0.00    +0.000 A 
ATOM     24  C   UNL     1       2.011  13.738  21.109  0.00  0.00    +0.000 A 
ATOM     25  C   UNL     1       3.139  14.065  20.376  0.00  0.00    +0.000 A 
ATOM     26  N   UNL     1       3.103  14.586  19.132  0.00  0.00    +0.000 NA
ATOM     27  C   UNL     1       1.881  14.805  18.599  0.00  0.00    +0.000 A 
ATOM     28  C   UNL     1       0.694  14.512  19.249  0.00  0.00    +0.000 A 
ENDBRANCH   8  23
TORSDOF 4
ENDMDL
MODEL 5
REMARK VINA RESULT:      -6.2      5.157     11.483
REMARK  Name = 
REMARK  7 active torsions:
REMARK  status: ('A' for Active; 'I' for Inactive)
REMARK    1  A    between atoms: C_1  and  O_2
REMARK    2  A    between atoms: O_2  and  C_3
REMARK    3  A    between atoms: C_6  and  C_7
REMARK    4  A    between atoms: C_9  and  C_10
REMARK    5  A    between atoms: C_13  and  C_14
REMARK    6  A    between atoms: N_18  and  C_19
REMARK    7  A    between atoms: C_20  and  C_21
REMARK                            x       y       z     vdW  Elec       q    Type
REMARK                         _______ _______ _______ _____ _____    ______ ____
ROOT
ATOM      1  C   UNL     1      -2.904  12.565  20.445  0.00  0.00    +0.000 A 
ATOM      2  C   UNL     1      -1.567  12.106  20.108  0.00  0.00    +0.000 A 
ATOM      3  C   UNL     1      -1.280  11.447  18.970  0.00  0.00    +0.000 A 
ATOM      4  C   UNL     1      -2.415  11.134  18.038  0.00  0.00    +0.000 A 
ATOM      5  O   UNL     1      -2.241  10.438  17.038  0.00  0.00    +0.000 OA
ATOM      6  N   UNL     1      -3.677  11.644  18.377  0.00  0.00    +0.000 N 
ATOM      7  C   UNL     1      -4.777  11.349  17.459  0.00  0.00    +0.000 C 
ATOM      8  C   UNL     1      -3.915  12.331  19.572  0.00  0.00    +0.000 A 
ENDROOT
BRANCH   1  12
ATOM      9  C   UNL     1      -3.431  14.621  24.175  0.00  0.00    +0.000 A 
ATOM     10  C   UNL     1      -3.190  15.336  23.001  0.00  0.00    +0.000 A 
ATOM     11  C   UNL     1      -3.069  14.675  21.777  0.00  0.00    +0.000 A 
ATOM     12  C   UNL     1      -3.158  13.282  21.720  0.00  0.00    +0.000 A 
ATOM     13  C   UNL     1      -3.426  12.566  22.895  0.00  0.00    +0.000 A 
ATOM     14  C   UNL     1      -3.556  13.233  24.120  0.00  0.00    +0.000 A 
BRANCH   9  16
ATOM     15  C   UNL     1      -3.366  16.787  25.136  0.00  0.00    +0.000 C 
ATOM     16  O   UNL     1      -3.476  15.381  25.313  0.00  0.00    +0.000 OA
ENDBRANCH   9  16
ENDBRANCH   1  12
BRANCH   3  17
ATOM     17  C   UNL     1       0.040  11.014  18.616  0.00  0.00    +0.000 A 
ATOM     18  N   UNL     1       1.126  11.788  18.463  0.00  0.00    +0.000 NA
ATOM     19  O   UNL     1       2.132  10.894  18.118  0.00  0.00    +0.000 OA
ATOM     20  C   UNL     1       1.567   9.656  18.130  0.00  0.00    +0.000 A 
ATOM     21  C   UNL     1       2.448   8.525  17.789  0.00  0.00    +0.000 C 
ATOM     22  N   UNL     1       0.294   9.665  18.454  0.00  0.00    +0.000 NA
ENDBRANCH   3  17
BRANCH   8  23
ATOM     23  C   UNL     1      -5.299  12.779  19.863  0.00  0.00    +0.000 A 
ATOM     24  C   UNL     1      -5.741  14.035  19.444  0.00  0.00    +0.000 A 
ATOM     25  C   UNL     1      -7.045  14.401  19.735  0.00  0.00    +0.000 A 
ATOM     26  N   UNL     1      -7.916  13.614  20.399  0.00  0.00    +0.000 NA
ATOM     27  C   UNL     1      -7.462  12.409  20.804  0.00  0.00    +0.000 A 
ATOM     28  C   UNL     1      -6.178  11.949  20.562  0.00  0.00    +0.000 A 
ENDBRANCH   8  23
TORSDOF 4
ENDMDL
MODEL 6
REMARK VINA RESULT:      -6.2      5.110     11.967
REMARK  Name = 
REMARK  7 active torsions:
REMARK  status: ('A' for Active; 'I' for Inactive)
REMARK    1  A    between atoms: C_1  and  O_2
REMARK    2  A    between atoms: O_2  and  C_3
REMARK    3  A    between atoms: C_6  and  C_7
REMARK    4  A    between atoms: C_9  and  C_10
REMARK    5  A    between atoms: C_13  and  C_14
REMARK    6  A    between atoms: N_18  and  C_19
REMARK    7  A    between atoms: C_20  and  C_21
REMARK                            x       y       z     vdW  Elec       q    Type
REMARK                         _______ _______ _______ _____ _____    ______ ____
ROOT
ATOM      1  C   UNL     1      -1.887  12.744  22.415  0.00  0.00    +0.000 A 
ATOM      2  C   UNL     1      -1.285  11.594  21.759  0.00  0.00    +0.000 A 
ATOM      3  C   UNL     1      -0.026  11.593  21.286  0.00  0.00    +0.000 A 
ATOM      4  C   UNL     1       0.767  12.863  21.403  0.00  0.00    +0.000 A 
ATOM      5  O   UNL     1       1.881  12.963  20.891  0.00  0.00    +0.000 OA
ATOM      6  N   UNL     1       0.167  13.927  22.090  0.00  0.00    +0.000 N 
ATOM      7  C   UNL     1       0.947  15.158  22.214  0.00  0.00    +0.000 C 
ATOM      8  C   UNL     1      -1.146  13.870  22.570  0.00  0.00    +0.000 A 
ENDROOT
BRANCH   1  12
ATOM      9  C   UNL     1      -5.909  12.778  23.912  0.00  0.00    +0.000 A 
ATOM     10  C   UNL     1      -5.647  13.101  22.579  0.00  0.00    +0.000 A 
ATOM     11  C   UNL     1      -4.346  13.042  22.075  0.00  0.00    +0.000 A 
ATOM     12  C   UNL     1      -3.285  12.686  22.911  0.00  0.00    +0.000 A 
ATOM     13  C   UNL     1      -3.551  12.335  24.242  0.00  0.00    +0.000 A 
ATOM     14  C   UNL     1      -4.859  12.387  24.742  0.00  0.00    +0.000 A 
BRANCH   9  16
ATOM     15  C   UNL     1      -7.915  14.027  23.729  0.00  0.00    +0.000 C 
ATOM     16  O   UNL     1      -7.214  12.926  24.294  0.00  0.00    +0.000 OA
ENDBRANCH   9  16
ENDBRANCH   1  12
BRANCH   3  17
ATOM     17  C   UNL     1       0.585  10.456  20.663  0.00  0.00    +0.000 A 
ATOM     18  N   UNL     1       0.990   9.328  21.268  0.00  0.00    +0.000 NA
ATOM     19  O   UNL     1       1.510   8.558  20.235  0.00  0.00    +0.000 OA
ATOM     20  C   UNL     1       1.339   9.279  19.094  0.00  0.00    +0.000 A 
ATOM     21  C   UNL     1       1.821   8.664  17.845  0.00  0.00    +0.000 C 
ATOM     22  N   UNL     1       0.753  10.439  19.290  0.00  0.00    +0.000 NA
ENDBRANCH   3  17
BRANCH   8  23
ATOM     23  C   UNL     1      -1.707  15.072  23.232  0.00  0.00    +0.000 A 
ATOM     24  C   UNL     1      -2.389  16.039  22.490  0.00  0.00    +0.000 A 
ATOM     25  C   UNL     1      -2.898  17.139  23.160  0.00  0.00    +0.000 A 
ATOM     26  N   UNL     1      -2.778  17.332  24.490  0.00  0.00    +0.000 NA
ATOM     27  C   UNL     1      -2.106  16.389  25.184  0.00  0.00    +0.000 A 
ATOM     28  C   UNL     1      -1.560  15.253  24.610  0.00  0.00    +0.000 A 
ENDBRANCH   8  23
TORSDOF 4
ENDMDL
MODEL 7
REMARK VINA RESULT:      -6.1      8.817     12.156
REMARK  Name = 
REMARK  7 active torsions:
REMARK  status: ('A' for Active; 'I' for Inactive)
REMARK    1  A    between atoms: C_1  and  O_2
REMARK    2  A    between atoms: O_2  and  C_3
REMARK    3  A    between atoms: C_6  and  C_7
REMARK    4  A    between atoms: C_9  and  C_10
REMARK    5  A    between atoms: C_13  and  C_14
REMARK    6  A    between atoms: N_18  and  C_19
REMARK    7  A    between atoms: C_20  and  C_21
REMARK                            x       y       z     vdW  Elec       q    Type
REMARK                         _______ _______ _______ _____ _____    ______ ____
ROOT
ATOM      1  C   UNL     1      -3.833  12.948  20.501  0.00  0.00    +0.000 A 
ATOM      2  C   UNL     1      -3.319  12.148  19.401  0.00  0.00    +0.000 A 
ATOM      3  C   UNL     1      -4.111  11.581  18.471  0.00  0.00    +0.000 A 
ATOM      4  C   UNL     1      -5.595  11.750  18.619  0.00  0.00    +0.000 A 
ATOM      5  O   UNL     1      -6.377  11.166  17.870  0.00  0.00    +0.000 OA
ATOM      6  N   UNL     1      -6.042  12.574  19.662  0.00  0.00    +0.000 N 
ATOM      7  C   UNL     1      -7.488  12.747  19.794  0.00  0.00    +0.000 C 
ATOM      8  C   UNL     1      -5.171  13.146  20.596  0.00  0.00    +0.000 A 
ENDROOT
BRANCH   1  12
ATOM      9  C   UNL     1      -1.329  14.747  23.486  0.00  0.00    +0.000 A 
ATOM     10  C   UNL     1      -1.791  13.439  23.644  0.00  0.00    +0.000 A 
ATOM     11  C   UNL     1      -2.564  12.832  22.652  0.00  0.00    +0.000 A 
ATOM     12  C   UNL     1      -2.909  13.542  21.499  0.00  0.00    +0.000 A 
ATOM     13  C   UNL     1      -2.423  14.847  21.328  0.00  0.00    +0.000 A 
ATOM     14  C   UNL     1      -1.641  15.449  22.322  0.00  0.00    +0.000 A 
BRANCH   9  16
ATOM     15  C   UNL     1      -1.380  15.518  25.727  0.00  0.00    +0.000 C 
ATOM     16  O   UNL     1      -0.629  15.243  24.552  0.00  0.00    +0.000 OA
ENDBRANCH   9  16
ENDBRANCH   1  12
BRANCH   3  17
ATOM     17  C   UNL     1      -3.612  10.814  17.368  0.00  0.00    +0.000 A 
ATOM     18  N   UNL     1      -2.864   9.702  17.434  0.00  0.00    +0.000 NA
ATOM     19  O   UNL     1      -2.648   9.360  16.105  0.00  0.00    +0.000 OA
ATOM     20  C   UNL     1      -3.316  10.280  15.357  0.00  0.00    +0.000 A 
ATOM     21  C   UNL     1      -3.234  10.128  13.894  0.00  0.00    +0.000 C 
ATOM     22  N   UNL     1      -3.948  11.180  16.077  0.00  0.00    +0.000 NA
ENDBRANCH   3  17
BRANCH   8  23
ATOM     23  C   UNL     1      -5.750  13.954  21.696  0.00  0.00    +0.000 A 
ATOM     24  C   UNL     1      -5.912  15.334  21.553  0.00  0.00    +0.000 A 
ATOM     25  C   UNL     1      -6.465  16.041  22.608  0.00  0.00    +0.000 A 
ATOM     26  N   UNL     1      -6.859  15.476  23.768  0.00  0.00    +0.000 NA
ATOM     27  C   UNL     1      -6.682  14.142  23.886  0.00  0.00    +0.000 A 
ATOM     28  C   UNL     1      -6.141  13.346  22.891  0.00  0.00    +0.000 A 
ENDBRANCH   8  23
TORSDOF 4
ENDMDL
MODEL 8
REMARK VINA RESULT:      -6.1      8.795     12.097
REMARK  Name = 
REMARK  7 active torsions:
REMARK  status: ('A' for Active; 'I' for Inactive)
REMARK    1  A    between atoms: C_1  and  O_2
REMARK    2  A    between atoms: O_2  and  C_3
REMARK    3  A    between atoms: C_6  and  C_7
REMARK    4  A    between atoms: C_9  and  C_10
REMARK    5  A    between atoms: C_13  and  C_14
REMARK    6  A    between atoms: N_18  and  C_19
REMARK    7  A    between atoms: C_20  and  C_21
REMARK                            x       y       z     vdW  Elec       q    Type
REMARK                         _______ _______ _______ _____ _____    ______ ____
ROOT
ATOM      1  C   UNL     1      -4.091  12.851  20.695  0.00  0.00    +0.000 A 
ATOM      2  C   UNL     1      -3.473  12.152  19.580  0.00  0.00    +0.000 A 
ATOM      3  C   UNL     1      -4.181  11.535  18.616  0.00  0.00    +0.000 A 
ATOM      4  C   UNL     1      -5.677  11.532  18.738  0.00  0.00    +0.000 A 
ATOM      5  O   UNL     1      -6.376  10.891  17.955  0.00  0.00    +0.000 OA
ATOM      6  N   UNL     1      -6.231  12.264  19.799  0.00  0.00    +0.000 N 
ATOM      7  C   UNL     1      -7.689  12.270  19.908  0.00  0.00    +0.000 C 
ATOM      8  C   UNL     1      -5.444  12.895  20.770  0.00  0.00    +0.000 A 
ENDROOT
BRANCH   1  12
ATOM      9  C   UNL     1      -1.503  14.691  23.582  0.00  0.00    +0.000 A 
ATOM     10  C   UNL     1      -1.999  15.428  22.504  0.00  0.00    +0.000 A 
ATOM     11  C   UNL     1      -2.882  14.848  21.591  0.00  0.00    +0.000 A 
ATOM     12  C   UNL     1      -3.256  13.509  21.731  0.00  0.00    +0.000 A 
ATOM     13  C   UNL     1      -2.779  12.776  22.828  0.00  0.00    +0.000 A 
ATOM     14  C   UNL     1      -1.900  13.364  23.746  0.00  0.00    +0.000 A 
BRANCH   9  16
ATOM     15  C   UNL     1       0.078  16.447  23.766  0.00  0.00    +0.000 C 
ATOM     16  O   UNL     1      -0.607  15.359  24.372  0.00  0.00    +0.000 OA
ENDBRANCH   9  16
ENDBRANCH   1  12
BRANCH   3  17
ATOM     17  C   UNL     1      -3.581  10.867  17.498  0.00  0.00    +0.000 A 
ATOM     18  N   UNL     1      -2.573   9.983  17.535  0.00  0.00    +0.000 NA
ATOM     19  O   UNL     1      -2.370   9.645  16.203  0.00  0.00    +0.000 OA
ATOM     20  C   UNL     1      -3.300  10.332  15.485  0.00  0.00    +0.000 A 
ATOM     21  C   UNL     1      -3.283  10.138  14.025  0.00  0.00    +0.000 C 
ATOM     22  N   UNL     1      -4.088  11.077  16.228  0.00  0.00    +0.000 NA
ENDBRANCH   3  17
BRANCH   8  23
ATOM     23  C   UNL     1      -6.129  13.595  21.883  0.00  0.00    +0.000 A 
ATOM     24  C   UNL     1      -6.432  14.955  21.788  0.00  0.00    +0.000 A 
ATOM     25  C   UNL     1      -7.077  15.559  22.854  0.00  0.00    +0.000 A 
ATOM     26  N   UNL     1      -7.435  14.910  23.982  0.00  0.00    +0.000 NA
ATOM     27  C   UNL     1      -7.122  13.598  24.055  0.00  0.00    +0.000 A 
ATOM     28  C   UNL     1      -6.479  12.903  23.045  0.00  0.00    +0.000 A 
ENDBRANCH   8  23
TORSDOF 4
ENDMDL
MODEL 9
REMARK VINA RESULT:      -6.1      4.931      8.846
REMARK  Name = 
REMARK  7 active torsions:
REMARK  status: ('A' for Active; 'I' for Inactive)
REMARK    1  A    between atoms: C_1  and  O_2
REMARK    2  A    between atoms: O_2  and  C_3
REMARK    3  A    between atoms: C_6  and  C_7
REMARK    4  A    between atoms: C_9  and  C_10
REMARK    5  A    between atoms: C_13  and  C_14
REMARK    6  A    between atoms: N_18  and  C_19
REMARK    7  A    between atoms: C_20  and  C_21
REMARK                            x       y       z     vdW  Elec       q    Type
REMARK                         _______ _______ _______ _____ _____    ______ ____
ROOT
ATOM      1  C   UNL     1      -0.859  12.021  21.512  0.00  0.00    +0.000 A 
ATOM      2  C   UNL     1      -2.113  11.800  22.214  0.00  0.00    +0.000 A 
ATOM      3  C   UNL     1      -2.923  12.800  22.606  0.00  0.00    +0.000 A 
ATOM      4  C   UNL     1      -2.473  14.209  22.343  0.00  0.00    +0.000 A 
ATOM      5  O   UNL     1      -3.110  15.168  22.775  0.00  0.00    +0.000 OA
ATOM      6  N   UNL     1      -1.286  14.372  21.615  0.00  0.00    +0.000 N 
ATOM      7  C   UNL     1      -0.857  15.745  21.350  0.00  0.00    +0.000 C 
ATOM      8  C   UNL     1      -0.486  13.292  21.226  0.00  0.00    +0.000 A 
ENDROOT
BRANCH   1  12
ATOM      9  C   UNL     1       1.438   8.581  20.368  0.00  0.00    +0.000 A 
ATOM     10  C   UNL     1       0.838   9.386  19.398  0.00  0.00    +0.000 A 
ATOM     11  C   UNL     1       0.133  10.535  19.762  0.00  0.00    +0.000 A 
ATOM     12  C   UNL     1      -0.006  10.874  21.111  0.00  0.00    +0.000 A 
ATOM     13  C   UNL     1       0.618  10.080  22.084  0.00  0.00    +0.000 A 
ATOM     14  C   UNL     1       1.333   8.934  21.713  0.00  0.00    +0.000 A 
BRANCH   9  16
ATOM     15  C   UNL     1       2.484   7.510  18.530  0.00  0.00    +0.000 C 
ATOM     16  O   UNL     1       2.053   7.458  19.884  0.00  0.00    +0.000 OA
ENDBRANCH   9  16
ENDBRANCH   1  12
BRANCH   3  17
ATOM     17  C   UNL     1      -4.174  12.592  23.274  0.00  0.00    +0.000 A 
ATOM     18  N   UNL     1      -4.352  12.220  24.552  0.00  0.00    +0.000 NA
ATOM     19  O   UNL     1      -5.731  12.156  24.696  0.00  0.00    +0.000 OA
ATOM     20  C   UNL     1      -6.262  12.528  23.500  0.00  0.00    +0.000 A 
ATOM     21  C   UNL     1      -7.732  12.536  23.403  0.00  0.00    +0.000 C 
ATOM     22  N   UNL     1      -5.356  12.833  22.598  0.00  0.00    +0.000 NA
ENDBRANCH   3  17
BRANCH   8  23
ATOM     23  C   UNL     1       0.781  13.577  20.509  0.00  0.00    +0.000 A 
ATOM     24  C   UNL     1       1.984  13.686  21.211  0.00  0.00    +0.000 A 
ATOM     25  C   UNL     1       3.139  13.946  20.493  0.00  0.00    +0.000 A 
ATOM     26  N   UNL     1       3.173  14.099  19.152  0.00  0.00    +0.000 NA
ATOM     27  C   UNL     1       1.996  14.000  18.498  0.00  0.00    +0.000 A 
ATOM     28  C   UNL     1       0.788  13.741  19.122  0.00  0.00    +0.000 A 
ENDBRANCH   8  23
TORSDOF 4
ENDMDL
