MODEL 1
REMARK VINA RESULT:      -7.7      0.000      0.000
REMARK  Name = 
REMARK  3 active torsions:
REMARK  status: ('A' for Active; 'I' for Inactive)
REMARK    1  A    between atoms: C_1  and  C_2
REMARK    2  A    between atoms: C_2  and  C_3
REMARK    3  A    between atoms: C_13  and  C_14
REMARK                            x       y       z     vdW  Elec       q    Type
REMARK                         _______ _______ _______ _____ _____    ______ ____
ROOT
ATOM      1  C   UNL     1       4.683   5.336  16.126  0.00  0.00    +0.000 C 
ATOM      2  C   UNL     1       5.668   4.645  15.178  0.00  0.00    +0.000 C 
ATOM      3  C   UNL     1       7.156   4.877  15.419  0.00  0.00    +0.000 C 
ATOM      4  O   UNL     1       7.895   5.189  14.482  0.00  0.00    +0.000 OA
ATOM      5  N   UNL     1       7.735   4.602  16.625  0.00  0.00    +0.000 N 
ATOM      6  C   UNL     1       7.256   5.016  17.939  0.00  0.00    +0.000 C 
ATOM      7  C   UNL     1       5.901   4.486  18.239  0.00  0.00    +0.000 A 
ATOM      8  N   UNL     1       5.623   3.751  19.373  0.00  0.00    +0.000 NA
ATOM      9  C   UNL     1       4.362   3.447  19.226  0.00  0.00    +0.000 A 
ATOM     10  S   UNL     1       3.221   2.493  20.119  0.00  0.00    +0.000 S 
ATOM     11  C   UNL     1       2.017   2.790  18.839  0.00  0.00    +0.000 A 
ATOM     12  C   UNL     1       0.657   2.189  18.904  0.00  0.00    +0.000 C 
ATOM     13  C   UNL     1       2.495   3.573  17.855  0.00  0.00    +0.000 A 
ATOM     14  N   UNL     1       3.804   3.939  18.081  0.00  0.00    +0.000 N 
ATOM     15  C   UNL     1       4.776   4.654  17.447  0.00  0.00    +0.000 A 
ATOM     16  H   UNL     1       8.736   4.712  16.532  0.00  0.00    +0.000 HD
ENDROOT
BRANCH   1  18
ATOM     17  C   UNL     1       4.086   7.557  17.264  0.00  0.00    +0.000 C 
ATOM     18  C   UNL     1       4.940   6.854  16.215  0.00  0.00    +0.000 C 
ENDBRANCH   1  18
TORSDOF 1
ENDMDL
MODEL 2
REMARK VINA RESULT:      -6.7      3.583      5.801
REMARK  Name = 
REMARK  3 active torsions:
REMARK  status: ('A' for Active; 'I' for Inactive)
REMARK    1  A    between atoms: C_1  and  C_2
REMARK    2  A    between atoms: C_2  and  C_3
REMARK    3  A    between atoms: C_13  and  C_14
REMARK                            x       y       z     vdW  Elec       q    Type
REMARK                         _______ _______ _______ _____ _____    ______ ____
ROOT
ATOM      1  C   UNL     1       2.720   5.025  20.442  0.00  0.00    +0.000 C 
ATOM      2  C   UNL     1       2.773   3.804  21.367  0.00  0.00    +0.000 C 
ATOM      3  C   UNL     1       1.633   2.797  21.267  0.00  0.00    +0.000 C 
ATOM      4  O   UNL     1       1.068   2.397  22.287  0.00  0.00    +0.000 OA
ATOM      5  N   UNL     1       1.311   2.198  20.082  0.00  0.00    +0.000 N 
ATOM      6  C   UNL     1       1.102   2.859  18.798  0.00  0.00    +0.000 C 
ATOM      7  C   UNL     1       2.311   3.589  18.335  0.00  0.00    +0.000 A 
ATOM      8  N   UNL     1       2.887   3.368  17.102  0.00  0.00    +0.000 NA
ATOM      9  C   UNL     1       3.927   4.157  17.116  0.00  0.00    +0.000 A 
ATOM     10  S   UNL     1       5.243   4.465  16.029  0.00  0.00    +0.000 S 
ATOM     11  C   UNL     1       5.949   5.562  17.244  0.00  0.00    +0.000 A 
ATOM     12  C   UNL     1       7.250   6.246  17.004  0.00  0.00    +0.000 C 
ATOM     13  C   UNL     1       5.190   5.660  18.351  0.00  0.00    +0.000 A 
ATOM     14  N   UNL     1       4.061   4.875  18.269  0.00  0.00    +0.000 N 
ATOM     15  C   UNL     1       2.996   4.553  19.057  0.00  0.00    +0.000 A 
ATOM     16  H   UNL     1       0.616   1.486  20.261  0.00  0.00    +0.000 HD
ENDROOT
BRANCH   1  18
ATOM     17  C   UNL     1       1.541   7.285  20.729  0.00  0.00    +0.000 C 
ATOM     18  C   UNL     1       1.380   5.779  20.564  0.00  0.00    +0.000 C 
ENDBRANCH   1  18
TORSDOF 1
ENDMDL
MODEL 3
REMARK VINA RESULT:      -6.5      1.963      2.833
REMARK  Name = 
REMARK  3 active torsions:
REMARK  status: ('A' for Active; 'I' for Inactive)
REMARK    1  A    between atoms: C_1  and  C_2
REMARK    2  A    between atoms: C_2  and  C_3
REMARK    3  A    between atoms: C_13  and  C_14
REMARK                            x       y       z     vdW  Elec       q    Type
REMARK                         _______ _______ _______ _____ _____    ______ ____
ROOT
ATOM      1  C   UNL     1       5.251   4.248  17.230  0.00  0.00    +0.000 C 
ATOM      2  C   UNL     1       6.597   4.926  17.506  0.00  0.00    +0.000 C 
ATOM      3  C   UNL     1       6.842   6.287  16.864  0.00  0.00    +0.000 C 
ATOM      4  O   UNL     1       7.895   6.508  16.261  0.00  0.00    +0.000 OA
ATOM      5  N   UNL     1       5.989   7.335  17.062  0.00  0.00    +0.000 N 
ATOM      6  C   UNL     1       4.536   7.315  16.932  0.00  0.00    +0.000 C 
ATOM      7  C   UNL     1       3.898   6.353  17.867  0.00  0.00    +0.000 A 
ATOM      8  N   UNL     1       2.906   6.720  18.753  0.00  0.00    +0.000 NA
ATOM      9  C   UNL     1       2.666   5.614  19.403  0.00  0.00    +0.000 A 
ATOM     10  S   UNL     1       1.641   5.175  20.732  0.00  0.00    +0.000 S 
ATOM     11  C   UNL     1       2.343   3.537  20.692  0.00  0.00    +0.000 A 
ATOM     12  C   UNL     1       1.933   2.497  21.675  0.00  0.00    +0.000 C 
ATOM     13  C   UNL     1       3.257   3.393  19.715  0.00  0.00    +0.000 A 
ATOM     14  N   UNL     1       3.429   4.557  18.998  0.00  0.00    +0.000 N 
ATOM     15  C   UNL     1       4.204   5.005  17.970  0.00  0.00    +0.000 A 
ATOM     16  H   UNL     1       6.396   8.163  16.651  0.00  0.00    +0.000 HD
ENDROOT
BRANCH   1  18
ATOM     17  C   UNL     1       6.167   3.710  14.894  0.00  0.00    +0.000 C 
ATOM     18  C   UNL     1       4.960   4.142  15.719  0.00  0.00    +0.000 C 
ENDBRANCH   1  18
TORSDOF 1
ENDMDL
MODEL 4
REMARK VINA RESULT:      -6.2      3.144      5.117
REMARK  Name = 
REMARK  3 active torsions:
REMARK  status: ('A' for Active; 'I' for Inactive)
REMARK    1  A    between atoms: C_1  and  C_2
REMARK    2  A    between atoms: C_2  and  C_3
REMARK    3  A    between atoms: C_13  and  C_14
REMARK                            x       y       z     vdW  Elec       q    Type
REMARK                         _______ _______ _______ _____ _____    ______ ____
ROOT
ATOM      1  C   UNL     1       3.444   3.493  17.451  0.00  0.00    +0.000 C 
ATOM      2  C   UNL     1       2.519   4.644  17.860  0.00  0.00    +0.000 C 
ATOM      3  C   UNL     1       2.770   5.300  19.214  0.00  0.00    +0.000 C 
ATOM      4  O   UNL     1       1.835   5.488  19.995  0.00  0.00    +0.000 OA
ATOM      5  N   UNL     1       3.987   5.830  19.535  0.00  0.00    +0.000 N 
ATOM      6  C   UNL     1       5.288   5.187  19.384  0.00  0.00    +0.000 C 
ATOM      7  C   UNL     1       5.585   4.839  17.971  0.00  0.00    +0.000 A 
ATOM      8  N   UNL     1       6.730   5.258  17.325  0.00  0.00    +0.000 NA
ATOM      9  C   UNL     1       6.577   4.788  16.117  0.00  0.00    +0.000 A 
ATOM     10  S   UNL     1       7.478   4.898  14.638  0.00  0.00    +0.000 S 
ATOM     11  C   UNL     1       6.181   3.994  13.817  0.00  0.00    +0.000 A 
ATOM     12  C   UNL     1       6.244   3.707  12.357  0.00  0.00    +0.000 C 
ATOM     13  C   UNL     1       5.185   3.647  14.654  0.00  0.00    +0.000 A 
ATOM     14  N   UNL     1       5.417   4.091  15.937  0.00  0.00    +0.000 N 
ATOM     15  C   UNL     1       4.779   4.075  17.142  0.00  0.00    +0.000 A 
ATOM     16  H   UNL     1       3.902   6.315  20.418  0.00  0.00    +0.000 HD
ENDROOT
BRANCH   1  18
ATOM     17  C   UNL     1       2.135   1.851  18.926  0.00  0.00    +0.000 C 
ATOM     18  C   UNL     1       3.504   2.393  18.531  0.00  0.00    +0.000 C 
ENDBRANCH   1  18
TORSDOF 1
ENDMDL
MODEL 5
REMARK VINA RESULT:      -6.2      2.527      3.661
REMARK  Name = 
REMARK  3 active torsions:
REMARK  status: ('A' for Active; 'I' for Inactive)
REMARK    1  A    between atoms: C_1  and  C_2
REMARK    2  A    between atoms: C_2  and  C_3
REMARK    3  A    between atoms: C_13  and  C_14
REMARK                            x       y       z     vdW  Elec       q    Type
REMARK                         _______ _______ _______ _____ _____    ______ ____
ROOT
ATOM      1  C   UNL     1       5.469   6.577  16.664  0.00  0.00    +0.000 C 
ATOM      2  C   UNL     1       5.203   5.446  15.664  0.00  0.00    +0.000 C 
ATOM      3  C   UNL     1       5.656   4.044  16.053  0.00  0.00    +0.000 C 
ATOM      4  O   UNL     1       6.301   3.357  15.257  0.00  0.00    +0.000 OA
ATOM      5  N   UNL     1       5.239   3.454  17.213  0.00  0.00    +0.000 N 
ATOM      6  C   UNL     1       5.256   4.044  18.547  0.00  0.00    +0.000 C 
ATOM      7  C   UNL     1       4.425   5.272  18.633  0.00  0.00    +0.000 A 
ATOM      8  N   UNL     1       3.419   5.428  19.564  0.00  0.00    +0.000 NA
ATOM      9  C   UNL     1       2.921   6.598  19.269  0.00  0.00    +0.000 A 
ATOM     10  S   UNL     1       1.594   7.547  19.859  0.00  0.00    +0.000 S 
ATOM     11  C   UNL     1       1.930   8.750  18.588  0.00  0.00    +0.000 A 
ATOM     12  C   UNL     1       1.081   9.962  18.428  0.00  0.00    +0.000 C 
ATOM     13  C   UNL     1       2.986   8.412  17.825  0.00  0.00    +0.000 A 
ATOM     14  N   UNL     1       3.536   7.211  18.215  0.00  0.00    +0.000 N 
ATOM     15  C   UNL     1       4.545   6.385  17.816  0.00  0.00    +0.000 A 
ATOM     16  H   UNL     1       5.555   2.494  17.217  0.00  0.00    +0.000 HD
ENDROOT
BRANCH   1  18
ATOM     17  C   UNL     1       7.421   8.031  17.475  0.00  0.00    +0.000 C 
ATOM     18  C   UNL     1       6.951   6.634  17.086  0.00  0.00    +0.000 C 
ENDBRANCH   1  18
TORSDOF 1
ENDMDL
MODEL 6
REMARK VINA RESULT:      -6.2      3.309      4.476
REMARK  Name = 
REMARK  3 active torsions:
REMARK  status: ('A' for Active; 'I' for Inactive)
REMARK    1  A    between atoms: C_1  and  C_2
REMARK    2  A    between atoms: C_2  and  C_3
REMARK    3  A    between atoms: C_13  and  C_14
REMARK                            x       y       z     vdW  Elec       q    Type
REMARK                         _______ _______ _______ _____ _____    ______ ____
ROOT
ATOM      1  C   UNL     1       3.933   4.975  19.106  0.00  0.00    +0.000 C 
ATOM      2  C   UNL     1       5.442   5.112  19.335  0.00  0.00    +0.000 C 
ATOM      3  C   UNL     1       6.336   5.176  18.102  0.00  0.00    +0.000 C 
ATOM      4  O   UNL     1       7.341   4.465  18.026  0.00  0.00    +0.000 OA
ATOM      5  N   UNL     1       6.144   6.114  17.128  0.00  0.00    +0.000 N 
ATOM      6  C   UNL     1       4.884   6.450  16.475  0.00  0.00    +0.000 C 
ATOM      7  C   UNL     1       3.863   6.942  17.435  0.00  0.00    +0.000 A 
ATOM      8  N   UNL     1       3.218   8.152  17.283  0.00  0.00    +0.000 NA
ATOM      9  C   UNL     1       2.459   8.218  18.342  0.00  0.00    +0.000 A 
ATOM     10  S   UNL     1       1.382   9.406  19.003  0.00  0.00    +0.000 S 
ATOM     11  C   UNL     1       1.145   8.357  20.424  0.00  0.00    +0.000 A 
ATOM     12  C   UNL     1       0.281   8.779  21.561  0.00  0.00    +0.000 C 
ATOM     13  C   UNL     1       1.836   7.205  20.334  0.00  0.00    +0.000 A 
ATOM     14  N   UNL     1       2.564   7.135  19.167  0.00  0.00    +0.000 N 
ATOM     15  C   UNL     1       3.438   6.273  18.572  0.00  0.00    +0.000 A 
ATOM     16  H   UNL     1       6.910   6.056  16.471  0.00  0.00    +0.000 HD
ENDROOT
BRANCH   1  18
ATOM     17  C   UNL     1       2.131   3.721  17.779  0.00  0.00    +0.000 C 
ATOM     18  C   UNL     1       3.598   3.781  18.189  0.00  0.00    +0.000 C 
ENDBRANCH   1  18
TORSDOF 1
ENDMDL
MODEL 7
REMARK VINA RESULT:      -6.1      2.280      2.847
REMARK  Name = 
REMARK  3 active torsions:
REMARK  status: ('A' for Active; 'I' for Inactive)
REMARK    1  A    between atoms: C_1  and  C_2
REMARK    2  A    between atoms: C_2  and  C_3
REMARK    3  A    between atoms: C_13  and  C_14
REMARK                            x       y       z     vdW  Elec       q    Type
REMARK                         _______ _______ _______ _____ _____    ______ ____
ROOT
ATOM      1  C   UNL     1       5.456   6.731  17.359  0.00  0.00    +0.000 C 
ATOM      2  C   UNL     1       5.190   6.534  15.863  0.00  0.00    +0.000 C 
ATOM      3  C   UNL     1       5.744   5.272  15.212  0.00  0.00    +0.000 C 
ATOM      4  O   UNL     1       6.373   5.345  14.154  0.00  0.00    +0.000 OA
ATOM      5  N   UNL     1       5.437   4.029  15.687  0.00  0.00    +0.000 N 
ATOM      6  C   UNL     1       5.507   3.581  17.074  0.00  0.00    +0.000 C 
ATOM      7  C   UNL     1       4.616   4.366  17.966  0.00  0.00    +0.000 A 
ATOM      8  N   UNL     1       3.666   3.778  18.775  0.00  0.00    +0.000 NA
ATOM      9  C   UNL     1       3.085   4.800  19.341  0.00  0.00    +0.000 A 
ATOM     10  S   UNL     1       1.748   5.001  20.429  0.00  0.00    +0.000 S 
ATOM     11  C   UNL     1       1.933   6.767  20.281  0.00  0.00    +0.000 A 
ATOM     12  C   UNL     1       1.009   7.702  20.981  0.00  0.00    +0.000 C 
ATOM     13  C   UNL     1       2.955   7.113  19.477  0.00  0.00    +0.000 A 
ATOM     14  N   UNL     1       3.595   6.008  18.959  0.00  0.00    +0.000 N 
ATOM     15  C   UNL     1       4.621   5.745  18.100  0.00  0.00    +0.000 A 
ATOM     16  H   UNL     1       5.805   3.340  15.045  0.00  0.00    +0.000 HD
ENDROOT
BRANCH   1  18
ATOM     17  C   UNL     1       7.709   7.939  17.574  0.00  0.00    +0.000 C 
ATOM     18  C   UNL     1       6.957   6.619  17.695  0.00  0.00    +0.000 C 
ENDBRANCH   1  18
TORSDOF 1
ENDMDL
MODEL 8
REMARK VINA RESULT:      -6.1      3.302      4.819
REMARK  Name = 
REMARK  3 active torsions:
REMARK  status: ('A' for Active; 'I' for Inactive)
REMARK    1  A    between atoms: C_1  and  C_2
REMARK    2  A    between atoms: C_2  and  C_3
REMARK    3  A    between atoms: C_13  and  C_14
REMARK                            x       y       z     vdW  Elec       q    Type
REMARK                         _______ _______ _______ _____ _____    ______ ____
ROOT
ATOM      1  C   UNL     1       4.246   4.727  17.947  0.00  0.00    +0.000 C 
ATOM      2  C   UNL     1       3.481   3.524  17.385  0.00  0.00    +0.000 C 
ATOM      3  C   UNL     1       3.324   2.306  18.288  0.00  0.00    +0.000 C 
ATOM      4  O   UNL     1       3.580   1.179  17.859  0.00  0.00    +0.000 OA
ATOM      5  N   UNL     1       2.759   2.404  19.528  0.00  0.00    +0.000 N 
ATOM      6  C   UNL     1       3.089   3.377  20.564  0.00  0.00    +0.000 C 
ATOM      7  C   UNL     1       2.854   4.775  20.122  0.00  0.00    +0.000 A 
ATOM      8  N   UNL     1       2.055   5.655  20.824  0.00  0.00    +0.000 NA
ATOM      9  C   UNL     1       2.078   6.730  20.084  0.00  0.00    +0.000 A 
ATOM     10  S   UNL     1       1.302   8.280  20.155  0.00  0.00    +0.000 S 
ATOM     11  C   UNL     1       2.045   8.689  18.587  0.00  0.00    +0.000 A 
ATOM     12  C   UNL     1       1.774   9.992  17.921  0.00  0.00    +0.000 C 
ATOM     13  C   UNL     1       2.822   7.698  18.112  0.00  0.00    +0.000 A 
ATOM     14  N   UNL     1       2.838   6.609  18.956  0.00  0.00    +0.000 N 
ATOM     15  C   UNL     1       3.387   5.362  18.985  0.00  0.00    +0.000 A 
ATOM     16  H   UNL     1       2.644   1.473  19.903  0.00  0.00    +0.000 HD
ENDROOT
BRANCH   1  18
ATOM     17  C   UNL     1       6.375   5.463  19.175  0.00  0.00    +0.000 C 
ATOM     18  C   UNL     1       5.635   4.325  18.482  0.00  0.00    +0.000 C 
ENDBRANCH   1  18
TORSDOF 1
ENDMDL
MODEL 9
REMARK VINA RESULT:      -6.0      1.959      2.999
REMARK  Name = 
REMARK  3 active torsions:
REMARK  status: ('A' for Active; 'I' for Inactive)
REMARK    1  A    between atoms: C_1  and  C_2
REMARK    2  A    between atoms: C_2  and  C_3
REMARK    3  A    between atoms: C_13  and  C_14
REMARK                            x       y       z     vdW  Elec       q    Type
REMARK                         _______ _______ _______ _____ _____    ______ ____
ROOT
ATOM      1  C   UNL     1       6.492   4.714  17.865  0.00  0.00    +0.000 C 
ATOM      2  C   UNL     1       7.277   5.959  18.293  0.00  0.00    +0.000 C 
ATOM      3  C   UNL     1       7.237   7.168  17.364  0.00  0.00    +0.000 C 
ATOM      4  O   UNL     1       8.281   7.743  17.050  0.00  0.00    +0.000 OA
ATOM      5  N   UNL     1       6.055   7.736  16.982  0.00  0.00    +0.000 N 
ATOM      6  C   UNL     1       4.883   7.044  16.456  0.00  0.00    +0.000 C 
ATOM      7  C   UNL     1       4.331   6.055  17.417  0.00  0.00    +0.000 A 
ATOM      8  N   UNL     1       3.014   6.068  17.827  0.00  0.00    +0.000 NA
ATOM      9  C   UNL     1       2.962   5.088  18.687  0.00  0.00    +0.000 A 
ATOM     10  S   UNL     1       1.740   4.445  19.736  0.00  0.00    +0.000 S 
ATOM     11  C   UNL     1       2.947   3.314  20.399  0.00  0.00    +0.000 A 
ATOM     12  C   UNL     1       2.599   2.366  21.493  0.00  0.00    +0.000 C 
ATOM     13  C   UNL     1       4.153   3.448  19.816  0.00  0.00    +0.000 A 
ATOM     14  N   UNL     1       4.151   4.439  18.858  0.00  0.00    +0.000 N 
ATOM     15  C   UNL     1       5.043   5.023  18.009  0.00  0.00    +0.000 A 
ATOM     16  H   UNL     1       6.257   8.585  16.472  0.00  0.00    +0.000 HD
ENDROOT
BRANCH   1  18
ATOM     17  C   UNL     1       5.738   3.548  15.707  0.00  0.00    +0.000 C 
ATOM     18  C   UNL     1       6.871   4.258  16.441  0.00  0.00    +0.000 C 
ENDBRANCH   1  18
TORSDOF 1
ENDMDL
