MODEL 1
REMARK VINA RESULT:      -7.7      0.000      0.000
REMARK  Name = 
REMARK  4 active torsions:
REMARK  status: ('A' for Active; 'I' for Inactive)
REMARK    1  A    between atoms: C_2  and  C_3
REMARK    2  A    between atoms: C_12  and  N_13
REMARK    3  A    between atoms: N_13  and  S_14
REMARK    4  A    between atoms: S_14  and  C_17
REMARK                            x       y       z     vdW  Elec       q    Type
REMARK                         _______ _______ _______ _____ _____    ______ ____
ROOT
ATOM      1  N   UNL     1       3.052   3.891  19.027  0.00  0.00    +0.000 NA
ATOM      2  H   UNL     1       3.263   3.367  19.883  0.00  0.00    +0.000 HD
ENDROOT
BRANCH   1   8
ATOM      3  O   UNL     1       0.595   8.730  21.265  0.00  0.00    +0.000 OA
ATOM      4  C   UNL     1       1.276   8.477  20.268  0.00  0.00    +0.000 C 
ATOM      5  N   UNL     1       1.871   7.232  20.142  0.00  0.00    +0.000 N 
ATOM      6  C   UNL     1       2.691   6.831  19.032  0.00  0.00    +0.000 C 
ATOM      7  C   UNL     1       1.829   5.880  18.215  0.00  0.00    +0.000 C 
ATOM      8  C   UNL     1       1.726   4.567  18.977  0.00  0.00    +0.000 C 
ATOM      9  C   UNL     1       1.153   4.833  20.393  0.00  0.00    +0.000 C 
ATOM     10  C   UNL     1       1.600   6.143  21.088  0.00  0.00    +0.000 C 
BRANCH   4  11
ATOM     11  C   UNL     1       1.549   9.572  19.189  0.00  0.00    +0.000 C 
ATOM     12  C   UNL     1       0.848   9.452  17.819  0.00  0.00    +0.000 C 
ATOM     13  C   UNL     1      -0.656   9.689  17.870  0.00  0.00    +0.000 C 
ATOM     14  C   UNL     1      -1.016  11.004  18.547  0.00  0.00    +0.000 C 
ATOM     15  C   UNL     1      -0.296  11.184  19.878  0.00  0.00    +0.000 C 
ATOM     16  C   UNL     1       1.214  10.973  19.742  0.00  0.00    +0.000 C 
ENDBRANCH   4  11
ENDBRANCH   1   8
BRANCH   1  17
ATOM     17  S   UNL     1       3.540   2.954  17.685  0.00  0.00    +0.000 S 
ATOM     18  O   UNL     1       4.202   1.795  18.247  0.00  0.00    +0.000 OA
ATOM     19  O   UNL     1       2.389   2.797  16.828  0.00  0.00    +0.000 OA
BRANCH  17  20
ATOM     20  C   UNL     1       4.819   3.933  16.887  0.00  0.00    +0.000 A 
ATOM     21  C   UNL     1       4.795   3.889  15.479  0.00  0.00    +0.000 A 
ATOM     22  C   UNL     1       5.719   4.611  14.731  0.00  0.00    +0.000 A 
ATOM     23  C   UNL     1       6.661   5.396  15.382  0.00  0.00    +0.000 A 
ATOM     24  C   UNL     1       6.706   5.462  16.785  0.00  0.00    +0.000 A 
ATOM     25  C   UNL     1       7.669   6.259  17.413  0.00  0.00    +0.000 A 
ATOM     26  N   UNL     1       7.830   6.374  18.746  0.00  0.00    +0.000 NA
ATOM     27  C   UNL     1       6.976   5.668  19.504  0.00  0.00    +0.000 A 
ATOM     28  C   UNL     1       5.969   4.860  18.985  0.00  0.00    +0.000 A 
ATOM     29  C   UNL     1       5.792   4.726  17.583  0.00  0.00    +0.000 A 
ENDBRANCH  17  20
ENDBRANCH   1  17
TORSDOF 4
ENDMDL
MODEL 2
REMARK VINA RESULT:      -7.5      3.588      9.180
REMARK  Name = 
REMARK  4 active torsions:
REMARK  status: ('A' for Active; 'I' for Inactive)
REMARK    1  A    between atoms: C_2  and  C_3
REMARK    2  A    between atoms: C_12  and  N_13
REMARK    3  A    between atoms: N_13  and  S_14
REMARK    4  A    between atoms: S_14  and  C_17
REMARK                            x       y       z     vdW  Elec       q    Type
REMARK                         _______ _______ _______ _____ _____    ______ ____
ROOT
ATOM      1  N   UNL     1       0.071   9.616  19.012  0.00  0.00    +0.000 NA
ATOM      2  H   UNL     1      -0.548   8.838  19.265  0.00  0.00    +0.000 HD
ENDROOT
BRANCH   1   8
ATOM      3  O   UNL     1       4.243   5.499  19.337  0.00  0.00    +0.000 OA
ATOM      4  C   UNL     1       3.863   6.291  18.471  0.00  0.00    +0.000 C 
ATOM      5  N   UNL     1       2.691   7.006  18.663  0.00  0.00    +0.000 N 
ATOM      6  C   UNL     1       2.148   7.946  17.720  0.00  0.00    +0.000 C 
ATOM      7  C   UNL     1       2.423   9.319  18.314  0.00  0.00    +0.000 C 
ATOM      8  C   UNL     1       1.478   9.521  19.489  0.00  0.00    +0.000 C 
ATOM      9  C   UNL     1       1.671   8.373  20.514  0.00  0.00    +0.000 C 
ATOM     10  C   UNL     1       1.957   6.966  19.932  0.00  0.00    +0.000 C 
BRANCH   4  11
ATOM     11  C   UNL     1       4.636   6.431  17.122  0.00  0.00    +0.000 C 
ATOM     12  C   UNL     1       6.041   7.071  17.137  0.00  0.00    +0.000 C 
ATOM     13  C   UNL     1       7.104   6.213  17.811  0.00  0.00    +0.000 C 
ATOM     14  C   UNL     1       7.160   4.802  17.244  0.00  0.00    +0.000 C 
ATOM     15  C   UNL     1       5.781   4.158  17.159  0.00  0.00    +0.000 C 
ATOM     16  C   UNL     1       4.777   5.057  16.433  0.00  0.00    +0.000 C 
ENDBRANCH   4  11
ENDBRANCH   1   8
BRANCH   1  17
ATOM     17  S   UNL     1      -0.774  11.081  19.253  0.00  0.00    +0.000 S 
ATOM     18  O   UNL     1      -1.361  10.972  20.573  0.00  0.00    +0.000 OA
ATOM     19  O   UNL     1       0.133  12.158  18.941  0.00  0.00    +0.000 OA
BRANCH  17  20
ATOM     20  C   UNL     1      -2.138  11.017  18.085  0.00  0.00    +0.000 A 
ATOM     21  C   UNL     1      -1.848  10.342  16.882  0.00  0.00    +0.000 A 
ATOM     22  C   UNL     1      -2.816  10.205  15.894  0.00  0.00    +0.000 A 
ATOM     23  C   UNL     1      -4.087  10.723  16.105  0.00  0.00    +0.000 A 
ATOM     24  C   UNL     1      -4.406  11.398  17.295  0.00  0.00    +0.000 A 
ATOM     25  C   UNL     1      -5.694  11.913  17.478  0.00  0.00    +0.000 A 
ATOM     26  N   UNL     1      -6.106  12.605  18.559  0.00  0.00    +0.000 NA
ATOM     27  C   UNL     1      -5.190  12.785  19.524  0.00  0.00    +0.000 A 
ATOM     28  C   UNL     1      -3.888  12.300  19.455  0.00  0.00    +0.000 A 
ATOM     29  C   UNL     1      -3.440  11.574  18.320  0.00  0.00    +0.000 A 
ENDBRANCH  17  20
ENDBRANCH   1  17
TORSDOF 4
ENDMDL
MODEL 3
REMARK VINA RESULT:      -7.4      1.453      2.369
REMARK  Name = 
REMARK  4 active torsions:
REMARK  status: ('A' for Active; 'I' for Inactive)
REMARK    1  A    between atoms: C_2  and  C_3
REMARK    2  A    between atoms: C_12  and  N_13
REMARK    3  A    between atoms: N_13  and  S_14
REMARK    4  A    between atoms: S_14  and  C_17
REMARK                            x       y       z     vdW  Elec       q    Type
REMARK                         _______ _______ _______ _____ _____    ______ ____
ROOT
ATOM      1  N   UNL     1       3.608   4.846  19.889  0.00  0.00    +0.000 NA
ATOM      2  H   UNL     1       3.876   4.636  20.856  0.00  0.00    +0.000 HD
ENDROOT
BRANCH   1   8
ATOM      3  O   UNL     1      -0.012   9.415  20.582  0.00  0.00    +0.000 OA
ATOM      4  C   UNL     1       0.767   9.043  19.700  0.00  0.00    +0.000 C 
ATOM      5  N   UNL     1       1.636   7.994  19.951  0.00  0.00    +0.000 N 
ATOM      6  C   UNL     1       2.590   7.483  19.005  0.00  0.00    +0.000 C 
ATOM      7  C   UNL     1       2.017   6.159  18.526  0.00  0.00    +0.000 C 
ATOM      8  C   UNL     1       2.169   5.147  19.652  0.00  0.00    +0.000 C 
ATOM      9  C   UNL     1       1.467   5.680  20.928  0.00  0.00    +0.000 C 
ATOM     10  C   UNL     1       1.563   7.204  21.186  0.00  0.00    +0.000 C 
BRANCH   4  11
ATOM     11  C   UNL     1       0.848   9.799  18.336  0.00  0.00    +0.000 C 
ATOM     12  C   UNL     1      -0.466  10.181  17.622  0.00  0.00    +0.000 C 
ATOM     13  C   UNL     1      -1.261  11.271  18.330  0.00  0.00    +0.000 C 
ATOM     14  C   UNL     1      -0.424  12.509  18.619  0.00  0.00    +0.000 C 
ATOM     15  C   UNL     1       0.910  12.166  19.272  0.00  0.00    +0.000 C 
ATOM     16  C   UNL     1       1.671  11.097  18.484  0.00  0.00    +0.000 C 
ENDBRANCH   4  11
ENDBRANCH   1   8
BRANCH   1  17
ATOM     17  S   UNL     1       4.388   3.731  18.857  0.00  0.00    +0.000 S 
ATOM     18  O   UNL     1       5.119   2.842  19.737  0.00  0.00    +0.000 OA
ATOM     19  O   UNL     1       3.392   3.211  17.953  0.00  0.00    +0.000 OA
BRANCH  17  20
ATOM     20  C   UNL     1       5.620   4.703  17.982  0.00  0.00    +0.000 A 
ATOM     21  C   UNL     1       6.311   5.632  18.785  0.00  0.00    +0.000 A 
ATOM     22  C   UNL     1       7.302   6.442  18.242  0.00  0.00    +0.000 A 
ATOM     23  C   UNL     1       7.624   6.318  16.897  0.00  0.00    +0.000 A 
ATOM     24  C   UNL     1       6.955   5.399  16.072  0.00  0.00    +0.000 A 
ATOM     25  C   UNL     1       7.299   5.298  14.720  0.00  0.00    +0.000 A 
ATOM     26  N   UNL     1       6.707   4.480  13.828  0.00  0.00    +0.000 NA
ATOM     27  C   UNL     1       5.723   3.703  14.307  0.00  0.00    +0.000 A 
ATOM     28  C   UNL     1       5.313   3.707  15.637  0.00  0.00    +0.000 A 
ATOM     29  C   UNL     1       5.926   4.567  16.586  0.00  0.00    +0.000 A 
ENDBRANCH  17  20
ENDBRANCH   1  17
TORSDOF 4
ENDMDL
MODEL 4
REMARK VINA RESULT:      -7.4      4.386     10.082
REMARK  Name = 
REMARK  4 active torsions:
REMARK  status: ('A' for Active; 'I' for Inactive)
REMARK    1  A    between atoms: C_2  and  C_3
REMARK    2  A    between atoms: C_12  and  N_13
REMARK    3  A    between atoms: N_13  and  S_14
REMARK    4  A    between atoms: S_14  and  C_17
REMARK                            x       y       z     vdW  Elec       q    Type
REMARK                         _______ _______ _______ _____ _____    ______ ____
ROOT
ATOM      1  N   UNL     1       0.098  11.304  21.155  0.00  0.00    +0.000 NA
ATOM      2  H   UNL     1       0.345  12.077  20.528  0.00  0.00    +0.000 HD
ENDROOT
BRANCH   1   8
ATOM      3  O   UNL     1       2.278   6.962  17.859  0.00  0.00    +0.000 OA
ATOM      4  C   UNL     1       2.199   7.185  19.070  0.00  0.00    +0.000 C 
ATOM      5  N   UNL     1       1.789   8.432  19.512  0.00  0.00    +0.000 N 
ATOM      6  C   UNL     1       1.670   8.807  20.895  0.00  0.00    +0.000 C 
ATOM      7  C   UNL     1       0.176   8.833  21.180  0.00  0.00    +0.000 C 
ATOM      8  C   UNL     1      -0.410  10.064  20.504  0.00  0.00    +0.000 C 
ATOM      9  C   UNL     1      -0.088  10.026  18.988  0.00  0.00    +0.000 C 
ATOM     10  C   UNL     1       1.298   9.461  18.588  0.00  0.00    +0.000 C 
BRANCH   4  11
ATOM     11  C   UNL     1       2.644   6.109  20.110  0.00  0.00    +0.000 C 
ATOM     12  C   UNL     1       1.604   5.078  20.599  0.00  0.00    +0.000 C 
ATOM     13  C   UNL     1       1.185   4.070  19.536  0.00  0.00    +0.000 C 
ATOM     14  C   UNL     1       2.376   3.372  18.893  0.00  0.00    +0.000 C 
ATOM     15  C   UNL     1       3.452   4.357  18.450  0.00  0.00    +0.000 C 
ATOM     16  C   UNL     1       3.852   5.309  19.580  0.00  0.00    +0.000 C 
ENDBRANCH   4  11
ENDBRANCH   1   8
BRANCH   1  17
ATOM     17  S   UNL     1      -0.765  11.938  22.485  0.00  0.00    +0.000 S 
ATOM     18  O   UNL     1      -0.943  10.824  23.393  0.00  0.00    +0.000 OA
ATOM     19  O   UNL     1      -0.078  13.132  22.914  0.00  0.00    +0.000 OA
BRANCH  17  20
ATOM     20  C   UNL     1      -2.394  12.323  21.829  0.00  0.00    +0.000 A 
ATOM     21  C   UNL     1      -2.436  12.494  20.431  0.00  0.00    +0.000 A 
ATOM     22  C   UNL     1      -3.635  12.782  19.787  0.00  0.00    +0.000 A 
ATOM     23  C   UNL     1      -4.803  12.881  20.530  0.00  0.00    +0.000 A 
ATOM     24  C   UNL     1      -4.792  12.712  21.925  0.00  0.00    +0.000 A 
ATOM     25  C   UNL     1      -5.985  12.822  22.648  0.00  0.00    +0.000 A 
ATOM     26  N   UNL     1      -6.092  12.713  23.987  0.00  0.00    +0.000 NA
ATOM     27  C   UNL     1      -4.951  12.465  24.649  0.00  0.00    +0.000 A 
ATOM     28  C   UNL     1      -3.714  12.318  24.029  0.00  0.00    +0.000 A 
ATOM     29  C   UNL     1      -3.586  12.435  22.620  0.00  0.00    +0.000 A 
ENDBRANCH  17  20
ENDBRANCH   1  17
TORSDOF 4
ENDMDL
MODEL 5
REMARK VINA RESULT:      -7.4      2.622      3.954
REMARK  Name = 
REMARK  4 active torsions:
REMARK  status: ('A' for Active; 'I' for Inactive)
REMARK    1  A    between atoms: C_2  and  C_3
REMARK    2  A    between atoms: C_12  and  N_13
REMARK    3  A    between atoms: N_13  and  S_14
REMARK    4  A    between atoms: S_14  and  C_17
REMARK                            x       y       z     vdW  Elec       q    Type
REMARK                         _______ _______ _______ _____ _____    ______ ____
ROOT
ATOM      1  N   UNL     1       3.874   7.116  18.521  0.00  0.00    +0.000 NA
ATOM      2  H   UNL     1       4.315   7.800  19.145  0.00  0.00    +0.000 HD
ENDROOT
BRANCH   1   8
ATOM      3  O   UNL     1      -0.718  10.268  20.374  0.00  0.00    +0.000 OA
ATOM      4  C   UNL     1      -0.126  10.135  19.299  0.00  0.00    +0.000 C 
ATOM      5  N   UNL     1       1.072   9.441  19.259  0.00  0.00    +0.000 N 
ATOM      6  C   UNL     1       1.853   9.233  18.070  0.00  0.00    +0.000 C 
ATOM      7  C   UNL     1       1.639   7.775  17.695  0.00  0.00    +0.000 C 
ATOM      8  C   UNL     1       2.408   6.917  18.689  0.00  0.00    +0.000 C 
ATOM      9  C   UNL     1       1.937   7.243  20.130  0.00  0.00    +0.000 C 
ATOM     10  C   UNL     1       1.594   8.724  20.428  0.00  0.00    +0.000 C 
BRANCH   4  11
ATOM     11  C   UNL     1      -0.662  10.818  18.002  0.00  0.00    +0.000 C 
ATOM     12  C   UNL     1      -1.637  10.031  17.101  0.00  0.00    +0.000 C 
ATOM     13  C   UNL     1      -3.014   9.817  17.716  0.00  0.00    +0.000 C 
ATOM     14  C   UNL     1      -3.648  11.117  18.192  0.00  0.00    +0.000 C 
ATOM     15  C   UNL     1      -2.693  11.950  19.038  0.00  0.00    +0.000 C 
ATOM     16  C   UNL     1      -1.348  12.159  18.339  0.00  0.00    +0.000 C 
ENDBRANCH   4  11
ENDBRANCH   1   8
BRANCH   1  17
ATOM     17  S   UNL     1       4.879   5.737  18.434  0.00  0.00    +0.000 S 
ATOM     18  O   UNL     1       5.537   5.824  17.146  0.00  0.00    +0.000 OA
ATOM     19  O   UNL     1       5.653   5.690  19.651  0.00  0.00    +0.000 OA
BRANCH  17  20
ATOM     20  C   UNL     1       3.741   4.350  18.330  0.00  0.00    +0.000 A 
ATOM     21  C   UNL     1       3.609   3.798  17.040  0.00  0.00    +0.000 A 
ATOM     22  C   UNL     1       2.772   2.710  16.817  0.00  0.00    +0.000 A 
ATOM     23  C   UNL     1       2.076   2.153  17.881  0.00  0.00    +0.000 A 
ATOM     24  C   UNL     1       2.191   2.680  19.178  0.00  0.00    +0.000 A 
ATOM     25  C   UNL     1       1.475   2.100  20.231  0.00  0.00    +0.000 A 
ATOM     26  N   UNL     1       1.480   2.537  21.505  0.00  0.00    +0.000 NA
ATOM     27  C   UNL     1       2.252   3.606  21.756  0.00  0.00    +0.000 A 
ATOM     28  C   UNL     1       3.021   4.248  20.790  0.00  0.00    +0.000 A 
ATOM     29  C   UNL     1       3.021   3.800  19.443  0.00  0.00    +0.000 A 
ENDBRANCH  17  20
ENDBRANCH   1  17
TORSDOF 4
ENDMDL
MODEL 6
REMARK VINA RESULT:      -7.4      1.191      2.160
REMARK  Name = 
REMARK  4 active torsions:
REMARK  status: ('A' for Active; 'I' for Inactive)
REMARK    1  A    between atoms: C_2  and  C_3
REMARK    2  A    between atoms: C_12  and  N_13
REMARK    3  A    between atoms: N_13  and  S_14
REMARK    4  A    between atoms: S_14  and  C_17
REMARK                            x       y       z     vdW  Elec       q    Type
REMARK                         _______ _______ _______ _____ _____    ______ ____
ROOT
ATOM      1  N   UNL     1       2.995   3.878  19.140  0.00  0.00    +0.000 NA
ATOM      2  H   UNL     1       3.111   3.223  19.920  0.00  0.00    +0.000 HD
ENDROOT
BRANCH   1   8
ATOM      3  O   UNL     1       0.507   8.755  21.259  0.00  0.00    +0.000 OA
ATOM      4  C   UNL     1       1.215   8.488  20.284  0.00  0.00    +0.000 C 
ATOM      5  N   UNL     1       1.805   7.238  20.188  0.00  0.00    +0.000 N 
ATOM      6  C   UNL     1       2.654   6.820  19.106  0.00  0.00    +0.000 C 
ATOM      7  C   UNL     1       1.810   5.867  18.274  0.00  0.00    +0.000 C 
ATOM      8  C   UNL     1       1.676   4.563  19.045  0.00  0.00    +0.000 C 
ATOM      9  C   UNL     1       1.063   4.846  20.441  0.00  0.00    +0.000 C 
ATOM     10  C   UNL     1       1.499   6.160  21.135  0.00  0.00    +0.000 C 
BRANCH   4  11
ATOM     11  C   UNL     1       1.528   9.570  19.203  0.00  0.00    +0.000 C 
ATOM     12  C   UNL     1       0.835   9.464  17.827  0.00  0.00    +0.000 C 
ATOM     13  C   UNL     1      -0.663   9.743  17.865  0.00  0.00    +0.000 C 
ATOM     14  C   UNL     1      -0.991  11.071  18.534  0.00  0.00    +0.000 C 
ATOM     15  C   UNL     1      -0.277  11.236  19.871  0.00  0.00    +0.000 C 
ATOM     16  C   UNL     1       1.227  10.983  19.748  0.00  0.00    +0.000 C 
ENDBRANCH   4  11
ENDBRANCH   1   8
BRANCH   1  17
ATOM     17  S   UNL     1       3.646   3.165  17.732  0.00  0.00    +0.000 S 
ATOM     18  O   UNL     1       4.160   1.878  18.156  0.00  0.00    +0.000 OA
ATOM     19  O   UNL     1       2.639   3.247  16.702  0.00  0.00    +0.000 OA
BRANCH  17  20
ATOM     20  C   UNL     1       5.077   4.175  17.329  0.00  0.00    +0.000 A 
ATOM     21  C   UNL     1       5.618   4.883  18.420  0.00  0.00    +0.000 A 
ATOM     22  C   UNL     1       6.736   5.693  18.255  0.00  0.00    +0.000 A 
ATOM     23  C   UNL     1       7.333   5.788  17.005  0.00  0.00    +0.000 A 
ATOM     24  C   UNL     1       6.817   5.091  15.900  0.00  0.00    +0.000 A 
ATOM     25  C   UNL     1       7.438   5.209  14.652  0.00  0.00    +0.000 A 
ATOM     26  N   UNL     1       7.016   4.617  13.517  0.00  0.00    +0.000 NA
ATOM     27  C   UNL     1       5.920   3.849  13.628  0.00  0.00    +0.000 A 
ATOM     28  C   UNL     1       5.236   3.647  14.823  0.00  0.00    +0.000 A 
ATOM     29  C   UNL     1       5.668   4.268  16.024  0.00  0.00    +0.000 A 
ENDBRANCH  17  20
ENDBRANCH   1  17
TORSDOF 4
ENDMDL
MODEL 7
REMARK VINA RESULT:      -7.3      3.724      9.208
REMARK  Name = 
REMARK  4 active torsions:
REMARK  status: ('A' for Active; 'I' for Inactive)
REMARK    1  A    between atoms: C_2  and  C_3
REMARK    2  A    between atoms: C_12  and  N_13
REMARK    3  A    between atoms: N_13  and  S_14
REMARK    4  A    between atoms: S_14  and  C_17
REMARK                            x       y       z     vdW  Elec       q    Type
REMARK                         _______ _______ _______ _____ _____    ______ ____
ROOT
ATOM      1  N   UNL     1       1.156  10.708  20.522  0.00  0.00    +0.000 NA
ATOM      2  H   UNL     1       2.178  10.632  20.551  0.00  0.00    +0.000 HD
ENDROOT
BRANCH   1   8
ATOM      3  O   UNL     1       2.491   5.594  17.967  0.00  0.00    +0.000 OA
ATOM      4  C   UNL     1       2.209   5.950  19.114  0.00  0.00    +0.000 C 
ATOM      5  N   UNL     1       2.140   7.301  19.415  0.00  0.00    +0.000 N 
ATOM      6  C   UNL     1       1.832   7.831  20.715  0.00  0.00    +0.000 C 
ATOM      7  C   UNL     1       0.407   8.353  20.612  0.00  0.00    +0.000 C 
ATOM      8  C   UNL     1       0.435   9.632  19.787  0.00  0.00    +0.000 C 
ATOM      9  C   UNL     1       1.072   9.343  18.403  0.00  0.00    +0.000 C 
ATOM     10  C   UNL     1       2.246   8.334  18.378  0.00  0.00    +0.000 C 
BRANCH   4  11
ATOM     11  C   UNL     1       2.018   4.899  20.253  0.00  0.00    +0.000 C 
ATOM     12  C   UNL     1       0.824   3.923  20.166  0.00  0.00    +0.000 C 
ATOM     13  C   UNL     1       0.948   2.892  19.052  0.00  0.00    +0.000 C 
ATOM     14  C   UNL     1       2.265   2.130  19.107  0.00  0.00    +0.000 C 
ATOM     15  C   UNL     1       3.464   3.059  19.251  0.00  0.00    +0.000 C 
ATOM     16  C   UNL     1       3.288   4.038  20.415  0.00  0.00    +0.000 C 
ENDBRANCH   4  11
ENDBRANCH   1   8
BRANCH   1  17
ATOM     17  S   UNL     1       0.742  12.333  20.200  0.00  0.00    +0.000 S 
ATOM     18  O   UNL     1       1.304  13.096  21.295  0.00  0.00    +0.000 OA
ATOM     19  O   UNL     1       1.126  12.614  18.838  0.00  0.00    +0.000 OA
BRANCH  17  20
ATOM     20  C   UNL     1      -1.043  12.397  20.401  0.00  0.00    +0.000 A 
ATOM     21  C   UNL     1      -1.473  12.811  21.677  0.00  0.00    +0.000 A 
ATOM     22  C   UNL     1      -2.829  12.920  21.968  0.00  0.00    +0.000 A 
ATOM     23  C   UNL     1      -3.765  12.635  20.983  0.00  0.00    +0.000 A 
ATOM     24  C   UNL     1      -3.365  12.223  19.700  0.00  0.00    +0.000 A 
ATOM     25  C   UNL     1      -4.330  11.940  18.728  0.00  0.00    +0.000 A 
ATOM     26  N   UNL     1      -4.069  11.507  17.479  0.00  0.00    +0.000 NA
ATOM     27  C   UNL     1      -2.772  11.360  17.168  0.00  0.00    +0.000 A 
ATOM     28  C   UNL     1      -1.730  11.632  18.050  0.00  0.00    +0.000 A 
ATOM     29  C   UNL     1      -1.992  12.084  19.370  0.00  0.00    +0.000 A 
ENDBRANCH  17  20
ENDBRANCH   1  17
TORSDOF 4
ENDMDL
MODEL 8
REMARK VINA RESULT:      -7.2      0.986      1.152
REMARK  Name = 
REMARK  4 active torsions:
REMARK  status: ('A' for Active; 'I' for Inactive)
REMARK    1  A    between atoms: C_2  and  C_3
REMARK    2  A    between atoms: C_12  and  N_13
REMARK    3  A    between atoms: N_13  and  S_14
REMARK    4  A    between atoms: S_14  and  C_17
REMARK                            x       y       z     vdW  Elec       q    Type
REMARK                         _______ _______ _______ _____ _____    ______ ____
ROOT
ATOM      1  N   UNL     1       3.505   4.573  19.835  0.00  0.00    +0.000 NA
ATOM      2  H   UNL     1       3.819   4.434  20.802  0.00  0.00    +0.000 HD
ENDROOT
BRANCH   1   8
ATOM      3  O   UNL     1       0.166   9.342  20.586  0.00  0.00    +0.000 OA
ATOM      4  C   UNL     1       0.886   8.913  19.680  0.00  0.00    +0.000 C 
ATOM      5  N   UNL     1       1.707   7.823  19.916  0.00  0.00    +0.000 N 
ATOM      6  C   UNL     1       2.592   7.245  18.942  0.00  0.00    +0.000 C 
ATOM      7  C   UNL     1       1.930   5.945  18.514  0.00  0.00    +0.000 C 
ATOM      8  C   UNL     1       2.075   4.946  19.653  0.00  0.00    +0.000 C 
ATOM      9  C   UNL     1       1.457   5.539  20.945  0.00  0.00    +0.000 C 
ATOM     10  C   UNL     1       1.645   7.060  21.168  0.00  0.00    +0.000 C 
BRANCH   4  11
ATOM     11  C   UNL     1       0.950   9.639  18.300  0.00  0.00    +0.000 C 
ATOM     12  C   UNL     1      -0.366  10.143  17.667  0.00  0.00    +0.000 C 
ATOM     13  C   UNL     1      -0.997  11.317  18.405  0.00  0.00    +0.000 C 
ATOM     14  C   UNL     1      -0.021  12.467  18.613  0.00  0.00    +0.000 C 
ATOM     15  C   UNL     1       1.312  11.999  19.183  0.00  0.00    +0.000 C 
ATOM     16  C   UNL     1       1.906  10.848  18.367  0.00  0.00    +0.000 C 
ENDBRANCH   4  11
ENDBRANCH   1   8
BRANCH   1  17
ATOM     17  S   UNL     1       4.149   3.318  18.872  0.00  0.00    +0.000 S 
ATOM     18  O   UNL     1       5.172   2.695  19.688  0.00  0.00    +0.000 OA
ATOM     19  O   UNL     1       3.038   2.544  18.373  0.00  0.00    +0.000 OA
BRANCH  17  20
ATOM     20  C   UNL     1       5.007   4.162  17.538  0.00  0.00    +0.000 A 
ATOM     21  C   UNL     1       4.559   3.821  16.246  0.00  0.00    +0.000 A 
ATOM     22  C   UNL     1       5.125   4.410  15.121  0.00  0.00    +0.000 A 
ATOM     23  C   UNL     1       6.129   5.356  15.276  0.00  0.00    +0.000 A 
ATOM     24  C   UNL     1       6.594   5.718  16.551  0.00  0.00    +0.000 A 
ATOM     25  C   UNL     1       7.609   6.672  16.677  0.00  0.00    +0.000 A 
ATOM     26  N   UNL     1       8.157   7.073  17.841  0.00  0.00    +0.000 NA
ATOM     27  C   UNL     1       7.658   6.505  18.951  0.00  0.00    +0.000 A 
ATOM     28  C   UNL     1       6.636   5.561  18.943  0.00  0.00    +0.000 A 
ATOM     29  C   UNL     1       6.054   5.127  17.723  0.00  0.00    +0.000 A 
ENDBRANCH  17  20
ENDBRANCH   1  17
TORSDOF 4
ENDMDL
MODEL 9
REMARK VINA RESULT:      -7.2      3.116      8.383
REMARK  Name = 
REMARK  4 active torsions:
REMARK  status: ('A' for Active; 'I' for Inactive)
REMARK    1  A    between atoms: C_2  and  C_3
REMARK    2  A    between atoms: C_12  and  N_13
REMARK    3  A    between atoms: N_13  and  S_14
REMARK    4  A    between atoms: S_14  and  C_17
REMARK                            x       y       z     vdW  Elec       q    Type
REMARK                         _______ _______ _______ _____ _____    ______ ____
ROOT
ATOM      1  N   UNL     1       2.287   9.216  18.664  0.00  0.00    +0.000 NA
ATOM      2  H   UNL     1       3.137   9.772  18.522  0.00  0.00    +0.000 HD
ENDROOT
BRANCH   1   8
ATOM      3  O   UNL     1       5.202   4.157  18.059  0.00  0.00    +0.000 OA
ATOM      4  C   UNL     1       4.320   4.572  18.815  0.00  0.00    +0.000 C 
ATOM      5  N   UNL     1       3.990   5.918  18.809  0.00  0.00    +0.000 N 
ATOM      6  C   UNL     1       2.988   6.514  19.651  0.00  0.00    +0.000 C 
ATOM      7  C   UNL     1       1.805   6.793  18.737  0.00  0.00    +0.000 C 
ATOM      8  C   UNL     1       2.166   7.975  17.850  0.00  0.00    +0.000 C 
ATOM      9  C   UNL     1       3.468   7.660  17.069  0.00  0.00    +0.000 C 
ATOM     10  C   UNL     1       4.550   6.850  17.825  0.00  0.00    +0.000 C 
BRANCH   4  11
ATOM     11  C   UNL     1       3.635   3.617  19.843  0.00  0.00    +0.000 C 
ATOM     12  C   UNL     1       2.095   3.629  19.951  0.00  0.00    +0.000 C 
ATOM     13  C   UNL     1       1.385   3.046  18.735  0.00  0.00    +0.000 C 
ATOM     14  C   UNL     1       1.891   1.656  18.376  0.00  0.00    +0.000 C 
ATOM     15  C   UNL     1       3.413   1.592  18.318  0.00  0.00    +0.000 C 
ATOM     16  C   UNL     1       4.055   2.155  19.588  0.00  0.00    +0.000 C 
ENDBRANCH   4  11
ENDBRANCH   1   8
BRANCH   1  17
ATOM     17  S   UNL     1       0.952  10.279  18.732  0.00  0.00    +0.000 S 
ATOM     18  O   UNL     1       1.507  11.604  18.543  0.00  0.00    +0.000 OA
ATOM     19  O   UNL     1      -0.052   9.770  17.830  0.00  0.00    +0.000 OA
BRANCH  17  20
ATOM     20  C   UNL     1       0.395  10.202  20.439  0.00  0.00    +0.000 A 
ATOM     21  C   UNL     1       1.066   9.248  21.231  0.00  0.00    +0.000 A 
ATOM     22  C   UNL     1       0.747   9.090  22.575  0.00  0.00    +0.000 A 
ATOM     23  C   UNL     1      -0.231   9.895  23.144  0.00  0.00    +0.000 A 
ATOM     24  C   UNL     1      -0.915  10.856  22.381  0.00  0.00    +0.000 A 
ATOM     25  C   UNL     1      -1.898  11.650  22.980  0.00  0.00    +0.000 A 
ATOM     26  N   UNL     1      -2.640  12.577  22.344  0.00  0.00    +0.000 NA
ATOM     27  C   UNL     1      -2.383  12.739  21.037  0.00  0.00    +0.000 A 
ATOM     28  C   UNL     1      -1.415  12.018  20.345  0.00  0.00    +0.000 A 
ATOM     29  C   UNL     1      -0.630  11.035  21.002  0.00  0.00    +0.000 A 
ENDBRANCH  17  20
ENDBRANCH   1  17
TORSDOF 4
ENDMDL
