MODEL 1
REMARK VINA RESULT:      -8.2      0.000      0.000
REMARK  Name = 
REMARK  4 active torsions:
REMARK  status: ('A' for Active; 'I' for Inactive)
REMARK    1  A    between atoms: C_4  and  C_5
REMARK    2  A    between atoms: C_5  and  C_6
REMARK    3  A    between atoms: C_9  and  C_10
REMARK    4  A    between atoms: N_21  and  O_22
REMARK                            x       y       z     vdW  Elec       q    Type
REMARK                         _______ _______ _______ _____ _____    ______ ____
ROOT
ATOM      1  C   UNL     1       3.179   7.287  17.453  0.00  0.00    +0.000 C 
ENDROOT
BRANCH   1   5
ATOM      2  O   UNL     1       2.514   2.644  18.600  0.00  0.00    +0.000 OA
ATOM      3  C   UNL     1       3.290   3.596  18.579  0.00  0.00    +0.000 A 
ATOM      4  C   UNL     1       2.825   4.882  18.010  0.00  0.00    +0.000 A 
ATOM      5  C   UNL     1       3.634   5.951  17.991  0.00  0.00    +0.000 A 
ATOM      6  N   UNL     1       4.905   5.854  18.513  0.00  0.00    +0.000 N 
ATOM      7  C   UNL     1       5.432   4.703  19.040  0.00  0.00    +0.000 A 
ATOM      8  O   UNL     1       6.578   4.660  19.489  0.00  0.00    +0.000 OA
ATOM      9  N   UNL     1       4.586   3.613  19.041  0.00  0.00    +0.000 N 
ATOM     10  H   UNL     1       5.530   6.653  18.494  0.00  0.00    +0.000 HD
BRANCH   9  11
ATOM     11  O   UNL     1       5.096   2.415  19.583  0.00  0.00    +0.000 OA
ATOM     12  H   UNL     1       5.769   2.748  20.209  0.00  0.00    +0.000 HD
ENDBRANCH   9  11
ENDBRANCH   1   5
BRANCH   1  13
ATOM     13  C   UNL     1       2.264   8.051  18.378  0.00  0.00    +0.000 A 
ATOM     14  C   UNL     1       2.121   7.686  19.722  0.00  0.00    +0.000 A 
ATOM     15  C   UNL     1       1.307   8.437  20.583  0.00  0.00    +0.000 A 
ATOM     16  C   UNL     1       0.613   9.574  20.133  0.00  0.00    +0.000 A 
ATOM     17  C   UNL     1       0.760   9.910  18.775  0.00  0.00    +0.000 A 
ATOM     18  C   UNL     1       1.559   9.161  17.908  0.00  0.00    +0.000 A 
BRANCH  16  19
ATOM     19  C   UNL     1      -0.225  10.406  21.034  0.00  0.00    +0.000 A 
ATOM     20  C   UNL     1      -0.901  11.554  20.582  0.00  0.00    +0.000 A 
ATOM     21  C   UNL     1      -1.726  12.299  21.434  0.00  0.00    +0.000 A 
ATOM     22  C   UNL     1      -1.904  11.907  22.756  0.00  0.00    +0.000 A 
ATOM     23  C   UNL     1      -1.242  10.784  23.235  0.00  0.00    +0.000 A 
ATOM     24  C   UNL     1      -0.406  10.053  22.386  0.00  0.00    +0.000 A 
ENDBRANCH  16  19
ENDBRANCH   1  13
TORSDOF 4
ENDMDL
MODEL 2
REMARK VINA RESULT:      -8.2      0.105      1.028
REMARK  Name = 
REMARK  4 active torsions:
REMARK  status: ('A' for Active; 'I' for Inactive)
REMARK    1  A    between atoms: C_4  and  C_5
REMARK    2  A    between atoms: C_5  and  C_6
REMARK    3  A    between atoms: C_9  and  C_10
REMARK    4  A    between atoms: N_21  and  O_22
REMARK                            x       y       z     vdW  Elec       q    Type
REMARK                         _______ _______ _______ _____ _____    ______ ____
ROOT
ATOM      1  C   UNL     1       3.267   7.390  17.465  0.00  0.00    +0.000 C 
ENDROOT
BRANCH   1   5
ATOM      2  O   UNL     1       2.544   2.730  18.502  0.00  0.00    +0.000 OA
ATOM      3  C   UNL     1       3.329   3.675  18.512  0.00  0.00    +0.000 A 
ATOM      4  C   UNL     1       2.884   4.977  17.965  0.00  0.00    +0.000 A 
ATOM      5  C   UNL     1       3.703   6.039  17.980  0.00  0.00    +0.000 A 
ATOM      6  N   UNL     1       4.965   5.918  18.515  0.00  0.00    +0.000 N 
ATOM      7  C   UNL     1       5.475   4.752  19.025  0.00  0.00    +0.000 A 
ATOM      8  O   UNL     1       6.615   4.687  19.487  0.00  0.00    +0.000 OA
ATOM      9  N   UNL     1       4.619   3.670  18.991  0.00  0.00    +0.000 N 
ATOM     10  H   UNL     1       5.598   6.711  18.522  0.00  0.00    +0.000 HD
BRANCH   9  11
ATOM     11  O   UNL     1       5.110   2.455  19.513  0.00  0.00    +0.000 OA
ATOM     12  H   UNL     1       5.035   1.859  18.742  0.00  0.00    +0.000 HD
ENDBRANCH   9  11
ENDBRANCH   1   5
BRANCH   1  13
ATOM     13  C   UNL     1       2.307   8.121  18.370  0.00  0.00    +0.000 A 
ATOM     14  C   UNL     1       2.108   7.716  19.696  0.00  0.00    +0.000 A 
ATOM     15  C   UNL     1       1.252   8.436  20.542  0.00  0.00    +0.000 A 
ATOM     16  C   UNL     1       0.569   9.581  20.095  0.00  0.00    +0.000 A 
ATOM     17  C   UNL     1       0.772   9.958  18.754  0.00  0.00    +0.000 A 
ATOM     18  C   UNL     1       1.614   9.239  17.902  0.00  0.00    +0.000 A 
BRANCH  16  19
ATOM     19  C   UNL     1      -0.314  10.380  20.981  0.00  0.00    +0.000 A 
ATOM     20  C   UNL     1      -0.442  10.109  22.356  0.00  0.00    +0.000 A 
ATOM     21  C   UNL     1      -1.242  10.903  23.187  0.00  0.00    +0.000 A 
ATOM     22  C   UNL     1      -1.927  11.995  22.665  0.00  0.00    +0.000 A 
ATOM     23  C   UNL     1      -1.829  12.283  21.309  0.00  0.00    +0.000 A 
ATOM     24  C   UNL     1      -1.043  11.477  20.480  0.00  0.00    +0.000 A 
ENDBRANCH  16  19
ENDBRANCH   1  13
TORSDOF 4
ENDMDL
MODEL 3
REMARK VINA RESULT:      -8.2      0.150      1.032
REMARK  Name = 
REMARK  4 active torsions:
REMARK  status: ('A' for Active; 'I' for Inactive)
REMARK    1  A    between atoms: C_4  and  C_5
REMARK    2  A    between atoms: C_5  and  C_6
REMARK    3  A    between atoms: C_9  and  C_10
REMARK    4  A    between atoms: N_21  and  O_22
REMARK                            x       y       z     vdW  Elec       q    Type
REMARK                         _______ _______ _______ _____ _____    ______ ____
ROOT
ATOM      1  C   UNL     1       3.138   7.171  17.390  0.00  0.00    +0.000 C 
ENDROOT
BRANCH   1   5
ATOM      2  O   UNL     1       2.548   2.564  18.708  0.00  0.00    +0.000 OA
ATOM      3  C   UNL     1       3.309   3.526  18.648  0.00  0.00    +0.000 A 
ATOM      4  C   UNL     1       2.823   4.784  18.036  0.00  0.00    +0.000 A 
ATOM      5  C   UNL     1       3.616   5.863  17.974  0.00  0.00    +0.000 A 
ATOM      6  N   UNL     1       4.890   5.803  18.491  0.00  0.00    +0.000 N 
ATOM      7  C   UNL     1       5.437   4.680  19.057  0.00  0.00    +0.000 A 
ATOM      8  O   UNL     1       6.586   4.669  19.500  0.00  0.00    +0.000 OA
ATOM      9  N   UNL     1       4.607   3.578  19.102  0.00  0.00    +0.000 N 
ATOM     10  H   UNL     1       5.504   6.610  18.440  0.00  0.00    +0.000 HD
BRANCH   9  11
ATOM     11  O   UNL     1       5.137   2.408  19.684  0.00  0.00    +0.000 OA
ATOM     12  H   UNL     1       4.708   2.408  20.563  0.00  0.00    +0.000 HD
ENDBRANCH   9  11
ENDBRANCH   1   5
BRANCH   1  13
ATOM     13  C   UNL     1       2.341   8.024  18.346  0.00  0.00    +0.000 A 
ATOM     14  C   UNL     1       1.747   9.221  17.928  0.00  0.00    +0.000 A 
ATOM     15  C   UNL     1       0.965   9.978  18.813  0.00  0.00    +0.000 A 
ATOM     16  C   UNL     1       0.750   9.566  20.140  0.00  0.00    +0.000 A 
ATOM     17  C   UNL     1       1.372   8.369  20.541  0.00  0.00    +0.000 A 
ATOM     18  C   UNL     1       2.161   7.616  19.669  0.00  0.00    +0.000 A 
BRANCH  16  19
ATOM     19  C   UNL     1      -0.102  10.331  21.085  0.00  0.00    +0.000 A 
ATOM     20  C   UNL     1      -0.782  11.502  20.703  0.00  0.00    +0.000 A 
ATOM     21  C   UNL     1      -1.621  12.184  21.593  0.00  0.00    +0.000 A 
ATOM     22  C   UNL     1      -1.807  11.706  22.886  0.00  0.00    +0.000 A 
ATOM     23  C   UNL     1      -1.140  10.559  23.297  0.00  0.00    +0.000 A 
ATOM     24  C   UNL     1      -0.291   9.891  22.410  0.00  0.00    +0.000 A 
ENDBRANCH  16  19
ENDBRANCH   1  13
TORSDOF 4
ENDMDL
MODEL 4
REMARK VINA RESULT:      -8.1      0.917      1.173
REMARK  Name = 
REMARK  4 active torsions:
REMARK  status: ('A' for Active; 'I' for Inactive)
REMARK    1  A    between atoms: C_4  and  C_5
REMARK    2  A    between atoms: C_5  and  C_6
REMARK    3  A    between atoms: C_9  and  C_10
REMARK    4  A    between atoms: N_21  and  O_22
REMARK                            x       y       z     vdW  Elec       q    Type
REMARK                         _______ _______ _______ _____ _____    ______ ____
ROOT
ATOM      1  C   UNL     1       3.232   6.849  17.909  0.00  0.00    +0.000 C 
ENDROOT
BRANCH   1   5
ATOM      2  O   UNL     1       0.753   2.706  17.941  0.00  0.00    +0.000 OA
ATOM      3  C   UNL     1       1.812   3.272  18.202  0.00  0.00    +0.000 A 
ATOM      4  C   UNL     1       1.946   4.713  17.889  0.00  0.00    +0.000 A 
ATOM      5  C   UNL     1       3.077   5.372  18.180  0.00  0.00    +0.000 A 
ATOM      6  N   UNL     1       4.120   4.703  18.782  0.00  0.00    +0.000 N 
ATOM      7  C   UNL     1       4.099   3.367  19.090  0.00  0.00    +0.000 A 
ATOM      8  O   UNL     1       5.059   2.808  19.621  0.00  0.00    +0.000 OA
ATOM      9  N   UNL     1       2.929   2.707  18.772  0.00  0.00    +0.000 N 
ATOM     10  H   UNL     1       4.985   5.188  18.996  0.00  0.00    +0.000 HD
BRANCH   9  11
ATOM     11  O   UNL     1       2.873   1.332  19.082  0.00  0.00    +0.000 OA
ATOM     12  H   UNL     1       3.343   0.935  18.322  0.00  0.00    +0.000 HD
ENDBRANCH   9  11
ENDBRANCH   1   5
BRANCH   1  13
ATOM     13  C   UNL     1       2.320   7.731  18.726  0.00  0.00    +0.000 A 
ATOM     14  C   UNL     1       2.057   7.453  20.072  0.00  0.00    +0.000 A 
ATOM     15  C   UNL     1       1.248   8.310  20.833  0.00  0.00    +0.000 A 
ATOM     16  C   UNL     1       0.678   9.470  20.278  0.00  0.00    +0.000 A 
ATOM     17  C   UNL     1       0.944   9.717  18.918  0.00  0.00    +0.000 A 
ATOM     18  C   UNL     1       1.739   8.862  18.151  0.00  0.00    +0.000 A 
BRANCH  16  19
ATOM     19  C   UNL     1      -0.152  10.410  21.072  0.00  0.00    +0.000 A 
ATOM     20  C   UNL     1      -0.690  11.586  20.519  0.00  0.00    +0.000 A 
ATOM     21  C   UNL     1      -1.511  12.438  21.270  0.00  0.00    +0.000 A 
ATOM     22  C   UNL     1      -1.821  12.128  22.590  0.00  0.00    +0.000 A 
ATOM     23  C   UNL     1      -1.296  10.979  23.168  0.00  0.00    +0.000 A 
ATOM     24  C   UNL     1      -0.463  10.141  22.420  0.00  0.00    +0.000 A 
ENDBRANCH  16  19
ENDBRANCH   1  13
TORSDOF 4
ENDMDL
MODEL 5
REMARK VINA RESULT:      -8.1      2.183      3.031
REMARK  Name = 
REMARK  4 active torsions:
REMARK  status: ('A' for Active; 'I' for Inactive)
REMARK    1  A    between atoms: C_4  and  C_5
REMARK    2  A    between atoms: C_5  and  C_6
REMARK    3  A    between atoms: C_9  and  C_10
REMARK    4  A    between atoms: N_21  and  O_22
REMARK                            x       y       z     vdW  Elec       q    Type
REMARK                         _______ _______ _______ _____ _____    ______ ____
ROOT
ATOM      1  C   UNL     1       3.238   3.924  18.688  0.00  0.00    +0.000 C 
ENDROOT
BRANCH   1   5
ATOM      2  O   UNL     1       5.329   4.316  14.353  0.00  0.00    +0.000 OA
ATOM      3  C   UNL     1       5.483   4.314  15.572  0.00  0.00    +0.000 A 
ATOM      4  C   UNL     1       4.295   4.154  16.441  0.00  0.00    +0.000 A 
ATOM      5  C   UNL     1       4.425   4.123  17.775  0.00  0.00    +0.000 A 
ATOM      6  N   UNL     1       5.675   4.232  18.341  0.00  0.00    +0.000 N 
ATOM      7  C   UNL     1       6.830   4.404  17.622  0.00  0.00    +0.000 A 
ATOM      8  O   UNL     1       7.928   4.506  18.172  0.00  0.00    +0.000 OA
ATOM      9  N   UNL     1       6.672   4.444  16.252  0.00  0.00    +0.000 N 
ATOM     10  H   UNL     1       5.785   4.221  19.349  0.00  0.00    +0.000 HD
BRANCH   9  11
ATOM     11  O   UNL     1       7.843   4.613  15.483  0.00  0.00    +0.000 OA
ATOM     12  H   UNL     1       8.427   5.085  16.109  0.00  0.00    +0.000 HD
ENDBRANCH   9  11
ENDBRANCH   1   5
BRANCH   1  13
ATOM     13  C   UNL     1       2.687   5.198  19.279  0.00  0.00    +0.000 A 
ATOM     14  C   UNL     1       2.855   6.429  18.634  0.00  0.00    +0.000 A 
ATOM     15  C   UNL     1       2.293   7.598  19.169  0.00  0.00    +0.000 A 
ATOM     16  C   UNL     1       1.547   7.576  20.361  0.00  0.00    +0.000 A 
ATOM     17  C   UNL     1       1.407   6.329  20.998  0.00  0.00    +0.000 A 
ATOM     18  C   UNL     1       1.973   5.163  20.478  0.00  0.00    +0.000 A 
BRANCH  16  19
ATOM     19  C   UNL     1       0.912   8.793  20.927  0.00  0.00    +0.000 A 
ATOM     20  C   UNL     1       0.646   9.933  20.147  0.00  0.00    +0.000 A 
ATOM     21  C   UNL     1       0.002  11.054  20.686  0.00  0.00    +0.000 A 
ATOM     22  C   UNL     1      -0.399  11.059  22.017  0.00  0.00    +0.000 A 
ATOM     23  C   UNL     1      -0.140   9.952  22.817  0.00  0.00    +0.000 A 
ATOM     24  C   UNL     1       0.517   8.842  22.279  0.00  0.00    +0.000 A 
ENDBRANCH  16  19
ENDBRANCH   1  13
TORSDOF 4
ENDMDL
MODEL 6
REMARK VINA RESULT:      -8.1      2.167      3.194
REMARK  Name = 
REMARK  4 active torsions:
REMARK  status: ('A' for Active; 'I' for Inactive)
REMARK    1  A    between atoms: C_4  and  C_5
REMARK    2  A    between atoms: C_5  and  C_6
REMARK    3  A    between atoms: C_9  and  C_10
REMARK    4  A    between atoms: N_21  and  O_22
REMARK                            x       y       z     vdW  Elec       q    Type
REMARK                         _______ _______ _______ _____ _____    ______ ____
ROOT
ATOM      1  C   UNL     1       3.312   3.894  18.792  0.00  0.00    +0.000 C 
ENDROOT
BRANCH   1   5
ATOM      2  O   UNL     1       5.383   4.290  14.448  0.00  0.00    +0.000 OA
ATOM      3  C   UNL     1       5.542   4.294  15.666  0.00  0.00    +0.000 A 
ATOM      4  C   UNL     1       4.358   4.126  16.541  0.00  0.00    +0.000 A 
ATOM      5  C   UNL     1       4.493   4.101  17.874  0.00  0.00    +0.000 A 
ATOM      6  N   UNL     1       5.745   4.226  18.435  0.00  0.00    +0.000 N 
ATOM      7  C   UNL     1       6.895   4.407  17.711  0.00  0.00    +0.000 A 
ATOM      8  O   UNL     1       7.994   4.522  18.256  0.00  0.00    +0.000 OA
ATOM      9  N   UNL     1       6.731   4.439  16.341  0.00  0.00    +0.000 N 
ATOM     10  H   UNL     1       5.858   4.220  19.443  0.00  0.00    +0.000 HD
BRANCH   9  11
ATOM     11  O   UNL     1       7.897   4.618  15.567  0.00  0.00    +0.000 OA
ATOM     12  H   UNL     1       7.525   4.878  14.701  0.00  0.00    +0.000 HD
ENDBRANCH   9  11
ENDBRANCH   1   5
BRANCH   1  13
ATOM     13  C   UNL     1       2.729   5.167  19.353  0.00  0.00    +0.000 A 
ATOM     14  C   UNL     1       2.875   6.388  18.684  0.00  0.00    +0.000 A 
ATOM     15  C   UNL     1       2.283   7.555  19.190  0.00  0.00    +0.000 A 
ATOM     16  C   UNL     1       1.526   7.541  20.376  0.00  0.00    +0.000 A 
ATOM     17  C   UNL     1       1.409   6.305  21.038  0.00  0.00    +0.000 A 
ATOM     18  C   UNL     1       2.005   5.141  20.546  0.00  0.00    +0.000 A 
BRANCH  16  19
ATOM     19  C   UNL     1       0.861   8.755  20.912  0.00  0.00    +0.000 A 
ATOM     20  C   UNL     1       0.333   8.808  22.215  0.00  0.00    +0.000 A 
ATOM     21  C   UNL     1      -0.248   9.978  22.721  0.00  0.00    +0.000 A 
ATOM     22  C   UNL     1      -0.307  11.126  21.939  0.00  0.00    +0.000 A 
ATOM     23  C   UNL     1       0.195  11.102  20.644  0.00  0.00    +0.000 A 
ATOM     24  C   UNL     1       0.759   9.928  20.137  0.00  0.00    +0.000 A 
ENDBRANCH  16  19
ENDBRANCH   1  13
TORSDOF 4
ENDMDL
MODEL 7
REMARK VINA RESULT:      -8.1      0.781      1.690
REMARK  Name = 
REMARK  4 active torsions:
REMARK  status: ('A' for Active; 'I' for Inactive)
REMARK    1  A    between atoms: C_4  and  C_5
REMARK    2  A    between atoms: C_5  and  C_6
REMARK    3  A    between atoms: C_9  and  C_10
REMARK    4  A    between atoms: N_21  and  O_22
REMARK                            x       y       z     vdW  Elec       q    Type
REMARK                         _______ _______ _______ _____ _____    ______ ____
ROOT
ATOM      1  C   UNL     1       3.153   7.140  17.626  0.00  0.00    +0.000 C 
ENDROOT
BRANCH   1   5
ATOM      2  O   UNL     1       1.044   2.823  18.102  0.00  0.00    +0.000 OA
ATOM      3  C   UNL     1       2.063   3.491  18.256  0.00  0.00    +0.000 A 
ATOM      4  C   UNL     1       2.055   4.911  17.836  0.00  0.00    +0.000 A 
ATOM      5  C   UNL     1       3.140   5.679  18.008  0.00  0.00    +0.000 A 
ATOM      6  N   UNL     1       4.269   5.144  18.589  0.00  0.00    +0.000 N 
ATOM      7  C   UNL     1       4.379   3.838  18.990  0.00  0.00    +0.000 A 
ATOM      8  O   UNL     1       5.413   3.400  19.498  0.00  0.00    +0.000 OA
ATOM      9  N   UNL     1       3.255   3.063  18.794  0.00  0.00    +0.000 N 
ATOM     10  H   UNL     1       5.100   5.713  18.715  0.00  0.00    +0.000 HD
BRANCH   9  11
ATOM     11  O   UNL     1       3.334   1.715  19.202  0.00  0.00    +0.000 OA
ATOM     12  H   UNL     1       3.192   1.789  20.167  0.00  0.00    +0.000 HD
ENDBRANCH   9  11
ENDBRANCH   1   5
BRANCH   1  13
ATOM     13  C   UNL     1       2.298   8.020  18.503  0.00  0.00    +0.000 A 
ATOM     14  C   UNL     1       1.682   9.171  17.997  0.00  0.00    +0.000 A 
ATOM     15  C   UNL     1       0.848   9.952  18.811  0.00  0.00    +0.000 A 
ATOM     16  C   UNL     1       0.601   9.611  20.153  0.00  0.00    +0.000 A 
ATOM     17  C   UNL     1       1.246   8.460  20.643  0.00  0.00    +0.000 A 
ATOM     18  C   UNL     1       2.087   7.684  19.842  0.00  0.00    +0.000 A 
BRANCH  16  19
ATOM     19  C   UNL     1      -0.305  10.401  21.023  0.00  0.00    +0.000 A 
ATOM     20  C   UNL     1      -0.472  10.114  22.390  0.00  0.00    +0.000 A 
ATOM     21  C   UNL     1      -1.294  10.900  23.207  0.00  0.00    +0.000 A 
ATOM     22  C   UNL     1      -1.962  11.999  22.679  0.00  0.00    +0.000 A 
ATOM     23  C   UNL     1      -1.826  12.302  21.330  0.00  0.00    +0.000 A 
ATOM     24  C   UNL     1      -1.018  11.505  20.514  0.00  0.00    +0.000 A 
ENDBRANCH  16  19
ENDBRANCH   1  13
TORSDOF 4
ENDMDL
MODEL 8
REMARK VINA RESULT:      -8.1      4.575      8.744
REMARK  Name = 
REMARK  4 active torsions:
REMARK  status: ('A' for Active; 'I' for Inactive)
REMARK    1  A    between atoms: C_4  and  C_5
REMARK    2  A    between atoms: C_5  and  C_6
REMARK    3  A    between atoms: C_9  and  C_10
REMARK    4  A    between atoms: N_21  and  O_22
REMARK                            x       y       z     vdW  Elec       q    Type
REMARK                         _______ _______ _______ _____ _____    ______ ____
ROOT
ATOM      1  C   UNL     1       3.497   5.601  19.578  0.00  0.00    +0.000 C 
ENDROOT
BRANCH   1   5
ATOM      2  O   UNL     1       1.724   9.544  17.428  0.00  0.00    +0.000 OA
ATOM      3  C   UNL     1       1.781   8.870  18.454  0.00  0.00    +0.000 A 
ATOM      4  C   UNL     1       2.567   7.615  18.441  0.00  0.00    +0.000 A 
ATOM      5  C   UNL     1       2.672   6.865  19.547  0.00  0.00    +0.000 A 
ATOM      6  N   UNL     1       2.050   7.269  20.707  0.00  0.00    +0.000 N 
ATOM      7  C   UNL     1       1.284   8.402  20.812  0.00  0.00    +0.000 A 
ATOM      8  O   UNL     1       0.738   8.721  21.869  0.00  0.00    +0.000 OA
ATOM      9  N   UNL     1       1.181   9.153  19.659  0.00  0.00    +0.000 N 
ATOM     10  H   UNL     1       2.113   6.704  21.547  0.00  0.00    +0.000 HD
BRANCH   9  11
ATOM     11  O   UNL     1       0.404  10.329  19.736  0.00  0.00    +0.000 OA
ATOM     12  H   UNL     1       0.934  10.955  19.202  0.00  0.00    +0.000 HD
ENDBRANCH   9  11
ENDBRANCH   1   5
BRANCH   1  13
ATOM     13  C   UNL     1       4.185   5.274  18.275  0.00  0.00    +0.000 A 
ATOM     14  C   UNL     1       3.708   4.260  17.437  0.00  0.00    +0.000 A 
ATOM     15  C   UNL     1       4.326   4.002  16.204  0.00  0.00    +0.000 A 
ATOM     16  C   UNL     1       5.436   4.747  15.768  0.00  0.00    +0.000 A 
ATOM     17  C   UNL     1       5.907   5.750  16.636  0.00  0.00    +0.000 A 
ATOM     18  C   UNL     1       5.304   6.004  17.870  0.00  0.00    +0.000 A 
BRANCH  16  19
ATOM     19  C   UNL     1       6.085   4.517  14.453  0.00  0.00    +0.000 A 
ATOM     20  C   UNL     1       5.566   3.612  13.508  0.00  0.00    +0.000 A 
ATOM     21  C   UNL     1       6.164   3.444  12.253  0.00  0.00    +0.000 A 
ATOM     22  C   UNL     1       7.290   4.183  11.907  0.00  0.00    +0.000 A 
ATOM     23  C   UNL     1       7.832   5.077  12.822  0.00  0.00    +0.000 A 
ATOM     24  C   UNL     1       7.242   5.230  14.081  0.00  0.00    +0.000 A 
ENDBRANCH  16  19
ENDBRANCH   1  13
TORSDOF 4
ENDMDL
MODEL 9
REMARK VINA RESULT:      -8.1      2.428      2.994
REMARK  Name = 
REMARK  4 active torsions:
REMARK  status: ('A' for Active; 'I' for Inactive)
REMARK    1  A    between atoms: C_4  and  C_5
REMARK    2  A    between atoms: C_5  and  C_6
REMARK    3  A    between atoms: C_9  and  C_10
REMARK    4  A    between atoms: N_21  and  O_22
REMARK                            x       y       z     vdW  Elec       q    Type
REMARK                         _______ _______ _______ _____ _____    ______ ____
ROOT
ATOM      1  C   UNL     1       3.109   5.365  19.594  0.00  0.00    +0.000 C 
ENDROOT
BRANCH   1   5
ATOM      2  O   UNL     1       5.592   3.784  15.767  0.00  0.00    +0.000 OA
ATOM      3  C   UNL     1       5.641   4.287  16.887  0.00  0.00    +0.000 A 
ATOM      4  C   UNL     1       4.372   4.572  17.596  0.00  0.00    +0.000 A 
ATOM      5  C   UNL     1       4.383   5.098  18.829  0.00  0.00    +0.000 A 
ATOM      6  N   UNL     1       5.585   5.368  19.443  0.00  0.00    +0.000 N 
ATOM      7  C   UNL     1       6.808   5.160  18.861  0.00  0.00    +0.000 A 
ATOM      8  O   UNL     1       7.860   5.425  19.446  0.00  0.00    +0.000 OA
ATOM      9  N   UNL     1       6.773   4.628  17.589  0.00  0.00    +0.000 N 
ATOM     10  H   UNL     1       5.606   5.777  20.372  0.00  0.00    +0.000 HD
BRANCH   9  11
ATOM     11  O   UNL     1       8.017   4.395  16.964  0.00  0.00    +0.000 OA
ATOM     12  H   UNL     1       7.859   3.541  16.514  0.00  0.00    +0.000 HD
ENDBRANCH   9  11
ENDBRANCH   1   5
BRANCH   1  13
ATOM     13  C   UNL     1       2.527   6.740  19.373  0.00  0.00    +0.000 A 
ATOM     14  C   UNL     1       2.562   7.349  18.114  0.00  0.00    +0.000 A 
ATOM     15  C   UNL     1       1.971   8.605  17.911  0.00  0.00    +0.000 A 
ATOM     16  C   UNL     1       1.328   9.292  18.956  0.00  0.00    +0.000 A 
ATOM     17  C   UNL     1       1.322   8.667  20.217  0.00  0.00    +0.000 A 
ATOM     18  C   UNL     1       1.918   7.421  20.428  0.00  0.00    +0.000 A 
BRANCH  16  19
ATOM     19  C   UNL     1       0.665  10.606  18.758  0.00  0.00    +0.000 A 
ATOM     20  C   UNL     1       1.374  11.820  18.812  0.00  0.00    +0.000 A 
ATOM     21  C   UNL     1       0.742  13.047  18.574  0.00  0.00    +0.000 A 
ATOM     22  C   UNL     1      -0.614  13.089  18.268  0.00  0.00    +0.000 A 
ATOM     23  C   UNL     1      -1.344  11.908  18.219  0.00  0.00    +0.000 A 
ATOM     24  C   UNL     1      -0.712  10.687  18.473  0.00  0.00    +0.000 A 
ENDBRANCH  16  19
ENDBRANCH   1  13
TORSDOF 4
ENDMDL
