MODEL 1
REMARK VINA RESULT:      -7.3      0.000      0.000
REMARK  Name = 
REMARK  5 active torsions:
REMARK  status: ('A' for Active; 'I' for Inactive)
REMARK    1  A    between atoms: C_1  and  O_2
REMARK    2  A    between atoms: O_2  and  C_3
REMARK    3  A    between atoms: C_5  and  N_6
REMARK    4  A    between atoms: C_10  and  C_11
REMARK    5  A    between atoms: N_13  and  C_14
REMARK                            x       y       z     vdW  Elec       q    Type
REMARK                         _______ _______ _______ _____ _____    ______ ____
ROOT
ATOM      1  C   UNL     1       5.553   4.340  17.937  0.00  0.00    +0.000 C 
ATOM      2  O   UNL     1       6.343   3.975  18.803  0.00  0.00    +0.000 OA
ATOM      3  N   UNL     1       4.213   4.508  18.199  0.00  0.00    +0.000 N 
ATOM      4  H   UNL     1       3.610   4.755  17.422  0.00  0.00    +0.000 HD
ENDROOT
BRANCH   3   5
ATOM      5  C   UNL     1       3.642   4.414  19.550  0.00  0.00    +0.000 C 
ATOM      6  C   UNL     1       2.459   5.390  19.683  0.00  0.00    +0.000 C 
ATOM      7  C   UNL     1       1.288   4.966  20.570  0.00  0.00    +0.000 C 
ATOM      8  N   UNL     1       1.153   3.545  20.869  0.00  0.00    +0.000 NA
ATOM      9  C   UNL     1       0.491   2.759  19.825  0.00  0.00    +0.000 C 
ATOM     10  C   UNL     1       1.350   2.356  18.620  0.00  0.00    +0.000 C 
ATOM     11  C   UNL     1       2.791   2.019  18.977  0.00  0.00    +0.000 C 
ATOM     12  C   UNL     1       3.382   2.964  20.029  0.00  0.00    +0.000 C 
ATOM     13  C   UNL     1       2.447   2.975  21.242  0.00  0.00    +0.000 C 
ENDBRANCH   3   5
BRANCH   1  20
ATOM     14  C   UNL     1       7.182   5.482  16.278  0.00  0.00    +0.000 A 
ATOM     15  C   UNL     1       7.676   5.530  14.960  0.00  0.00    +0.000 A 
ATOM     16  C   UNL     1       6.985   4.946  13.891  0.00  0.00    +0.000 A 
ATOM     17  C   UNL     1       5.819   4.213  14.190  0.00  0.00    +0.000 A 
ATOM     18 CL   UNL     1       4.913   3.466  12.920  0.00  0.00    +0.000 Cl
ATOM     19  C   UNL     1       5.362   4.084  15.500  0.00  0.00    +0.000 A 
ATOM     20  C   UNL     1       6.057   4.689  16.564  0.00  0.00    +0.000 A 
BRANCH  16  21
ATOM     21  N   UNL     1       7.586   4.903  12.624  0.00  0.00    +0.000 N 
ATOM     22  H   UNL     1       8.181   4.100  12.453  0.00  0.00    +0.000 HD
ATOM     23  H   UNL     1       8.017   5.786  12.357  0.00  0.00    +0.000 HD
ENDBRANCH  16  21
BRANCH  14  25
ATOM     24  C   UNL     1       7.471   7.520  17.457  0.00  0.00    +0.000 C 
ATOM     25  O   UNL     1       7.822   6.140  17.298  0.00  0.00    +0.000 OA
ENDBRANCH  14  25
ENDBRANCH   1  20
TORSDOF 4
ENDMDL
MODEL 2
REMARK VINA RESULT:      -7.2      1.079      1.810
REMARK  Name = 
REMARK  5 active torsions:
REMARK  status: ('A' for Active; 'I' for Inactive)
REMARK    1  A    between atoms: C_1  and  O_2
REMARK    2  A    between atoms: O_2  and  C_3
REMARK    3  A    between atoms: C_5  and  N_6
REMARK    4  A    between atoms: C_10  and  C_11
REMARK    5  A    between atoms: N_13  and  C_14
REMARK                            x       y       z     vdW  Elec       q    Type
REMARK                         _______ _______ _______ _____ _____    ______ ____
ROOT
ATOM      1  C   UNL     1       4.856   3.895  18.071  0.00  0.00    +0.000 C 
ATOM      2  O   UNL     1       4.808   4.471  19.154  0.00  0.00    +0.000 OA
ATOM      3  N   UNL     1       4.172   2.725  17.840  0.00  0.00    +0.000 N 
ATOM      4  H   UNL     1       4.304   2.273  16.941  0.00  0.00    +0.000 HD
ENDROOT
BRANCH   3   5
ATOM      5  C   UNL     1       3.219   2.149  18.799  0.00  0.00    +0.000 C 
ATOM      6  C   UNL     1       3.694   2.433  20.236  0.00  0.00    +0.000 C 
ATOM      7  C   UNL     1       2.622   2.669  21.301  0.00  0.00    +0.000 C 
ATOM      8  N   UNL     1       1.289   3.040  20.841  0.00  0.00    +0.000 NA
ATOM      9  C   UNL     1       1.122   4.462  20.529  0.00  0.00    +0.000 C 
ATOM     10  C   UNL     1       1.650   4.934  19.170  0.00  0.00    +0.000 C 
ATOM     11  C   UNL     1       1.461   3.920  18.050  0.00  0.00    +0.000 C 
ATOM     12  C   UNL     1       1.736   2.480  18.497  0.00  0.00    +0.000 C 
ATOM     13  C   UNL     1       0.875   2.187  19.728  0.00  0.00    +0.000 C 
ENDBRANCH   3   5
BRANCH   1  20
ATOM     14  C   UNL     1       6.547   5.562  17.034  0.00  0.00    +0.000 A 
ATOM     15  C   UNL     1       7.361   5.875  15.928  0.00  0.00    +0.000 A 
ATOM     16  C   UNL     1       7.163   5.283  14.675  0.00  0.00    +0.000 A 
ATOM     17  C   UNL     1       6.182   4.278  14.575  0.00  0.00    +0.000 A 
ATOM     18 CL   UNL     1       5.881   3.505  13.057  0.00  0.00    +0.000 Cl
ATOM     19  C   UNL     1       5.423   3.896  15.679  0.00  0.00    +0.000 A 
ATOM     20  C   UNL     1       5.620   4.508  16.931  0.00  0.00    +0.000 A 
BRANCH  16  21
ATOM     21  N   UNL     1       8.085   5.527  13.646  0.00  0.00    +0.000 N 
ATOM     22  H   UNL     1       7.828   6.264  12.998  0.00  0.00    +0.000 HD
ATOM     23  H   UNL     1       8.399   4.676  13.181  0.00  0.00    +0.000 HD
ENDBRANCH  16  21
BRANCH  14  25
ATOM     24  C   UNL     1       7.907   5.950  18.938  0.00  0.00    +0.000 C 
ATOM     25  O   UNL     1       6.692   6.220  18.230  0.00  0.00    +0.000 OA
ENDBRANCH  14  25
ENDBRANCH   1  20
TORSDOF 4
ENDMDL
MODEL 3
REMARK VINA RESULT:      -6.8      1.245      1.261
REMARK  Name = 
REMARK  5 active torsions:
REMARK  status: ('A' for Active; 'I' for Inactive)
REMARK    1  A    between atoms: C_1  and  O_2
REMARK    2  A    between atoms: O_2  and  C_3
REMARK    3  A    between atoms: C_5  and  N_6
REMARK    4  A    between atoms: C_10  and  C_11
REMARK    5  A    between atoms: N_13  and  C_14
REMARK                            x       y       z     vdW  Elec       q    Type
REMARK                         _______ _______ _______ _____ _____    ______ ____
ROOT
ATOM      1  C   UNL     1       4.130   5.144  17.901  0.00  0.00    +0.000 C 
ATOM      2  O   UNL     1       2.958   5.451  17.702  0.00  0.00    +0.000 OA
ATOM      3  N   UNL     1       4.543   4.585  19.088  0.00  0.00    +0.000 N 
ATOM      4  H   UNL     1       5.535   4.411  19.205  0.00  0.00    +0.000 HD
ENDROOT
BRANCH   3   5
ATOM      5  C   UNL     1       3.612   4.173  20.148  0.00  0.00    +0.000 C 
ATOM      6  C   UNL     1       2.356   5.062  20.110  0.00  0.00    +0.000 C 
ATOM      7  C   UNL     1       1.021   4.418  20.486  0.00  0.00    +0.000 C 
ATOM      8  N   UNL     1       0.938   2.963  20.428  0.00  0.00    +0.000 NA
ATOM      9  C   UNL     1       0.689   2.417  19.092  0.00  0.00    +0.000 C 
ATOM     10  C   UNL     1       1.896   2.319  18.153  0.00  0.00    +0.000 C 
ATOM     11  C   UNL     1       3.194   1.948  18.856  0.00  0.00    +0.000 C 
ATOM     12  C   UNL     1       3.359   2.646  20.211  0.00  0.00    +0.000 C 
ATOM     13  C   UNL     1       2.113   2.358  21.053  0.00  0.00    +0.000 C 
ENDBRANCH   3   5
BRANCH   1  20
ATOM     14  C   UNL     1       6.374   5.979  16.914  0.00  0.00    +0.000 A 
ATOM     15  C   UNL     1       7.325   5.852  15.882  0.00  0.00    +0.000 A 
ATOM     16  C   UNL     1       7.021   5.214  14.673  0.00  0.00    +0.000 A 
ATOM     17  C   UNL     1       5.756   4.607  14.555  0.00  0.00    +0.000 A 
ATOM     18 CL   UNL     1       5.311   3.804  13.089  0.00  0.00    +0.000 Cl
ATOM     19  C   UNL     1       4.832   4.651  15.597  0.00  0.00    +0.000 A 
ATOM     20  C   UNL     1       5.143   5.308  16.803  0.00  0.00    +0.000 A 
BRANCH  16  21
ATOM     21  N   UNL     1       8.042   4.994  13.736  0.00  0.00    +0.000 N 
ATOM     22  H   UNL     1       8.588   5.811  13.488  0.00  0.00    +0.000 HD
ATOM     23  H   UNL     1       7.731   4.459  12.926  0.00  0.00    +0.000 HD
ENDBRANCH  16  21
BRANCH  14  25
ATOM     24  C   UNL     1       7.787   6.227  18.804  0.00  0.00    +0.000 C 
ATOM     25  O   UNL     1       6.657   6.689  18.053  0.00  0.00    +0.000 OA
ENDBRANCH  14  25
ENDBRANCH   1  20
TORSDOF 4
ENDMDL
MODEL 4
REMARK VINA RESULT:      -6.7      4.079      7.498
REMARK  Name = 
REMARK  5 active torsions:
REMARK  status: ('A' for Active; 'I' for Inactive)
REMARK    1  A    between atoms: C_1  and  O_2
REMARK    2  A    between atoms: O_2  and  C_3
REMARK    3  A    between atoms: C_5  and  N_6
REMARK    4  A    between atoms: C_10  and  C_11
REMARK    5  A    between atoms: N_13  and  C_14
REMARK                            x       y       z     vdW  Elec       q    Type
REMARK                         _______ _______ _______ _____ _____    ______ ____
ROOT
ATOM      1  C   UNL     1       2.781   8.044  17.898  0.00  0.00    +0.000 C 
ATOM      2  O   UNL     1       2.722   8.835  16.961  0.00  0.00    +0.000 OA
ATOM      3  N   UNL     1       3.687   7.009  17.918  0.00  0.00    +0.000 N 
ATOM      4  H   UNL     1       3.640   6.359  18.696  0.00  0.00    +0.000 HD
ENDROOT
BRANCH   3   5
ATOM      5  C   UNL     1       4.747   6.851  16.913  0.00  0.00    +0.000 C 
ATOM      6  C   UNL     1       6.031   7.546  17.398  0.00  0.00    +0.000 C 
ATOM      7  C   UNL     1       7.368   6.913  17.011  0.00  0.00    +0.000 C 
ATOM      8  N   UNL     1       7.355   5.512  16.607  0.00  0.00    +0.000 NA
ATOM      9  C   UNL     1       7.359   4.555  17.716  0.00  0.00    +0.000 C 
ATOM     10  C   UNL     1       6.016   4.299  18.408  0.00  0.00    +0.000 C 
ATOM     11  C   UNL     1       4.824   4.304  17.460  0.00  0.00    +0.000 C 
ATOM     12  C   UNL     1       4.916   5.401  16.393  0.00  0.00    +0.000 C 
ATOM     13  C   UNL     1       6.259   5.259  15.673  0.00  0.00    +0.000 C 
ENDBRANCH   3   5
BRANCH   1  20
ATOM     14  C   UNL     1       1.824   7.382  20.213  0.00  0.00    +0.000 A 
ATOM     15  C   UNL     1       1.134   7.807  21.365  0.00  0.00    +0.000 A 
ATOM     16  C   UNL     1       0.374   8.983  21.378  0.00  0.00    +0.000 A 
ATOM     17  C   UNL     1       0.403   9.792  20.225  0.00  0.00    +0.000 A 
ATOM     18 CL   UNL     1      -0.514  11.258  20.169  0.00  0.00    +0.000 Cl
ATOM     19  C   UNL     1       1.148   9.429  19.105  0.00  0.00    +0.000 A 
ATOM     20  C   UNL     1       1.896   8.237  19.098  0.00  0.00    +0.000 A 
BRANCH  16  21
ATOM     21  N   UNL     1      -0.180   9.430  22.586  0.00  0.00    +0.000 N 
ATOM     22  H   UNL     1      -0.329  10.431  22.652  0.00  0.00    +0.000 HD
ATOM     23  H   UNL     1       0.281   9.039  23.406  0.00  0.00    +0.000 HD
ENDBRANCH  16  21
BRANCH  14  25
ATOM     24  C   UNL     1       1.682   5.028  20.473  0.00  0.00    +0.000 C 
ATOM     25  O   UNL     1       2.485   6.180  20.186  0.00  0.00    +0.000 OA
ENDBRANCH  14  25
ENDBRANCH   1  20
TORSDOF 4
ENDMDL
MODEL 5
REMARK VINA RESULT:      -6.7      4.925      7.193
REMARK  Name = 
REMARK  5 active torsions:
REMARK  status: ('A' for Active; 'I' for Inactive)
REMARK    1  A    between atoms: C_1  and  O_2
REMARK    2  A    between atoms: O_2  and  C_3
REMARK    3  A    between atoms: C_5  and  N_6
REMARK    4  A    between atoms: C_10  and  C_11
REMARK    5  A    between atoms: N_13  and  C_14
REMARK                            x       y       z     vdW  Elec       q    Type
REMARK                         _______ _______ _______ _____ _____    ______ ____
ROOT
ATOM      1  C   UNL     1       1.960   8.207  18.117  0.00  0.00    +0.000 C 
ATOM      2  O   UNL     1       2.769   8.700  17.336  0.00  0.00    +0.000 OA
ATOM      3  N   UNL     1       2.005   6.879  18.469  0.00  0.00    +0.000 N 
ATOM      4  H   UNL     1       1.270   6.528  19.073  0.00  0.00    +0.000 HD
ENDROOT
BRANCH   3   5
ATOM      5  C   UNL     1       3.096   5.979  18.068  0.00  0.00    +0.000 C 
ATOM      6  C   UNL     1       4.170   5.942  19.170  0.00  0.00    +0.000 C 
ATOM      7  C   UNL     1       4.912   4.623  19.391  0.00  0.00    +0.000 C 
ATOM      8  N   UNL     1       4.286   3.408  18.881  0.00  0.00    +0.000 NA
ATOM      9  C   UNL     1       3.256   2.837  19.754  0.00  0.00    +0.000 C 
ATOM     10  C   UNL     1       1.872   3.492  19.703  0.00  0.00    +0.000 C 
ATOM     11  C   UNL     1       1.464   3.962  18.313  0.00  0.00    +0.000 C 
ATOM     12  C   UNL     1       2.620   4.603  17.537  0.00  0.00    +0.000 C 
ATOM     13  C   UNL     1       3.792   3.618  17.522  0.00  0.00    +0.000 C 
ENDBRANCH   3   5
BRANCH   1  20
ATOM     14  C   UNL     1       0.835   9.349  20.152  0.00  0.00    +0.000 A 
ATOM     15  C   UNL     1      -0.028  10.369  20.600  0.00  0.00    +0.000 A 
ATOM     16  C   UNL     1      -0.921  11.012  19.734  0.00  0.00    +0.000 A 
ATOM     17  C   UNL     1      -0.860  10.680  18.367  0.00  0.00    +0.000 A 
ATOM     18 CL   UNL     1      -1.935  11.434  17.240  0.00  0.00    +0.000 Cl
ATOM     19  C   UNL     1       0.046   9.734  17.892  0.00  0.00    +0.000 A 
ATOM     20  C   UNL     1       0.928   9.081  18.774  0.00  0.00    +0.000 A 
BRANCH  16  21
ATOM     21  N   UNL     1      -1.659  12.111  20.199  0.00  0.00    +0.000 N 
ATOM     22  H   UNL     1      -2.033  12.720  19.480  0.00  0.00    +0.000 HD
ATOM     23  H   UNL     1      -1.190  12.618  20.949  0.00  0.00    +0.000 HD
ENDBRANCH  16  21
BRANCH  14  25
ATOM     24  C   UNL     1       1.471   9.007  22.411  0.00  0.00    +0.000 C 
ATOM     25  O   UNL     1       1.635   8.662  21.030  0.00  0.00    +0.000 OA
ENDBRANCH  14  25
ENDBRANCH   1  20
TORSDOF 4
ENDMDL
MODEL 6
REMARK VINA RESULT:      -6.7      5.210      7.391
REMARK  Name = 
REMARK  5 active torsions:
REMARK  status: ('A' for Active; 'I' for Inactive)
REMARK    1  A    between atoms: C_1  and  O_2
REMARK    2  A    between atoms: O_2  and  C_3
REMARK    3  A    between atoms: C_5  and  N_6
REMARK    4  A    between atoms: C_10  and  C_11
REMARK    5  A    between atoms: N_13  and  C_14
REMARK                            x       y       z     vdW  Elec       q    Type
REMARK                         _______ _______ _______ _____ _____    ______ ____
ROOT
ATOM      1  C   UNL     1       1.835   8.075  18.887  0.00  0.00    +0.000 C 
ATOM      2  O   UNL     1       1.934   8.217  17.671  0.00  0.00    +0.000 OA
ATOM      3  N   UNL     1       2.163   6.895  19.510  0.00  0.00    +0.000 N 
ATOM      4  H   UNL     1       2.002   6.830  20.510  0.00  0.00    +0.000 HD
ENDROOT
BRANCH   3   5
ATOM      5  C   UNL     1       2.793   5.766  18.811  0.00  0.00    +0.000 C 
ATOM      6  C   UNL     1       4.228   5.568  19.332  0.00  0.00    +0.000 C 
ATOM      7  C   UNL     1       4.766   4.138  19.397  0.00  0.00    +0.000 C 
ATOM      8  N   UNL     1       3.792   3.054  19.390  0.00  0.00    +0.000 NA
ATOM      9  C   UNL     1       3.193   2.761  20.695  0.00  0.00    +0.000 C 
ATOM     10  C   UNL     1       2.060   3.686  21.154  0.00  0.00    +0.000 C 
ATOM     11  C   UNL     1       1.149   4.151  20.027  0.00  0.00    +0.000 C 
ATOM     12  C   UNL     1       1.915   4.491  18.743  0.00  0.00    +0.000 C 
ATOM     13  C   UNL     1       2.776   3.284  18.364  0.00  0.00    +0.000 C 
ENDBRANCH   3   5
BRANCH   1  20
ATOM     14  C   UNL     1       1.411  10.589  19.351  0.00  0.00    +0.000 A 
ATOM     15  C   UNL     1       0.771  11.542  20.167  0.00  0.00    +0.000 A 
ATOM     16  C   UNL     1       0.282  11.216  21.438  0.00  0.00    +0.000 A 
ATOM     17  C   UNL     1       0.358   9.869  21.842  0.00  0.00    +0.000 A 
ATOM     18 CL   UNL     1      -0.225   9.394  23.400  0.00  0.00    +0.000 Cl
ATOM     19  C   UNL     1       0.912   8.896  21.013  0.00  0.00    +0.000 A 
ATOM     20  C   UNL     1       1.415   9.238  19.743  0.00  0.00    +0.000 A 
BRANCH  16  21
ATOM     21  N   UNL     1      -0.466  12.165  22.151  0.00  0.00    +0.000 N 
ATOM     22  H   UNL     1      -0.097  12.414  23.062  0.00  0.00    +0.000 HD
ATOM     23  H   UNL     1      -1.464  11.957  22.167  0.00  0.00    +0.000 HD
ENDBRANCH  16  21
BRANCH  14  25
ATOM     24  C   UNL     1       2.444  12.295  18.067  0.00  0.00    +0.000 C 
ATOM     25  O   UNL     1       1.970  10.946  18.150  0.00  0.00    +0.000 OA
ENDBRANCH  14  25
ENDBRANCH   1  20
TORSDOF 4
ENDMDL
MODEL 7
REMARK VINA RESULT:      -6.6      4.986      7.120
REMARK  Name = 
REMARK  5 active torsions:
REMARK  status: ('A' for Active; 'I' for Inactive)
REMARK    1  A    between atoms: C_1  and  O_2
REMARK    2  A    between atoms: O_2  and  C_3
REMARK    3  A    between atoms: C_5  and  N_6
REMARK    4  A    between atoms: C_10  and  C_11
REMARK    5  A    between atoms: N_13  and  C_14
REMARK                            x       y       z     vdW  Elec       q    Type
REMARK                         _______ _______ _______ _____ _____    ______ ____
ROOT
ATOM      1  C   UNL     1       2.158   8.190  18.248  0.00  0.00    +0.000 C 
ATOM      2  O   UNL     1       2.545   8.283  17.087  0.00  0.00    +0.000 OA
ATOM      3  N   UNL     1       2.233   7.008  18.947  0.00  0.00    +0.000 N 
ATOM      4  H   UNL     1       1.841   6.990  19.882  0.00  0.00    +0.000 HD
ENDROOT
BRANCH   3   5
ATOM      5  C   UNL     1       2.910   5.811  18.428  0.00  0.00    +0.000 C 
ATOM      6  C   UNL     1       4.294   5.671  19.087  0.00  0.00    +0.000 C 
ATOM      7  C   UNL     1       4.812   4.256  19.351  0.00  0.00    +0.000 C 
ATOM      8  N   UNL     1       3.831   3.177  19.377  0.00  0.00    +0.000 NA
ATOM      9  C   UNL     1       3.122   3.026  20.650  0.00  0.00    +0.000 C 
ATOM     10  C   UNL     1       1.963   3.995  20.910  0.00  0.00    +0.000 C 
ATOM     11  C   UNL     1       1.154   4.336  19.666  0.00  0.00    +0.000 C 
ATOM     12  C   UNL     1       2.029   4.537  18.423  0.00  0.00    +0.000 C 
ATOM     13  C   UNL     1       2.908   3.296  18.250  0.00  0.00    +0.000 C 
ENDBRANCH   3   5
BRANCH   1  20
ATOM     14  C   UNL     1       1.051   9.423  20.240  0.00  0.00    +0.000 A 
ATOM     15  C   UNL     1       0.843  10.655  20.891  0.00  0.00    +0.000 A 
ATOM     16  C   UNL     1       1.059  11.878  20.244  0.00  0.00    +0.000 A 
ATOM     17  C   UNL     1       1.595  11.842  18.942  0.00  0.00    +0.000 A 
ATOM     18 CL   UNL     1       1.887  13.313  18.081  0.00  0.00    +0.000 Cl
ATOM     19  C   UNL     1       1.887  10.633  18.313  0.00  0.00    +0.000 A 
ATOM     20  C   UNL     1       1.651   9.409  18.968  0.00  0.00    +0.000 A 
BRANCH  16  21
ATOM     21  N   UNL     1       0.968  13.070  20.977  0.00  0.00    +0.000 N 
ATOM     22  H   UNL     1       0.076  13.235  21.430  0.00  0.00    +0.000 HD
ATOM     23  H   UNL     1       1.314  13.881  20.465  0.00  0.00    +0.000 HD
ENDBRANCH  16  21
BRANCH  14  25
ATOM     24  C   UNL     1      -0.355   8.285  21.774  0.00  0.00    +0.000 C 
ATOM     25  O   UNL     1       0.744   8.236  20.856  0.00  0.00    +0.000 OA
ENDBRANCH  14  25
ENDBRANCH   1  20
TORSDOF 4
ENDMDL
MODEL 8
REMARK VINA RESULT:      -6.6      1.365      2.205
REMARK  Name = 
REMARK  5 active torsions:
REMARK  status: ('A' for Active; 'I' for Inactive)
REMARK    1  A    between atoms: C_1  and  O_2
REMARK    2  A    between atoms: O_2  and  C_3
REMARK    3  A    between atoms: C_5  and  N_6
REMARK    4  A    between atoms: C_10  and  C_11
REMARK    5  A    between atoms: N_13  and  C_14
REMARK                            x       y       z     vdW  Elec       q    Type
REMARK                         _______ _______ _______ _____ _____    ______ ____
ROOT
ATOM      1  C   UNL     1       3.848   3.704  17.014  0.00  0.00    +0.000 C 
ATOM      2  O   UNL     1       4.038   2.611  17.539  0.00  0.00    +0.000 OA
ATOM      3  N   UNL     1       2.683   4.410  17.206  0.00  0.00    +0.000 N 
ATOM      4  H   UNL     1       2.570   5.279  16.694  0.00  0.00    +0.000 HD
ENDROOT
BRANCH   3   5
ATOM      5  C   UNL     1       1.643   3.997  18.159  0.00  0.00    +0.000 C 
ATOM      6  C   UNL     1       1.599   2.461  18.247  0.00  0.00    +0.000 C 
ATOM      7  C   UNL     1       1.253   1.839  19.600  0.00  0.00    +0.000 C 
ATOM      8  N   UNL     1       1.415   2.675  20.784  0.00  0.00    +0.000 NA
ATOM      9  C   UNL     1       2.784   2.745  21.301  0.00  0.00    +0.000 C 
ATOM     10  C   UNL     1       3.744   3.698  20.579  0.00  0.00    +0.000 C 
ATOM     11  C   UNL     1       3.086   4.982  20.093  0.00  0.00    +0.000 C 
ATOM     12  C   UNL     1       1.687   4.752  19.511  0.00  0.00    +0.000 C 
ATOM     13  C   UNL     1       0.852   4.004  20.553  0.00  0.00    +0.000 C 
ENDBRANCH   3   5
BRANCH   1  20
ATOM     14  C   UNL     1       5.826   5.334  16.637  0.00  0.00    +0.000 A 
ATOM     15  C   UNL     1       6.941   5.666  15.843  0.00  0.00    +0.000 A 
ATOM     16  C   UNL     1       7.102   5.158  14.548  0.00  0.00    +0.000 A 
ATOM     17  C   UNL     1       6.159   4.215  14.094  0.00  0.00    +0.000 A 
ATOM     18 CL   UNL     1       6.294   3.548  12.504  0.00  0.00    +0.000 Cl
ATOM     19  C   UNL     1       5.096   3.812  14.898  0.00  0.00    +0.000 A 
ATOM     20  C   UNL     1       4.935   4.340  16.193  0.00  0.00    +0.000 A 
BRANCH  16  21
ATOM     21  N   UNL     1       8.295   5.411  13.853  0.00  0.00    +0.000 N 
ATOM     22  H   UNL     1       8.384   6.345  13.469  0.00  0.00    +0.000 HD
ATOM     23  H   UNL     1       8.530   4.678  13.185  0.00  0.00    +0.000 HD
ENDBRANCH  16  21
BRANCH  14  25
ATOM     24  C   UNL     1       6.569   5.529  18.882  0.00  0.00    +0.000 C 
ATOM     25  O   UNL     1       5.634   5.914  17.866  0.00  0.00    +0.000 OA
ENDBRANCH  14  25
ENDBRANCH   1  20
TORSDOF 4
ENDMDL
MODEL 9
REMARK VINA RESULT:      -6.5      4.854      7.499
REMARK  Name = 
REMARK  5 active torsions:
REMARK  status: ('A' for Active; 'I' for Inactive)
REMARK    1  A    between atoms: C_1  and  O_2
REMARK    2  A    between atoms: O_2  and  C_3
REMARK    3  A    between atoms: C_5  and  N_6
REMARK    4  A    between atoms: C_10  and  C_11
REMARK    5  A    between atoms: N_13  and  C_14
REMARK                            x       y       z     vdW  Elec       q    Type
REMARK                         _______ _______ _______ _____ _____    ______ ____
ROOT
ATOM      1  C   UNL     1       1.955   6.842  20.396  0.00  0.00    +0.000 C 
ATOM      2  O   UNL     1       1.510   5.915  21.066  0.00  0.00    +0.000 OA
ATOM      3  N   UNL     1       3.007   6.672  19.528  0.00  0.00    +0.000 N 
ATOM      4  H   UNL     1       3.360   7.494  19.050  0.00  0.00    +0.000 HD
ENDROOT
BRANCH   3   5
ATOM      5  C   UNL     1       3.586   5.357  19.217  0.00  0.00    +0.000 C 
ATOM      6  C   UNL     1       2.667   4.603  18.240  0.00  0.00    +0.000 C 
ATOM      7  C   UNL     1       3.328   3.687  17.209  0.00  0.00    +0.000 C 
ATOM      8  N   UNL     1       4.741   3.909  16.924  0.00  0.00    +0.000 NA
ATOM      9  C   UNL     1       5.011   4.984  15.965  0.00  0.00    +0.000 C 
ATOM     10  C   UNL     1       4.964   6.417  16.509  0.00  0.00    +0.000 C 
ATOM     11  C   UNL     1       5.505   6.556  17.925  0.00  0.00    +0.000 C 
ATOM     12  C   UNL     1       5.089   5.399  18.839  0.00  0.00    +0.000 C 
ATOM     13  C   UNL     1       5.493   4.086  18.165  0.00  0.00    +0.000 C 
ENDBRANCH   3   5
BRANCH   1  20
ATOM     14  C   UNL     1       1.136   9.079  19.378  0.00  0.00    +0.000 A 
ATOM     15  C   UNL     1       0.295  10.199  19.524  0.00  0.00    +0.000 A 
ATOM     16  C   UNL     1      -0.256  10.552  20.762  0.00  0.00    +0.000 A 
ATOM     17  C   UNL     1      -0.026   9.687  21.849  0.00  0.00    +0.000 A 
ATOM     18 CL   UNL     1      -0.674  10.060  23.409  0.00  0.00    +0.000 Cl
ATOM     19  C   UNL     1       0.735   8.529  21.704  0.00  0.00    +0.000 A 
ATOM     20  C   UNL     1       1.297   8.192  20.458  0.00  0.00    +0.000 A 
BRANCH  16  21
ATOM     21  N   UNL     1      -1.194  11.593  20.826  0.00  0.00    +0.000 N 
ATOM     22  H   UNL     1      -1.138  12.275  20.077  0.00  0.00    +0.000 HD
ATOM     23  H   UNL     1      -1.257  12.017  21.750  0.00  0.00    +0.000 HD
ENDBRANCH  16  21
BRANCH  14  25
ATOM     24  C   UNL     1       2.495   9.879  17.606  0.00  0.00    +0.000 C 
ATOM     25  O   UNL     1       1.745   8.802  18.179  0.00  0.00    +0.000 OA
ENDBRANCH  14  25
ENDBRANCH   1  20
TORSDOF 4
ENDMDL
