MODEL 1
REMARK VINA RESULT:      -8.5      0.000      0.000
REMARK  Name = 
REMARK  5 active torsions:
REMARK  status: ('A' for Active; 'I' for Inactive)
REMARK    1  A    between atoms: C_1  and  C_2
REMARK    2  A    between atoms: C_2  and  C_4
REMARK    3  A    between atoms: C_7  and  N_8
REMARK    4  A    between atoms: C_12  and  C_13
REMARK    5  A    between atoms: C_21  and  C_22
REMARK                            x       y       z     vdW  Elec       q    Type
REMARK                         _______ _______ _______ _____ _____    ______ ____
ROOT
ATOM      1  N   UNL     1       6.083   5.407  17.312  0.00  0.00    +0.000 N 
ATOM      2  C   UNL     1       5.239   4.796  18.201  0.00  0.00    +0.000 C 
ATOM      3  O   UNL     1       5.018   5.058  19.368  0.00  0.00    +0.000 OA
ATOM      4  C   UNL     1       4.671   3.683  17.381  0.00  0.00    +0.000 C 
ATOM      5  C   UNL     1       3.653   2.884  17.725  0.00  0.00    +0.000 C 
ATOM      6  N   UNL     1       5.321   3.633  16.162  0.00  0.00    +0.000 NA
ATOM      7  C   UNL     1       6.115   4.664  16.181  0.00  0.00    +0.000 C 
ATOM      8  C   UNL     1       7.061   4.959  15.057  0.00  0.00    +0.000 C 
ENDROOT
BRANCH   5   9
ATOM      9  C   UNL     1       2.851   3.045  18.939  0.00  0.00    +0.000 A 
ATOM     10  C   UNL     1       3.226   2.439  20.142  0.00  0.00    +0.000 A 
ATOM     11  C   UNL     1       2.466   2.643  21.299  0.00  0.00    +0.000 A 
ATOM     12  C   UNL     1       1.329   3.453  21.262  0.00  0.00    +0.000 A 
ATOM     13  C   UNL     1       0.946   4.056  20.066  0.00  0.00    +0.000 A 
ATOM     14  C   UNL     1       1.705   3.849  18.918  0.00  0.00    +0.000 A 
ATOM     15  F   UNL     1       1.319   4.442  17.777  0.00  0.00    +0.000 F 
ENDBRANCH   5   9
BRANCH   1  19
ATOM     16  C   UNL     1       8.326   8.771  18.461  0.00  0.00    +0.000 A 
ATOM     17  C   UNL     1       8.591   7.512  19.018  0.00  0.00    +0.000 A 
ATOM     18  C   UNL     1       7.850   6.402  18.624  0.00  0.00    +0.000 A 
ATOM     19  C   UNL     1       6.865   6.520  17.641  0.00  0.00    +0.000 A 
ATOM     20  C   UNL     1       6.603   7.768  17.068  0.00  0.00    +0.000 A 
ATOM     21  C   UNL     1       7.320   8.895  17.492  0.00  0.00    +0.000 A 
BRANCH  16  23
ATOM     22  C   UNL     1       9.526  10.963  17.835  0.00  0.00    +0.000 C 
ATOM     23  C   UNL     1       9.091   9.979  18.893  0.00  0.00    +0.000 C 
ATOM     24  O   UNL     1       9.337  10.159  20.083  0.00  0.00    +0.000 OA
ENDBRANCH  16  23
ENDBRANCH   1  19
TORSDOF 3
ENDMDL
MODEL 2
REMARK VINA RESULT:      -8.5      0.992      1.395
REMARK  Name = 
REMARK  5 active torsions:
REMARK  status: ('A' for Active; 'I' for Inactive)
REMARK    1  A    between atoms: C_1  and  C_2
REMARK    2  A    between atoms: C_2  and  C_4
REMARK    3  A    between atoms: C_7  and  N_8
REMARK    4  A    between atoms: C_12  and  C_13
REMARK    5  A    between atoms: C_21  and  C_22
REMARK                            x       y       z     vdW  Elec       q    Type
REMARK                         _______ _______ _______ _____ _____    ______ ____
ROOT
ATOM      1  N   UNL     1       6.080   5.403  17.327  0.00  0.00    +0.000 N 
ATOM      2  C   UNL     1       5.240   4.805  18.228  0.00  0.00    +0.000 C 
ATOM      3  O   UNL     1       5.012   5.095  19.388  0.00  0.00    +0.000 OA
ATOM      4  C   UNL     1       4.689   3.664  17.436  0.00  0.00    +0.000 C 
ATOM      5  C   UNL     1       3.679   2.861  17.799  0.00  0.00    +0.000 C 
ATOM      6  N   UNL     1       5.343   3.590  16.221  0.00  0.00    +0.000 NA
ATOM      7  C   UNL     1       6.124   4.631  16.215  0.00  0.00    +0.000 C 
ATOM      8  C   UNL     1       7.070   4.908  15.086  0.00  0.00    +0.000 C 
ENDROOT
BRANCH   5   9
ATOM      9  C   UNL     1       2.872   3.044  19.005  0.00  0.00    +0.000 A 
ATOM     10  C   UNL     1       1.638   3.701  18.961  0.00  0.00    +0.000 A 
ATOM     11  C   UNL     1       0.866   3.824  20.121  0.00  0.00    +0.000 A 
ATOM     12  C   UNL     1       1.318   3.292  21.330  0.00  0.00    +0.000 A 
ATOM     13  C   UNL     1       2.549   2.641  21.384  0.00  0.00    +0.000 A 
ATOM     14  C   UNL     1       3.314   2.522  20.227  0.00  0.00    +0.000 A 
ATOM     15  F   UNL     1       4.495   1.887  20.301  0.00  0.00    +0.000 F 
ENDBRANCH   5   9
BRANCH   1  19
ATOM     16  C   UNL     1       8.280   8.821  18.397  0.00  0.00    +0.000 A 
ATOM     17  C   UNL     1       8.583   7.572  18.957  0.00  0.00    +0.000 A 
ATOM     18  C   UNL     1       7.856   6.444  18.589  0.00  0.00    +0.000 A 
ATOM     19  C   UNL     1       6.846   6.534  17.628  0.00  0.00    +0.000 A 
ATOM     20  C   UNL     1       6.546   7.772  17.052  0.00  0.00    +0.000 A 
ATOM     21  C   UNL     1       7.250   8.916  17.450  0.00  0.00    +0.000 A 
BRANCH  16  23
ATOM     22  C   UNL     1       9.055  11.215  17.846  0.00  0.00    +0.000 C 
ATOM     23  C   UNL     1       9.030  10.047  18.801  0.00  0.00    +0.000 C 
ATOM     24  O   UNL     1       9.594  10.092  19.891  0.00  0.00    +0.000 OA
ENDBRANCH  16  23
ENDBRANCH   1  19
TORSDOF 3
ENDMDL
MODEL 3
REMARK VINA RESULT:      -8.3      0.593      1.212
REMARK  Name = 
REMARK  5 active torsions:
REMARK  status: ('A' for Active; 'I' for Inactive)
REMARK    1  A    between atoms: C_1  and  C_2
REMARK    2  A    between atoms: C_2  and  C_4
REMARK    3  A    between atoms: C_7  and  N_8
REMARK    4  A    between atoms: C_12  and  C_13
REMARK    5  A    between atoms: C_21  and  C_22
REMARK                            x       y       z     vdW  Elec       q    Type
REMARK                         _______ _______ _______ _____ _____    ______ ____
ROOT
ATOM      1  N   UNL     1       6.021   5.410  17.419  0.00  0.00    +0.000 N 
ATOM      2  C   UNL     1       5.175   4.771  18.287  0.00  0.00    +0.000 C 
ATOM      3  O   UNL     1       4.909   5.031  19.445  0.00  0.00    +0.000 OA
ATOM      4  C   UNL     1       4.679   3.631  17.458  0.00  0.00    +0.000 C 
ATOM      5  C   UNL     1       3.683   2.793  17.779  0.00  0.00    +0.000 C 
ATOM      6  N   UNL     1       5.366   3.600  16.260  0.00  0.00    +0.000 NA
ATOM      7  C   UNL     1       6.117   4.662  16.295  0.00  0.00    +0.000 C 
ATOM      8  C   UNL     1       7.084   4.988  15.197  0.00  0.00    +0.000 C 
ENDROOT
BRANCH   5   9
ATOM      9  C   UNL     1       2.839   2.928  18.967  0.00  0.00    +0.000 A 
ATOM     10  C   UNL     1       3.215   2.367  20.191  0.00  0.00    +0.000 A 
ATOM     11  C   UNL     1       2.411   2.548  21.323  0.00  0.00    +0.000 A 
ATOM     12  C   UNL     1       1.231   3.289  21.238  0.00  0.00    +0.000 A 
ATOM     13  C   UNL     1       0.847   3.847  20.021  0.00  0.00    +0.000 A 
ATOM     14  C   UNL     1       1.650   3.664  18.898  0.00  0.00    +0.000 A 
ATOM     15  F   UNL     1       1.263   4.213  17.736  0.00  0.00    +0.000 F 
ENDBRANCH   5   9
BRANCH   1  19
ATOM     16  C   UNL     1       8.297   8.836  18.285  0.00  0.00    +0.000 A 
ATOM     17  C   UNL     1       7.205   8.907  17.408  0.00  0.00    +0.000 A 
ATOM     18  C   UNL     1       6.451   7.769  17.135  0.00  0.00    +0.000 A 
ATOM     19  C   UNL     1       6.746   6.557  17.763  0.00  0.00    +0.000 A 
ATOM     20  C   UNL     1       7.823   6.479  18.651  0.00  0.00    +0.000 A 
ATOM     21  C   UNL     1       8.608   7.614  18.896  0.00  0.00    +0.000 A 
BRANCH  16  23
ATOM     22  C   UNL     1       9.349  10.438  20.007  0.00  0.00    +0.000 C 
ATOM     23  C   UNL     1       9.135  10.040  18.567  0.00  0.00    +0.000 C 
ATOM     24  O   UNL     1       9.641  10.668  17.641  0.00  0.00    +0.000 OA
ENDBRANCH  16  23
ENDBRANCH   1  19
TORSDOF 3
ENDMDL
MODEL 4
REMARK VINA RESULT:      -8.3      1.156      1.846
REMARK  Name = 
REMARK  5 active torsions:
REMARK  status: ('A' for Active; 'I' for Inactive)
REMARK    1  A    between atoms: C_1  and  C_2
REMARK    2  A    between atoms: C_2  and  C_4
REMARK    3  A    between atoms: C_7  and  N_8
REMARK    4  A    between atoms: C_12  and  C_13
REMARK    5  A    between atoms: C_21  and  C_22
REMARK                            x       y       z     vdW  Elec       q    Type
REMARK                         _______ _______ _______ _____ _____    ______ ____
ROOT
ATOM      1  N   UNL     1       6.049   5.433  17.429  0.00  0.00    +0.000 N 
ATOM      2  C   UNL     1       5.203   4.796  18.298  0.00  0.00    +0.000 C 
ATOM      3  O   UNL     1       4.933   5.061  19.454  0.00  0.00    +0.000 OA
ATOM      4  C   UNL     1       4.712   3.650  17.473  0.00  0.00    +0.000 C 
ATOM      5  C   UNL     1       3.718   2.811  17.795  0.00  0.00    +0.000 C 
ATOM      6  N   UNL     1       5.403   3.616  16.277  0.00  0.00    +0.000 NA
ATOM      7  C   UNL     1       6.150   4.680  16.309  0.00  0.00    +0.000 C 
ATOM      8  C   UNL     1       7.119   5.004  15.212  0.00  0.00    +0.000 C 
ENDROOT
BRANCH   5   9
ATOM      9  C   UNL     1       2.871   2.950  18.980  0.00  0.00    +0.000 A 
ATOM     10  C   UNL     1       1.597   3.520  18.899  0.00  0.00    +0.000 A 
ATOM     11  C   UNL     1       0.790   3.601  20.039  0.00  0.00    +0.000 A 
ATOM     12  C   UNL     1       1.248   3.114  21.264  0.00  0.00    +0.000 A 
ATOM     13  C   UNL     1       2.519   2.549  21.355  0.00  0.00    +0.000 A 
ATOM     14  C   UNL     1       3.318   2.472  20.218  0.00  0.00    +0.000 A 
ATOM     15  F   UNL     1       4.538   1.920  20.327  0.00  0.00    +0.000 F 
ENDBRANCH   5   9
BRANCH   1  19
ATOM     16  C   UNL     1       8.314   8.870  18.286  0.00  0.00    +0.000 A 
ATOM     17  C   UNL     1       7.227   8.932  17.402  0.00  0.00    +0.000 A 
ATOM     18  C   UNL     1       6.477   7.792  17.132  0.00  0.00    +0.000 A 
ATOM     19  C   UNL     1       6.770   6.584  17.770  0.00  0.00    +0.000 A 
ATOM     20  C   UNL     1       7.842   6.514  18.665  0.00  0.00    +0.000 A 
ATOM     21  C   UNL     1       8.624   7.652  18.907  0.00  0.00    +0.000 A 
BRANCH  16  23
ATOM     22  C   UNL     1       9.378  10.467  20.004  0.00  0.00    +0.000 C 
ATOM     23  C   UNL     1       9.148  10.076  18.565  0.00  0.00    +0.000 C 
ATOM     24  O   UNL     1       9.639  10.714  17.637  0.00  0.00    +0.000 OA
ENDBRANCH  16  23
ENDBRANCH   1  19
TORSDOF 3
ENDMDL
MODEL 5
REMARK VINA RESULT:      -7.3      5.388      6.904
REMARK  Name = 
REMARK  5 active torsions:
REMARK  status: ('A' for Active; 'I' for Inactive)
REMARK    1  A    between atoms: C_1  and  C_2
REMARK    2  A    between atoms: C_2  and  C_4
REMARK    3  A    between atoms: C_7  and  N_8
REMARK    4  A    between atoms: C_12  and  C_13
REMARK    5  A    between atoms: C_21  and  C_22
REMARK                            x       y       z     vdW  Elec       q    Type
REMARK                         _______ _______ _______ _____ _____    ______ ____
ROOT
ATOM      1  N   UNL     1       1.552   8.664  19.380  0.00  0.00    +0.000 N 
ATOM      2  C   UNL     1       1.864   7.345  19.579  0.00  0.00    +0.000 C 
ATOM      3  O   UNL     1       1.556   6.603  20.493  0.00  0.00    +0.000 OA
ATOM      4  C   UNL     1       2.726   7.044  18.395  0.00  0.00    +0.000 C 
ATOM      5  C   UNL     1       3.154   5.833  18.015  0.00  0.00    +0.000 C 
ATOM      6  N   UNL     1       2.972   8.211  17.698  0.00  0.00    +0.000 NA
ATOM      7  C   UNL     1       2.255   9.107  18.311  0.00  0.00    +0.000 C 
ATOM      8  C   UNL     1       2.272  10.550  17.908  0.00  0.00    +0.000 C 
ENDROOT
BRANCH   5   9
ATOM      9  C   UNL     1       2.754   4.577  18.651  0.00  0.00    +0.000 A 
ATOM     10  C   UNL     1       3.500   4.022  19.694  0.00  0.00    +0.000 A 
ATOM     11  C   UNL     1       3.072   2.842  20.314  0.00  0.00    +0.000 A 
ATOM     12  C   UNL     1       1.898   2.213  19.898  0.00  0.00    +0.000 A 
ATOM     13  C   UNL     1       1.151   2.757  18.855  0.00  0.00    +0.000 A 
ATOM     14  C   UNL     1       1.582   3.930  18.241  0.00  0.00    +0.000 A 
ATOM     15  F   UNL     1       0.845   4.439  17.241  0.00  0.00    +0.000 F 
ENDBRANCH   5   9
BRANCH   1  19
ATOM     16  C   UNL     1      -0.737  11.041  21.983  0.00  0.00    +0.000 A 
ATOM     17  C   UNL     1      -0.985  11.050  20.603  0.00  0.00    +0.000 A 
ATOM     18  C   UNL     1      -0.229  10.252  19.750  0.00  0.00    +0.000 A 
ATOM     19  C   UNL     1       0.755   9.403  20.261  0.00  0.00    +0.000 A 
ATOM     20  C   UNL     1       1.000   9.374  21.638  0.00  0.00    +0.000 A 
ATOM     21  C   UNL     1       0.267  10.207  22.494  0.00  0.00    +0.000 A 
BRANCH  16  23
ATOM     22  C   UNL     1      -1.090  13.349  23.071  0.00  0.00    +0.000 C 
ATOM     23  C   UNL     1      -1.519  11.912  22.910  0.00  0.00    +0.000 C 
ATOM     24  O   UNL     1      -2.493  11.459  23.506  0.00  0.00    +0.000 OA
ENDBRANCH  16  23
ENDBRANCH   1  19
TORSDOF 3
ENDMDL
MODEL 6
REMARK VINA RESULT:      -7.3      5.026      6.839
REMARK  Name = 
REMARK  5 active torsions:
REMARK  status: ('A' for Active; 'I' for Inactive)
REMARK    1  A    between atoms: C_1  and  C_2
REMARK    2  A    between atoms: C_2  and  C_4
REMARK    3  A    between atoms: C_7  and  N_8
REMARK    4  A    between atoms: C_12  and  C_13
REMARK    5  A    between atoms: C_21  and  C_22
REMARK                            x       y       z     vdW  Elec       q    Type
REMARK                         _______ _______ _______ _____ _____    ______ ____
ROOT
ATOM      1  N   UNL     1       2.563   6.888  18.994  0.00  0.00    +0.000 N 
ATOM      2  C   UNL     1       2.057   8.160  18.974  0.00  0.00    +0.000 C 
ATOM      3  O   UNL     1       2.245   9.059  18.176  0.00  0.00    +0.000 OA
ATOM      4  C   UNL     1       1.230   8.188  20.219  0.00  0.00    +0.000 C 
ATOM      5  C   UNL     1       0.374   9.154  20.580  0.00  0.00    +0.000 C 
ATOM      6  N   UNL     1       1.431   7.022  20.931  0.00  0.00    +0.000 NA
ATOM      7  C   UNL     1       2.202   6.307  20.163  0.00  0.00    +0.000 C 
ATOM      8  C   UNL     1       2.720   4.966  20.583  0.00  0.00    +0.000 C 
ENDROOT
BRANCH   5   9
ATOM      9  C   UNL     1       0.029  10.306  19.746  0.00  0.00    +0.000 A 
ATOM     10  C   UNL     1      -0.960  10.219  18.762  0.00  0.00    +0.000 A 
ATOM     11  C   UNL     1      -1.301  11.348  18.007  0.00  0.00    +0.000 A 
ATOM     12  C   UNL     1      -0.659  12.567  18.232  0.00  0.00    +0.000 A 
ATOM     13  C   UNL     1       0.331  12.660  19.208  0.00  0.00    +0.000 A 
ATOM     14  C   UNL     1       0.667  11.535  19.954  0.00  0.00    +0.000 A 
ATOM     15  F   UNL     1       1.622  11.648  20.892  0.00  0.00    +0.000 F 
ENDBRANCH   5   9
BRANCH   1  19
ATOM     16  C   UNL     1       5.254   5.306  16.178  0.00  0.00    +0.000 A 
ATOM     17  C   UNL     1       4.191   4.532  16.665  0.00  0.00    +0.000 A 
ATOM     18  C   UNL     1       3.299   5.067  17.589  0.00  0.00    +0.000 A 
ATOM     19  C   UNL     1       3.427   6.392  18.010  0.00  0.00    +0.000 A 
ATOM     20  C   UNL     1       4.474   7.179  17.520  0.00  0.00    +0.000 A 
ATOM     21  C   UNL     1       5.396   6.629  16.620  0.00  0.00    +0.000 A 
BRANCH  16  23
ATOM     22  C   UNL     1       5.707   4.057  13.971  0.00  0.00    +0.000 C 
ATOM     23  C   UNL     1       6.237   4.740  15.208  0.00  0.00    +0.000 C 
ATOM     24  O   UNL     1       7.442   4.849  15.418  0.00  0.00    +0.000 OA
ENDBRANCH  16  23
ENDBRANCH   1  19
TORSDOF 3
ENDMDL
MODEL 7
REMARK VINA RESULT:      -7.2      3.962      6.288
REMARK  Name = 
REMARK  5 active torsions:
REMARK  status: ('A' for Active; 'I' for Inactive)
REMARK    1  A    between atoms: C_1  and  C_2
REMARK    2  A    between atoms: C_2  and  C_4
REMARK    3  A    between atoms: C_7  and  N_8
REMARK    4  A    between atoms: C_12  and  C_13
REMARK    5  A    between atoms: C_21  and  C_22
REMARK                            x       y       z     vdW  Elec       q    Type
REMARK                         _______ _______ _______ _____ _____    ______ ____
ROOT
ATOM      1  N   UNL     1       2.517   5.814  18.942  0.00  0.00    +0.000 N 
ATOM      2  C   UNL     1       3.360   5.579  17.889  0.00  0.00    +0.000 C 
ATOM      3  O   UNL     1       3.873   6.363  17.114  0.00  0.00    +0.000 OA
ATOM      4  C   UNL     1       3.467   4.088  17.900  0.00  0.00    +0.000 C 
ATOM      5  C   UNL     1       4.318   3.349  17.175  0.00  0.00    +0.000 C 
ATOM      6  N   UNL     1       2.586   3.571  18.830  0.00  0.00    +0.000 NA
ATOM      7  C   UNL     1       2.078   4.621  19.407  0.00  0.00    +0.000 C 
ATOM      8  C   UNL     1       1.016   4.514  20.458  0.00  0.00    +0.000 C 
ENDROOT
BRANCH   5   9
ATOM      9  C   UNL     1       5.369   3.900  16.319  0.00  0.00    +0.000 A 
ATOM     10  C   UNL     1       5.205   3.986  14.933  0.00  0.00    +0.000 A 
ATOM     11  C   UNL     1       6.208   4.557  14.141  0.00  0.00    +0.000 A 
ATOM     12  C   UNL     1       7.376   5.046  14.727  0.00  0.00    +0.000 A 
ATOM     13  C   UNL     1       7.550   4.960  16.107  0.00  0.00    +0.000 A 
ATOM     14  C   UNL     1       6.550   4.390  16.890  0.00  0.00    +0.000 A 
ATOM     15  F   UNL     1       6.736   4.320  18.218  0.00  0.00    +0.000 F 
ENDBRANCH   5   9
BRANCH   1  19
ATOM     16  C   UNL     1       1.098   9.601  20.088  0.00  0.00    +0.000 A 
ATOM     17  C   UNL     1       1.320   8.602  21.045  0.00  0.00    +0.000 A 
ATOM     18  C   UNL     1       1.800   7.354  20.658  0.00  0.00    +0.000 A 
ATOM     19  C   UNL     1       2.105   7.097  19.320  0.00  0.00    +0.000 A 
ATOM     20  C   UNL     1       1.903   8.092  18.358  0.00  0.00    +0.000 A 
ATOM     21  C   UNL     1       1.382   9.336  18.740  0.00  0.00    +0.000 A 
BRANCH  16  23
ATOM     22  C   UNL     1      -0.362  11.646  19.517  0.00  0.00    +0.000 C 
ATOM     23  C   UNL     1       0.557  10.936  20.481  0.00  0.00    +0.000 C 
ATOM     24  O   UNL     1       0.849  11.423  21.570  0.00  0.00    +0.000 OA
ENDBRANCH  16  23
ENDBRANCH   1  19
TORSDOF 3
ENDMDL
MODEL 8
REMARK VINA RESULT:      -7.2      3.423      6.928
REMARK  Name = 
REMARK  5 active torsions:
REMARK  status: ('A' for Active; 'I' for Inactive)
REMARK    1  A    between atoms: C_1  and  C_2
REMARK    2  A    between atoms: C_2  and  C_4
REMARK    3  A    between atoms: C_7  and  N_8
REMARK    4  A    between atoms: C_12  and  C_13
REMARK    5  A    between atoms: C_21  and  C_22
REMARK                            x       y       z     vdW  Elec       q    Type
REMARK                         _______ _______ _______ _____ _____    ______ ____
ROOT
ATOM      1  N   UNL     1       5.805   5.138  16.474  0.00  0.00    +0.000 N 
ATOM      2  C   UNL     1       5.700   4.336  15.369  0.00  0.00    +0.000 C 
ATOM      3  O   UNL     1       4.902   3.451  15.124  0.00  0.00    +0.000 OA
ATOM      4  C   UNL     1       6.852   4.797  14.536  0.00  0.00    +0.000 C 
ATOM      5  C   UNL     1       7.098   4.454  13.264  0.00  0.00    +0.000 C 
ATOM      6  N   UNL     1       7.611   5.696  15.260  0.00  0.00    +0.000 NA
ATOM      7  C   UNL     1       6.945   5.860  16.365  0.00  0.00    +0.000 C 
ATOM      8  C   UNL     1       7.451   6.727  17.478  0.00  0.00    +0.000 C 
ENDROOT
BRANCH   5   9
ATOM      9  C   UNL     1       6.204   3.640  12.441  0.00  0.00    +0.000 A 
ATOM     10  C   UNL     1       4.866   3.997  12.251  0.00  0.00    +0.000 A 
ATOM     11  C   UNL     1       4.042   3.225  11.424  0.00  0.00    +0.000 A 
ATOM     12  C   UNL     1       4.550   2.094  10.781  0.00  0.00    +0.000 A 
ATOM     13  C   UNL     1       5.881   1.728  10.968  0.00  0.00    +0.000 A 
ATOM     14  C   UNL     1       6.695   2.499  11.793  0.00  0.00    +0.000 A 
ATOM     15  F   UNL     1       7.976   2.130  11.957  0.00  0.00    +0.000 F 
ENDBRANCH   5   9
BRANCH   1  19
ATOM     16  C   UNL     1       3.083   4.755  19.654  0.00  0.00    +0.000 A 
ATOM     17  C   UNL     1       4.195   3.907  19.560  0.00  0.00    +0.000 A 
ATOM     18  C   UNL     1       5.097   4.048  18.509  0.00  0.00    +0.000 A 
ATOM     19  C   UNL     1       4.928   5.060  17.562  0.00  0.00    +0.000 A 
ATOM     20  C   UNL     1       3.830   5.921  17.655  0.00  0.00    +0.000 A 
ATOM     21  C   UNL     1       2.900   5.756  18.690  0.00  0.00    +0.000 A 
BRANCH  16  23
ATOM     22  C   UNL     1       2.179   3.373  21.631  0.00  0.00    +0.000 C 
ATOM     23  C   UNL     1       2.090   4.600  20.758  0.00  0.00    +0.000 C 
ATOM     24  O   UNL     1       1.239   5.466  20.947  0.00  0.00    +0.000 OA
ENDBRANCH  16  23
ENDBRANCH   1  19
TORSDOF 3
ENDMDL
MODEL 9
REMARK VINA RESULT:      -7.2      5.546      7.004
REMARK  Name = 
REMARK  5 active torsions:
REMARK  status: ('A' for Active; 'I' for Inactive)
REMARK    1  A    between atoms: C_1  and  C_2
REMARK    2  A    between atoms: C_2  and  C_4
REMARK    3  A    between atoms: C_7  and  N_8
REMARK    4  A    between atoms: C_12  and  C_13
REMARK    5  A    between atoms: C_21  and  C_22
REMARK                            x       y       z     vdW  Elec       q    Type
REMARK                         _______ _______ _______ _____ _____    ______ ____
ROOT
ATOM      1  N   UNL     1       1.475   8.891  19.474  0.00  0.00    +0.000 N 
ATOM      2  C   UNL     1       1.750   7.575  19.738  0.00  0.00    +0.000 C 
ATOM      3  O   UNL     1       1.441   6.894  20.698  0.00  0.00    +0.000 OA
ATOM      4  C   UNL     1       2.572   7.183  18.553  0.00  0.00    +0.000 C 
ATOM      5  C   UNL     1       2.954   5.940  18.230  0.00  0.00    +0.000 C 
ATOM      6  N   UNL     1       2.838   8.302  17.788  0.00  0.00    +0.000 NA
ATOM      7  C   UNL     1       2.164   9.253  18.367  0.00  0.00    +0.000 C 
ATOM      8  C   UNL     1       2.217  10.671  17.886  0.00  0.00    +0.000 C 
ENDROOT
BRANCH   5   9
ATOM      9  C   UNL     1       2.530   4.734  18.942  0.00  0.00    +0.000 A 
ATOM     10  C   UNL     1       3.161   4.329  20.122  0.00  0.00    +0.000 A 
ATOM     11  C   UNL     1       2.708   3.195  20.807  0.00  0.00    +0.000 A 
ATOM     12  C   UNL     1       1.625   2.462  20.320  0.00  0.00    +0.000 A 
ATOM     13  C   UNL     1       0.994   2.857  19.142  0.00  0.00    +0.000 A 
ATOM     14  C   UNL     1       1.448   3.984  18.464  0.00  0.00    +0.000 A 
ATOM     15  F   UNL     1       0.824   4.348  17.332  0.00  0.00    +0.000 F 
ENDBRANCH   5   9
BRANCH   1  19
ATOM     16  C   UNL     1      -0.898  11.175  22.086  0.00  0.00    +0.000 A 
ATOM     17  C   UNL     1       0.080  10.304  22.586  0.00  0.00    +0.000 A 
ATOM     18  C   UNL     1       0.868   9.559  21.714  0.00  0.00    +0.000 A 
ATOM     19  C   UNL     1       0.723   9.702  20.332  0.00  0.00    +0.000 A 
ATOM     20  C   UNL     1      -0.239  10.579  19.822  0.00  0.00    +0.000 A 
ATOM     21  C   UNL     1      -1.060  11.300  20.699  0.00  0.00    +0.000 A 
BRANCH  16  23
ATOM     22  C   UNL     1      -1.404  13.396  23.289  0.00  0.00    +0.000 C 
ATOM     23  C   UNL     1      -1.772  11.960  23.007  0.00  0.00    +0.000 C 
ATOM     24  O   UNL     1      -2.770  11.441  23.501  0.00  0.00    +0.000 OA
ENDBRANCH  16  23
ENDBRANCH   1  19
TORSDOF 3
ENDMDL
