MODEL 1
REMARK VINA RESULT:      -8.5      0.000      0.000
REMARK  Name = 
REMARK  8 active torsions:
REMARK  status: ('A' for Active; 'I' for Inactive)
REMARK    1  A    between atoms: C_1  and  O_2
REMARK    2  A    between atoms: O_2  and  C_3
REMARK    3  A    between atoms: C_8  and  C_9
REMARK    4  A    between atoms: C_10  and  C_11
REMARK    5  A    between atoms: C_11  and  C_13
REMARK    6  A    between atoms: C_14  and  C_15
REMARK    7  A    between atoms: C_18  and  O_19
REMARK    8  A    between atoms: O_19  and  C_20
REMARK                            x       y       z     vdW  Elec       q    Type
REMARK                         _______ _______ _______ _____ _____    ______ ____
ROOT
ATOM      1  C   UNL     1       2.002   7.895  19.291  0.00  0.00    +0.000 A 
ATOM      2  C   UNL     1       2.782   7.621  18.158  0.00  0.00    +0.000 A 
ATOM      3  C   UNL     1       3.525   6.435  18.033  0.00  0.00    +0.000 A 
ATOM      4  C   UNL     1       3.546   5.492  19.049  0.00  0.00    +0.000 A 
ATOM      5  C   UNL     1       2.711   5.679  20.156  0.00  0.00    +0.000 A 
ATOM      6  C   UNL     1       1.945   6.877  20.271  0.00  0.00    +0.000 A 
ENDROOT
BRANCH   1   8
ATOM      7  C   UNL     1       0.861   9.738  20.629  0.00  0.00    +0.000 C 
ATOM      8  C   UNL     1       1.297   9.213  19.475  0.00  0.00    +0.000 C 
BRANCH   7   9
ATOM      9  C   UNL     1       0.065  11.027  20.744  0.00  0.00    +0.000 C 
ATOM     10  O   UNL     1       0.188  11.778  21.704  0.00  0.00    +0.000 OA
BRANCH   9  12
ATOM     11  C   UNL     1      -1.734  10.396  19.084  0.00  0.00    +0.000 C 
ATOM     12  C   UNL     1      -0.884  11.308  19.608  0.00  0.00    +0.000 C 
BRANCH  11  18
ATOM     13  C   UNL     1      -3.903  11.172  17.952  0.00  0.00    +0.000 A 
ATOM     14  C   UNL     1      -4.646  11.383  16.775  0.00  0.00    +0.000 A 
ATOM     15  C   UNL     1      -4.119  11.081  15.529  0.00  0.00    +0.000 A 
ATOM     16  C   UNL     1      -2.843  10.545  15.436  0.00  0.00    +0.000 A 
ATOM     17  C   UNL     1      -2.089  10.317  16.608  0.00  0.00    +0.000 A 
ATOM     18  C   UNL     1      -2.610  10.596  17.878  0.00  0.00    +0.000 A 
BRANCH  13  20
ATOM     19  C   UNL     1      -5.005  12.776  19.308  0.00  0.00    +0.000 C 
ATOM     20  O   UNL     1      -4.392  11.497  19.194  0.00  0.00    +0.000 OA
ENDBRANCH  13  20
ENDBRANCH  11  18
ENDBRANCH   9  12
ENDBRANCH   7   9
ENDBRANCH   1   8
BRANCH   4  21
ATOM     21  O   UNL     1       4.279   4.350  18.770  0.00  0.00    +0.000 OA
BRANCH  21  22
ATOM     22  C   UNL     1       5.568   4.494  18.295  0.00  0.00    +0.000 A 
ATOM     23  N   UNL     1       6.434   4.836  19.266  0.00  0.00    +0.000 NA
ATOM     24  C   UNL     1       7.538   5.444  18.844  0.00  0.00    +0.000 A 
ATOM     25  N   UNL     1       7.764   5.847  17.592  0.00  0.00    +0.000 NA
ATOM     26  C   UNL     1       6.979   5.321  16.649  0.00  0.00    +0.000 A 
ATOM     27  C   UNL     1       7.250   5.614  15.322  0.00  0.00    +0.000 A 
ATOM     28  C   UNL     1       6.744   4.829  14.287  0.00  0.00    +0.000 A 
ATOM     29  C   UNL     1       5.952   3.731  14.595  0.00  0.00    +0.000 A 
ATOM     30  C   UNL     1       5.500   3.563  15.907  0.00  0.00    +0.000 A 
ATOM     31  C   UNL     1       5.949   4.435  16.945  0.00  0.00    +0.000 A 
ENDBRANCH  21  22
ENDBRANCH   4  21
TORSDOF 7
ENDMDL
MODEL 2
REMARK VINA RESULT:      -8.5      1.376      2.291
REMARK  Name = 
REMARK  8 active torsions:
REMARK  status: ('A' for Active; 'I' for Inactive)
REMARK    1  A    between atoms: C_1  and  O_2
REMARK    2  A    between atoms: O_2  and  C_3
REMARK    3  A    between atoms: C_8  and  C_9
REMARK    4  A    between atoms: C_10  and  C_11
REMARK    5  A    between atoms: C_11  and  C_13
REMARK    6  A    between atoms: C_14  and  C_15
REMARK    7  A    between atoms: C_18  and  O_19
REMARK    8  A    between atoms: O_19  and  C_20
REMARK                            x       y       z     vdW  Elec       q    Type
REMARK                         _______ _______ _______ _____ _____    ______ ____
ROOT
ATOM      1  C   UNL     1       1.830   8.267  19.215  0.00  0.00    +0.000 A 
ATOM      2  C   UNL     1       1.884   7.283  20.213  0.00  0.00    +0.000 A 
ATOM      3  C   UNL     1       2.653   6.115  20.069  0.00  0.00    +0.000 A 
ATOM      4  C   UNL     1       3.370   5.868  18.908  0.00  0.00    +0.000 A 
ATOM      5  C   UNL     1       3.420   6.864  17.925  0.00  0.00    +0.000 A 
ATOM      6  C   UNL     1       2.652   8.054  18.084  0.00  0.00    +0.000 A 
ENDROOT
BRANCH   1   8
ATOM      7  C   UNL     1       0.178   9.997  18.342  0.00  0.00    +0.000 C 
ATOM      8  C   UNL     1       0.919   9.462  19.322  0.00  0.00    +0.000 C 
BRANCH   7   9
ATOM      9  C   UNL     1      -0.647  11.266  18.478  0.00  0.00    +0.000 C 
ATOM     10  O   UNL     1      -0.154  12.376  18.328  0.00  0.00    +0.000 OA
BRANCH   9  12
ATOM     11  C   UNL     1      -3.096  11.893  18.435  0.00  0.00    +0.000 C 
ATOM     12  C   UNL     1      -2.102  11.060  18.817  0.00  0.00    +0.000 C 
BRANCH  11  18
ATOM     13  C   UNL     1      -5.079  12.511  19.943  0.00  0.00    +0.000 A 
ATOM     14  C   UNL     1      -6.453  12.414  20.238  0.00  0.00    +0.000 A 
ATOM     15  C   UNL     1      -7.305  11.660  19.447  0.00  0.00    +0.000 A 
ATOM     16  C   UNL     1      -6.799  10.974  18.353  0.00  0.00    +0.000 A 
ATOM     17  C   UNL     1      -5.422  11.052  18.051  0.00  0.00    +0.000 A 
ATOM     18  C   UNL     1      -4.539  11.792  18.847  0.00  0.00    +0.000 A 
BRANCH  13  20
ATOM     19  C   UNL     1      -3.945  12.807  22.005  0.00  0.00    +0.000 C 
ATOM     20  O   UNL     1      -4.222  13.281  20.692  0.00  0.00    +0.000 OA
ENDBRANCH  13  20
ENDBRANCH  11  18
ENDBRANCH   9  12
ENDBRANCH   7   9
ENDBRANCH   1   8
BRANCH   4  21
ATOM     21  O   UNL     1       4.122   4.705  18.923  0.00  0.00    +0.000 OA
BRANCH  21  22
ATOM     22  C   UNL     1       5.435   4.766  18.495  0.00  0.00    +0.000 A 
ATOM     23  N   UNL     1       6.276   5.129  19.480  0.00  0.00    +0.000 NA
ATOM     24  C   UNL     1       7.422   5.663  19.070  0.00  0.00    +0.000 A 
ATOM     25  N   UNL     1       7.715   5.979  17.806  0.00  0.00    +0.000 NA
ATOM     26  C   UNL     1       6.946   5.430  16.864  0.00  0.00    +0.000 A 
ATOM     27  C   UNL     1       7.281   5.629  15.534  0.00  0.00    +0.000 A 
ATOM     28  C   UNL     1       6.783   4.803  14.527  0.00  0.00    +0.000 A 
ATOM     29  C   UNL     1       5.930   3.760  14.867  0.00  0.00    +0.000 A 
ATOM     30  C   UNL     1       5.420   3.693  16.166  0.00  0.00    +0.000 A 
ATOM     31  C   UNL     1       5.866   4.607  17.168  0.00  0.00    +0.000 A 
ENDBRANCH  21  22
ENDBRANCH   4  21
TORSDOF 7
ENDMDL
MODEL 3
REMARK VINA RESULT:      -8.4      2.532      4.046
REMARK  Name = 
REMARK  8 active torsions:
REMARK  status: ('A' for Active; 'I' for Inactive)
REMARK    1  A    between atoms: C_1  and  O_2
REMARK    2  A    between atoms: O_2  and  C_3
REMARK    3  A    between atoms: C_8  and  C_9
REMARK    4  A    between atoms: C_10  and  C_11
REMARK    5  A    between atoms: C_11  and  C_13
REMARK    6  A    between atoms: C_14  and  C_15
REMARK    7  A    between atoms: C_18  and  O_19
REMARK    8  A    between atoms: O_19  and  C_20
REMARK                            x       y       z     vdW  Elec       q    Type
REMARK                         _______ _______ _______ _____ _____    ______ ____
ROOT
ATOM      1  C   UNL     1       1.452   9.208  19.479  0.00  0.00    +0.000 A 
ATOM      2  C   UNL     1       1.701   9.137  18.100  0.00  0.00    +0.000 A 
ATOM      3  C   UNL     1       2.182   7.967  17.488  0.00  0.00    +0.000 A 
ATOM      4  C   UNL     1       2.465   6.833  18.233  0.00  0.00    +0.000 A 
ATOM      5  C   UNL     1       2.144   6.827  19.595  0.00  0.00    +0.000 A 
ATOM      6  C   UNL     1       1.640   8.011  20.209  0.00  0.00    +0.000 A 
ENDROOT
BRANCH   1   8
ATOM      7  C   UNL     1       0.403  10.619  21.320  0.00  0.00    +0.000 C 
ATOM      8  C   UNL     1       1.045  10.492  20.151  0.00  0.00    +0.000 C 
BRANCH   7   9
ATOM      9  C   UNL     1      -0.074  11.938  21.906  0.00  0.00    +0.000 C 
ATOM     10  O   UNL     1       0.611  12.952  21.854  0.00  0.00    +0.000 OA
BRANCH   9  12
ATOM     11  C   UNL     1      -2.508  12.591  22.100  0.00  0.00    +0.000 C 
ATOM     12  C   UNL     1      -1.434  11.907  22.554  0.00  0.00    +0.000 C 
BRANCH  11  18
ATOM     13  C   UNL     1      -5.054  12.920  22.074  0.00  0.00    +0.000 A 
ATOM     14  C   UNL     1      -6.280  12.937  22.766  0.00  0.00    +0.000 A 
ATOM     15  C   UNL     1      -6.340  12.678  24.126  0.00  0.00    +0.000 A 
ATOM     16  C   UNL     1      -5.172  12.413  24.826  0.00  0.00    +0.000 A 
ATOM     17  C   UNL     1      -3.933  12.404  24.149  0.00  0.00    +0.000 A 
ATOM     18  C   UNL     1      -3.847  12.683  22.779  0.00  0.00    +0.000 A 
BRANCH  13  20
ATOM     19  C   UNL     1      -5.703  12.234  19.898  0.00  0.00    +0.000 C 
ATOM     20  O   UNL     1      -4.975  13.140  20.719  0.00  0.00    +0.000 OA
ENDBRANCH  13  20
ENDBRANCH  11  18
ENDBRANCH   9  12
ENDBRANCH   7   9
ENDBRANCH   1   8
BRANCH   4  21
ATOM     21  O   UNL     1       2.883   5.738  17.494  0.00  0.00    +0.000 OA
BRANCH  21  22
ATOM     22  C   UNL     1       4.018   5.063  17.902  0.00  0.00    +0.000 A 
ATOM     23  N   UNL     1       3.734   3.856  18.422  0.00  0.00    +0.000 NA
ATOM     24  C   UNL     1       4.658   3.369  19.245  0.00  0.00    +0.000 A 
ATOM     25  N   UNL     1       5.730   4.036  19.680  0.00  0.00    +0.000 NA
ATOM     26  C   UNL     1       6.063   5.133  18.997  0.00  0.00    +0.000 A 
ATOM     27  C   UNL     1       7.235   5.793  19.332  0.00  0.00    +0.000 A 
ATOM     28  C   UNL     1       7.841   6.688  18.453  0.00  0.00    +0.000 A 
ATOM     29  C   UNL     1       7.257   6.923  17.215  0.00  0.00    +0.000 A 
ATOM     30  C   UNL     1       5.972   6.433  16.964  0.00  0.00    +0.000 A 
ATOM     31  C   UNL     1       5.318   5.594  17.916  0.00  0.00    +0.000 A 
ENDBRANCH  21  22
ENDBRANCH   4  21
TORSDOF 7
ENDMDL
MODEL 4
REMARK VINA RESULT:      -8.4      4.723     11.087
REMARK  Name = 
REMARK  8 active torsions:
REMARK  status: ('A' for Active; 'I' for Inactive)
REMARK    1  A    between atoms: C_1  and  O_2
REMARK    2  A    between atoms: O_2  and  C_3
REMARK    3  A    between atoms: C_8  and  C_9
REMARK    4  A    between atoms: C_10  and  C_11
REMARK    5  A    between atoms: C_11  and  C_13
REMARK    6  A    between atoms: C_14  and  C_15
REMARK    7  A    between atoms: C_18  and  O_19
REMARK    8  A    between atoms: O_19  and  C_20
REMARK                            x       y       z     vdW  Elec       q    Type
REMARK                         _______ _______ _______ _____ _____    ______ ____
ROOT
ATOM      1  C   UNL     1      -1.499  10.498  18.780  0.00  0.00    +0.000 A 
ATOM      2  C   UNL     1      -1.981   9.919  17.596  0.00  0.00    +0.000 A 
ATOM      3  C   UNL     1      -3.154  10.371  16.968  0.00  0.00    +0.000 A 
ATOM      4  C   UNL     1      -3.912  11.393  17.517  0.00  0.00    +0.000 A 
ATOM      5  C   UNL     1      -3.422  12.062  18.645  0.00  0.00    +0.000 A 
ATOM      6  C   UNL     1      -2.221  11.611  19.269  0.00  0.00    +0.000 A 
ENDROOT
BRANCH   1   8
ATOM      7  C   UNL     1      -0.246   9.599  20.806  0.00  0.00    +0.000 C 
ATOM      8  C   UNL     1      -0.307   9.942  19.512  0.00  0.00    +0.000 C 
BRANCH   7   9
ATOM      9  C   UNL     1       1.014   9.136  21.519  0.00  0.00    +0.000 C 
ATOM     10  O   UNL     1       1.422   9.688  22.534  0.00  0.00    +0.000 OA
BRANCH   9  12
ATOM     11  C   UNL     1       1.211   6.718  20.811  0.00  0.00    +0.000 C 
ATOM     12  C   UNL     1       1.724   7.966  20.888  0.00  0.00    +0.000 C 
BRANCH  11  18
ATOM     13  C   UNL     1       2.610   5.471  19.056  0.00  0.00    +0.000 A 
ATOM     14  C   UNL     1       3.310   4.314  18.664  0.00  0.00    +0.000 A 
ATOM     15  C   UNL     1       3.386   3.207  19.494  0.00  0.00    +0.000 A 
ATOM     16  C   UNL     1       2.751   3.227  20.727  0.00  0.00    +0.000 A 
ATOM     17  C   UNL     1       2.036   4.376  21.129  0.00  0.00    +0.000 A 
ATOM     18  C   UNL     1       1.928   5.499  20.299  0.00  0.00    +0.000 A 
BRANCH  13  20
ATOM     19  C   UNL     1       3.781   7.017  17.691  0.00  0.00    +0.000 C 
ATOM     20  O   UNL     1       2.550   6.594  18.265  0.00  0.00    +0.000 OA
ENDBRANCH  13  20
ENDBRANCH  11  18
ENDBRANCH   9  12
ENDBRANCH   7   9
ENDBRANCH   1   8
BRANCH   4  21
ATOM     21  O   UNL     1      -5.014  11.770  16.767  0.00  0.00    +0.000 OA
BRANCH  21  22
ATOM     22  C   UNL     1      -6.172  12.125  17.433  0.00  0.00    +0.000 A 
ATOM     23  N   UNL     1      -6.685  13.284  16.981  0.00  0.00    +0.000 NA
ATOM     24  C   UNL     1      -7.475  13.919  17.841  0.00  0.00    +0.000 A 
ATOM     25  N   UNL     1      -7.666  13.570  19.115  0.00  0.00    +0.000 NA
ATOM     26  C   UNL     1      -7.299  12.331  19.451  0.00  0.00    +0.000 A 
ATOM     27  C   UNL     1      -7.586  11.878  20.729  0.00  0.00    +0.000 A 
ATOM     28  C   UNL     1      -7.591  10.517  21.033  0.00  0.00    +0.000 A 
ATOM     29  C   UNL     1      -7.301   9.598  20.033  0.00  0.00    +0.000 A 
ATOM     30  C   UNL     1      -6.801  10.056  18.811  0.00  0.00    +0.000 A 
ATOM     31  C   UNL     1      -6.709  11.456  18.545  0.00  0.00    +0.000 A 
ENDBRANCH  21  22
ENDBRANCH   4  21
TORSDOF 7
ENDMDL
MODEL 5
REMARK VINA RESULT:      -8.4      6.704     10.382
REMARK  Name = 
REMARK  8 active torsions:
REMARK  status: ('A' for Active; 'I' for Inactive)
REMARK    1  A    between atoms: C_1  and  O_2
REMARK    2  A    between atoms: O_2  and  C_3
REMARK    3  A    between atoms: C_8  and  C_9
REMARK    4  A    between atoms: C_10  and  C_11
REMARK    5  A    between atoms: C_11  and  C_13
REMARK    6  A    between atoms: C_14  and  C_15
REMARK    7  A    between atoms: C_18  and  O_19
REMARK    8  A    between atoms: O_19  and  C_20
REMARK                            x       y       z     vdW  Elec       q    Type
REMARK                         _______ _______ _______ _____ _____    ______ ____
ROOT
ATOM      1  C   UNL     1       8.746   9.815  18.524  0.00  0.00    +0.000 A 
ATOM      2  C   UNL     1       9.496  10.192  19.649  0.00  0.00    +0.000 A 
ATOM      3  C   UNL     1       9.982  11.501  19.817  0.00  0.00    +0.000 A 
ATOM      4  C   UNL     1       9.767  12.473  18.853  0.00  0.00    +0.000 A 
ATOM      5  C   UNL     1       8.946  12.168  17.761  0.00  0.00    +0.000 A 
ATOM      6  C   UNL     1       8.442  10.844  17.603  0.00  0.00    +0.000 A 
ENDROOT
BRANCH   1   8
ATOM      7  C   UNL     1       7.277   7.970  17.564  0.00  0.00    +0.000 C 
ATOM      8  C   UNL     1       8.323   8.389  18.290  0.00  0.00    +0.000 C 
BRANCH   7   9
ATOM      9  C   UNL     1       6.835   6.521  17.443  0.00  0.00    +0.000 C 
ATOM     10  O   UNL     1       7.561   5.663  16.957  0.00  0.00    +0.000 OA
BRANCH   9  12
ATOM     11  C   UNL     1       5.181   5.379  18.975  0.00  0.00    +0.000 C 
ATOM     12  C   UNL     1       5.449   6.221  17.952  0.00  0.00    +0.000 C 
BRANCH  11  18
ATOM     13  C   UNL     1       3.397   3.606  19.490  0.00  0.00    +0.000 A 
ATOM     14  C   UNL     1       2.120   3.281  19.988  0.00  0.00    +0.000 A 
ATOM     15  C   UNL     1       1.271   4.260  20.477  0.00  0.00    +0.000 A 
ATOM     16  C   UNL     1       1.673   5.588  20.463  0.00  0.00    +0.000 A 
ATOM     17  C   UNL     1       2.945   5.931  19.955  0.00  0.00    +0.000 A 
ATOM     18  C   UNL     1       3.812   4.960  19.438  0.00  0.00    +0.000 A 
BRANCH  13  20
ATOM     19  C   UNL     1       3.679   1.513  18.409  0.00  0.00    +0.000 C 
ATOM     20  O   UNL     1       4.269   2.648  19.032  0.00  0.00    +0.000 OA
ENDBRANCH  13  20
ENDBRANCH  11  18
ENDBRANCH   9  12
ENDBRANCH   7   9
ENDBRANCH   1   8
BRANCH   4  21
ATOM     21  O   UNL     1      10.257  13.730  19.172  0.00  0.00    +0.000 OA
BRANCH  21  22
ATOM     22  C   UNL     1       9.701  14.830  18.548  0.00  0.00    +0.000 A 
ATOM     23  N   UNL     1      10.453  15.270  17.524  0.00  0.00    +0.000 NA
ATOM     24  C   UNL     1      10.263  16.545  17.196  0.00  0.00    +0.000 A 
ATOM     25  N   UNL     1       9.514  17.412  17.881  0.00  0.00    +0.000 NA
ATOM     26  C   UNL     1       8.652  16.890  18.756  0.00  0.00    +0.000 A 
ATOM     27  C   UNL     1       7.768  17.738  19.404  0.00  0.00    +0.000 A 
ATOM     28  C   UNL     1       6.615  17.254  20.019  0.00  0.00    +0.000 A 
ATOM     29  C   UNL     1       6.348  15.892  19.981  0.00  0.00    +0.000 A 
ATOM     30  C   UNL     1       7.337  15.016  19.525  0.00  0.00    +0.000 A 
ATOM     31  C   UNL     1       8.559  15.521  18.985  0.00  0.00    +0.000 A 
ENDBRANCH  21  22
ENDBRANCH   4  21
TORSDOF 7
ENDMDL
MODEL 6
REMARK VINA RESULT:      -8.4      6.807     10.183
REMARK  Name = 
REMARK  8 active torsions:
REMARK  status: ('A' for Active; 'I' for Inactive)
REMARK    1  A    between atoms: C_1  and  O_2
REMARK    2  A    between atoms: O_2  and  C_3
REMARK    3  A    between atoms: C_8  and  C_9
REMARK    4  A    between atoms: C_10  and  C_11
REMARK    5  A    between atoms: C_11  and  C_13
REMARK    6  A    between atoms: C_14  and  C_15
REMARK    7  A    between atoms: C_18  and  O_19
REMARK    8  A    between atoms: O_19  and  C_20
REMARK                            x       y       z     vdW  Elec       q    Type
REMARK                         _______ _______ _______ _____ _____    ______ ____
ROOT
ATOM      1  C   UNL     1       8.474   9.649  18.219  0.00  0.00    +0.000 A 
ATOM      2  C   UNL     1       8.551  10.833  17.469  0.00  0.00    +0.000 A 
ATOM      3  C   UNL     1       9.154  11.997  17.973  0.00  0.00    +0.000 A 
ATOM      4  C   UNL     1       9.673  12.037  19.258  0.00  0.00    +0.000 A 
ATOM      5  C   UNL     1       9.703  10.855  20.007  0.00  0.00    +0.000 A 
ATOM      6  C   UNL     1       9.105   9.670  19.485  0.00  0.00    +0.000 A 
ENDROOT
BRANCH   1   8
ATOM      7  C   UNL     1       7.855   7.180  18.168  0.00  0.00    +0.000 C 
ATOM      8  C   UNL     1       7.730   8.438  17.723  0.00  0.00    +0.000 C 
BRANCH   7   9
ATOM      9  C   UNL     1       7.152   5.976  17.563  0.00  0.00    +0.000 C 
ATOM     10  O   UNL     1       7.514   5.481  16.503  0.00  0.00    +0.000 OA
BRANCH   9  12
ATOM     11  C   UNL     1       4.689   5.593  17.986  0.00  0.00    +0.000 C 
ATOM     12  C   UNL     1       5.982   5.444  18.351  0.00  0.00    +0.000 C 
BRANCH  11  18
ATOM     13  C   UNL     1       2.977   3.864  18.802  0.00  0.00    +0.000 A 
ATOM     14  C   UNL     1       1.885   3.537  19.630  0.00  0.00    +0.000 A 
ATOM     15  C   UNL     1       1.327   4.475  20.483  0.00  0.00    +0.000 A 
ATOM     16  C   UNL     1       1.836   5.765  20.514  0.00  0.00    +0.000 A 
ATOM     17  C   UNL     1       2.923   6.111  19.681  0.00  0.00    +0.000 A 
ATOM     18  C   UNL     1       3.490   5.185  18.797  0.00  0.00    +0.000 A 
BRANCH  13  20
ATOM     19  C   UNL     1       3.476   1.582  18.388  0.00  0.00    +0.000 C 
ATOM     20  O   UNL     1       3.569   2.940  17.974  0.00  0.00    +0.000 OA
ENDBRANCH  13  20
ENDBRANCH  11  18
ENDBRANCH   9  12
ENDBRANCH   7   9
ENDBRANCH   1   8
BRANCH   4  21
ATOM     21  O   UNL     1      10.282  13.232  19.605  0.00  0.00    +0.000 OA
BRANCH  21  22
ATOM     22  C   UNL     1      10.320  14.247  18.669  0.00  0.00    +0.000 A 
ATOM     23  N   UNL     1      11.405  14.172  17.879  0.00  0.00    +0.000 NA
ATOM     24  C   UNL     1      11.762  15.318  17.307  0.00  0.00    +0.000 A 
ATOM     25  N   UNL     1      11.223  16.511  17.570  0.00  0.00    +0.000 NA
ATOM     26  C   UNL     1      10.045  16.503  18.198  0.00  0.00    +0.000 A 
ATOM     27  C   UNL     1       9.386  17.707  18.388  0.00  0.00    +0.000 A 
ATOM     28  C   UNL     1       8.023  17.752  18.675  0.00  0.00    +0.000 A 
ATOM     29  C   UNL     1       7.312  16.563  18.774  0.00  0.00    +0.000 A 
ATOM     30  C   UNL     1       8.010  15.352  18.802  0.00  0.00    +0.000 A 
ATOM     31  C   UNL     1       9.423  15.326  18.603  0.00  0.00    +0.000 A 
ENDBRANCH  21  22
ENDBRANCH   4  21
TORSDOF 7
ENDMDL
MODEL 7
REMARK VINA RESULT:      -8.4      5.898      9.336
REMARK  Name = 
REMARK  8 active torsions:
REMARK  status: ('A' for Active; 'I' for Inactive)
REMARK    1  A    between atoms: C_1  and  O_2
REMARK    2  A    between atoms: O_2  and  C_3
REMARK    3  A    between atoms: C_8  and  C_9
REMARK    4  A    between atoms: C_10  and  C_11
REMARK    5  A    between atoms: C_11  and  C_13
REMARK    6  A    between atoms: C_14  and  C_15
REMARK    7  A    between atoms: C_18  and  O_19
REMARK    8  A    between atoms: O_19  and  C_20
REMARK                            x       y       z     vdW  Elec       q    Type
REMARK                         _______ _______ _______ _____ _____    ______ ____
ROOT
ATOM      1  C   UNL     1       7.682   7.748  17.992  0.00  0.00    +0.000 A 
ATOM      2  C   UNL     1       6.544   7.552  17.194  0.00  0.00    +0.000 A 
ATOM      3  C   UNL     1       5.828   6.343  17.201  0.00  0.00    +0.000 A 
ATOM      4  C   UNL     1       6.240   5.271  17.978  0.00  0.00    +0.000 A 
ATOM      5  C   UNL     1       7.313   5.452  18.858  0.00  0.00    +0.000 A 
ATOM      6  C   UNL     1       8.026   6.686  18.860  0.00  0.00    +0.000 A 
ENDROOT
BRANCH   1   8
ATOM      7  C   UNL     1       9.003   9.716  18.923  0.00  0.00    +0.000 C 
ATOM      8  C   UNL     1       8.513   9.000  17.900  0.00  0.00    +0.000 C 
BRANCH   7   9
ATOM      9  C   UNL     1       9.752  11.030  18.775  0.00  0.00    +0.000 C 
ATOM     10  O   UNL     1      10.253  11.373  17.712  0.00  0.00    +0.000 OA
BRANCH   9  12
ATOM     11  C   UNL     1       9.120  12.996  20.234  0.00  0.00    +0.000 C 
ATOM     12  C   UNL     1       9.839  11.871  20.024  0.00  0.00    +0.000 C 
BRANCH  11  18
ATOM     13  C   UNL     1       8.627  13.694  22.655  0.00  0.00    +0.000 A 
ATOM     14  C   UNL     1       8.847  14.577  23.730  0.00  0.00    +0.000 A 
ATOM     15  C   UNL     1       9.715  15.651  23.609  0.00  0.00    +0.000 A 
ATOM     16  C   UNL     1      10.367  15.875  22.406  0.00  0.00    +0.000 A 
ATOM     17  C   UNL     1      10.147  15.006  21.315  0.00  0.00    +0.000 A 
ATOM     18  C   UNL     1       9.260  13.926  21.408  0.00  0.00    +0.000 A 
BRANCH  13  20
ATOM     19  C   UNL     1       7.765  11.969  24.036  0.00  0.00    +0.000 C 
ATOM     20  O   UNL     1       7.798  12.603  22.763  0.00  0.00    +0.000 OA
ENDBRANCH  13  20
ENDBRANCH  11  18
ENDBRANCH   9  12
ENDBRANCH   7   9
ENDBRANCH   1   8
BRANCH   4  21
ATOM     21  O   UNL     1       5.412   4.160  17.926  0.00  0.00    +0.000 OA
BRANCH  21  22
ATOM     22  C   UNL     1       4.738   3.789  19.074  0.00  0.00    +0.000 A 
ATOM     23  N   UNL     1       5.207   2.639  19.591  0.00  0.00    +0.000 NA
ATOM     24  C   UNL     1       4.350   1.983  20.368  0.00  0.00    +0.000 A 
ATOM     25  N   UNL     1       3.066   2.306  20.541  0.00  0.00    +0.000 NA
ATOM     26  C   UNL     1       2.710   3.539  20.174  0.00  0.00    +0.000 A 
ATOM     27  C   UNL     1       1.419   3.965  20.444  0.00  0.00    +0.000 A 
ATOM     28  C   UNL     1       1.087   5.319  20.448  0.00  0.00    +0.000 A 
ATOM     29  C   UNL     1       2.072   6.259  20.174  0.00  0.00    +0.000 A 
ATOM     30  C   UNL     1       3.310   5.828  19.690  0.00  0.00    +0.000 A 
ATOM     31  C   UNL     1       3.606   4.434  19.597  0.00  0.00    +0.000 A 
ENDBRANCH  21  22
ENDBRANCH   4  21
TORSDOF 7
ENDMDL
MODEL 8
REMARK VINA RESULT:      -8.4      7.477     10.477
REMARK  Name = 
REMARK  8 active torsions:
REMARK  status: ('A' for Active; 'I' for Inactive)
REMARK    1  A    between atoms: C_1  and  O_2
REMARK    2  A    between atoms: O_2  and  C_3
REMARK    3  A    between atoms: C_8  and  C_9
REMARK    4  A    between atoms: C_10  and  C_11
REMARK    5  A    between atoms: C_11  and  C_13
REMARK    6  A    between atoms: C_14  and  C_15
REMARK    7  A    between atoms: C_18  and  O_19
REMARK    8  A    between atoms: O_19  and  C_20
REMARK                            x       y       z     vdW  Elec       q    Type
REMARK                         _______ _______ _______ _____ _____    ______ ____
ROOT
ATOM      1  C   UNL     1       9.136  10.220  18.608  0.00  0.00    +0.000 A 
ATOM      2  C   UNL     1       9.817  11.131  17.785  0.00  0.00    +0.000 A 
ATOM      3  C   UNL     1      10.590  12.179  18.313  0.00  0.00    +0.000 A 
ATOM      4  C   UNL     1      10.685  12.381  19.681  0.00  0.00    +0.000 A 
ATOM      5  C   UNL     1      10.101  11.443  20.541  0.00  0.00    +0.000 A 
ATOM      6  C   UNL     1       9.331  10.371  20.001  0.00  0.00    +0.000 A 
ENDROOT
BRANCH   1   8
ATOM      7  C   UNL     1       8.251   7.853  18.302  0.00  0.00    +0.000 C 
ATOM      8  C   UNL     1       8.219   9.168  18.045  0.00  0.00    +0.000 C 
BRANCH   7   9
ATOM      9  C   UNL     1       7.364   6.819  17.627  0.00  0.00    +0.000 C 
ATOM     10  O   UNL     1       7.436   6.592  16.426  0.00  0.00    +0.000 OA
BRANCH   9  12
ATOM     11  C   UNL     1       5.410   5.287  18.100  0.00  0.00    +0.000 C 
ATOM     12  C   UNL     1       6.393   6.107  18.534  0.00  0.00    +0.000 C 
BRANCH  11  18
ATOM     13  C   UNL     1       3.162   5.325  19.339  0.00  0.00    +0.000 A 
ATOM     14  C   UNL     1       2.183   4.650  20.094  0.00  0.00    +0.000 A 
ATOM     15  C   UNL     1       2.334   3.315  20.434  0.00  0.00    +0.000 A 
ATOM     16  C   UNL     1       3.475   2.631  20.041  0.00  0.00    +0.000 A 
ATOM     17  C   UNL     1       4.470   3.297  19.293  0.00  0.00    +0.000 A 
ATOM     18  C   UNL     1       4.348   4.651  18.956  0.00  0.00    +0.000 A 
BRANCH  13  20
ATOM     19  C   UNL     1       2.185   7.439  19.792  0.00  0.00    +0.000 C 
ATOM     20  O   UNL     1       3.017   6.638  18.960  0.00  0.00    +0.000 OA
ENDBRANCH  13  20
ENDBRANCH  11  18
ENDBRANCH   9  12
ENDBRANCH   7   9
ENDBRANCH   1   8
BRANCH   4  21
ATOM     21  O   UNL     1      11.521  13.419  20.061  0.00  0.00    +0.000 OA
BRANCH  21  22
ATOM     22  C   UNL     1      10.976  14.681  20.210  0.00  0.00    +0.000 A 
ATOM     23  N   UNL     1      10.212  14.779  21.312  0.00  0.00    +0.000 NA
ATOM     24  C   UNL     1       9.302  15.748  21.279  0.00  0.00    +0.000 A 
ATOM     25  N   UNL     1       9.017  16.500  20.213  0.00  0.00    +0.000 NA
ATOM     26  C   UNL     1       9.918  16.497  19.227  0.00  0.00    +0.000 A 
ATOM     27  C   UNL     1       9.729  17.352  18.153  0.00  0.00    +0.000 A 
ATOM     28  C   UNL     1      10.778  17.688  17.299  0.00  0.00    +0.000 A 
ATOM     29  C   UNL     1      12.038  17.153  17.530  0.00  0.00    +0.000 A 
ATOM     30  C   UNL     1      12.182  16.128  18.471  0.00  0.00    +0.000 A 
ATOM     31  C   UNL     1      11.074  15.724  19.275  0.00  0.00    +0.000 A 
ENDBRANCH  21  22
ENDBRANCH   4  21
TORSDOF 7
ENDMDL
MODEL 9
REMARK VINA RESULT:      -8.4      7.379     10.590
REMARK  Name = 
REMARK  8 active torsions:
REMARK  status: ('A' for Active; 'I' for Inactive)
REMARK    1  A    between atoms: C_1  and  O_2
REMARK    2  A    between atoms: O_2  and  C_3
REMARK    3  A    between atoms: C_8  and  C_9
REMARK    4  A    between atoms: C_10  and  C_11
REMARK    5  A    between atoms: C_11  and  C_13
REMARK    6  A    between atoms: C_14  and  C_15
REMARK    7  A    between atoms: C_18  and  O_19
REMARK    8  A    between atoms: O_19  and  C_20
REMARK                            x       y       z     vdW  Elec       q    Type
REMARK                         _______ _______ _______ _____ _____    ______ ____
ROOT
ATOM      1  C   UNL     1       8.780  10.290  18.357  0.00  0.00    +0.000 A 
ATOM      2  C   UNL     1       9.322  10.105  19.638  0.00  0.00    +0.000 A 
ATOM      3  C   UNL     1      10.149  11.066  20.244  0.00  0.00    +0.000 A 
ATOM      4  C   UNL     1      10.496  12.233  19.582  0.00  0.00    +0.000 A 
ATOM      5  C   UNL     1       9.904  12.502  18.342  0.00  0.00    +0.000 A 
ATOM      6  C   UNL     1       9.052  11.532  17.738  0.00  0.00    +0.000 A 
ENDROOT
BRANCH   1   8
ATOM      7  C   UNL     1       8.001   7.902  17.940  0.00  0.00    +0.000 C 
ATOM      8  C   UNL     1       7.988   9.213  17.663  0.00  0.00    +0.000 C 
BRANCH   7   9
ATOM      9  C   UNL     1       7.257   6.844  17.141  0.00  0.00    +0.000 C 
ATOM     10  O   UNL     1       7.736   6.340  16.133  0.00  0.00    +0.000 OA
BRANCH   9  12
ATOM     11  C   UNL     1       5.542   5.220  18.042  0.00  0.00    +0.000 C 
ATOM     12  C   UNL     1       5.896   6.470  17.669  0.00  0.00    +0.000 C 
BRANCH  11  18
ATOM     13  C   UNL     1       3.939   3.680  19.327  0.00  0.00    +0.000 A 
ATOM     14  C   UNL     1       2.627   3.358  19.725  0.00  0.00    +0.000 A 
ATOM     15  C   UNL     1       1.547   4.128  19.323  0.00  0.00    +0.000 A 
ATOM     16  C   UNL     1       1.754   5.225  18.500  0.00  0.00    +0.000 A 
ATOM     17  C   UNL     1       3.062   5.554  18.083  0.00  0.00    +0.000 A 
ATOM     18  C   UNL     1       4.166   4.779  18.461  0.00  0.00    +0.000 A 
BRANCH  13  20
ATOM     19  C   UNL     1       4.746   1.788  20.508  0.00  0.00    +0.000 C 
ATOM     20  O   UNL     1       5.029   2.953  19.742  0.00  0.00    +0.000 OA
ENDBRANCH  13  20
ENDBRANCH  11  18
ENDBRANCH   9  12
ENDBRANCH   7   9
ENDBRANCH   1   8
BRANCH   4  21
ATOM     21  O   UNL     1      11.274  13.113  20.317  0.00  0.00    +0.000 OA
BRANCH  21  22
ATOM     22  C   UNL     1      10.848  14.421  20.441  0.00  0.00    +0.000 A 
ATOM     23  N   UNL     1      10.072  14.604  21.525  0.00  0.00    +0.000 NA
ATOM     24  C   UNL     1       9.259  15.654  21.462  0.00  0.00    +0.000 A 
ATOM     25  N   UNL     1       9.070  16.417  20.383  0.00  0.00    +0.000 NA
ATOM     26  C   UNL     1       9.987  16.318  19.418  0.00  0.00    +0.000 A 
ATOM     27  C   UNL     1       9.902  17.175  18.332  0.00  0.00    +0.000 A 
ATOM     28  C   UNL     1      10.996  17.400  17.498  0.00  0.00    +0.000 A 
ATOM     29  C   UNL     1      12.195  16.752  17.763  0.00  0.00    +0.000 A 
ATOM     30  C   UNL     1      12.221  15.729  18.716  0.00  0.00    +0.000 A 
ATOM     31  C   UNL     1      11.063  15.440  19.499  0.00  0.00    +0.000 A 
ENDBRANCH  21  22
ENDBRANCH   4  21
TORSDOF 7
ENDMDL
