MODEL 1
REMARK VINA RESULT:      -8.0      0.000      0.000
REMARK  Name = 
REMARK  13 active torsions:
REMARK  status: ('A' for Active; 'I' for Inactive)
REMARK    1  A    between atoms: C_1  and  C_2
REMARK    2  A    between atoms: C_2  and  C_3
REMARK    3  A    between atoms: C_2  and  N_4
REMARK    4  A    between atoms: N_4  and  C_5
REMARK    5  A    between atoms: C_7  and  N_8
REMARK    6  A    between atoms: C_13  and  C_14
REMARK    7  A    between atoms: C_21  and  C_22
REMARK    8  A    between atoms: N_24  and  C_25
REMARK    9  A    between atoms: C_25  and  C_26
REMARK   10  A    between atoms: C_26  and  C_28
REMARK   11  A    between atoms: C_28  and  C_29
REMARK   12  A    between atoms: C_28  and  C_30
REMARK   13  A    between atoms: C_28  and  O_31
REMARK                            x       y       z     vdW  Elec       q    Type
REMARK                         _______ _______ _______ _____ _____    ______ ____
ROOT
ATOM      1  C   UNL     1       2.398   5.937  20.254  0.00  0.00    +0.000 A 
ATOM      2  C   UNL     1       1.620   7.082  20.513  0.00  0.00    +0.000 A 
ATOM      3  C   UNL     1       1.615   8.130  19.602  0.00  0.00    +0.000 A 
ATOM      4  N   UNL     1       2.265   8.049  18.422  0.00  0.00    +0.000 NA
ATOM      5  C   UNL     1       3.078   6.978  18.237  0.00  0.00    +0.000 A 
ATOM      6  C   UNL     1       3.247   5.951  19.139  0.00  0.00    +0.000 A 
ENDROOT
BRANCH   3   7
ATOM      7  N   UNL     1       1.047   9.391  19.917  0.00  0.00    +0.000 N 
ATOM      8  C   UNL     1       1.041   9.886  21.213  0.00  0.00    +0.000 A 
ATOM      9  C   UNL     1       0.492  11.138  21.180  0.00  0.00    +0.000 A 
ATOM     10  C   UNL     1      -0.432  11.027  20.128  0.00  0.00    +0.000 A 
ATOM     11  C   UNL     1      -1.746  11.449  19.906  0.00  0.00    +0.000 A 
ATOM     12  C   UNL     1      -2.272  11.229  18.639  0.00  0.00    +0.000 A 
ATOM     13  C   UNL     1      -1.452  10.656  17.672  0.00  0.00    +0.000 A 
ATOM     14  N   UNL     1      -0.239  10.073  17.894  0.00  0.00    +0.000 NA
ATOM     15  C   UNL     1       0.175  10.201  19.177  0.00  0.00    +0.000 A 
BRANCH  12  16
ATOM     16  C   UNL     1      -3.646  11.532  18.355  0.00  0.00    +0.000 C 
ATOM     17  N   UNL     1      -4.741  11.769  18.091  0.00  0.00    +0.000 NA
ENDBRANCH  12  16
ENDBRANCH   3   7
BRANCH   6  18
ATOM     18  C   UNL     1       4.374   5.025  18.881  0.00  0.00    +0.000 C 
ATOM     19  O   UNL     1       4.230   3.807  18.829  0.00  0.00    +0.000 OA
ATOM     20  N   UNL     1       5.621   5.616  18.678  0.00  0.00    +0.000 N 
ATOM     21  H   UNL     1       5.670   6.601  18.879  0.00  0.00    +0.000 HD
BRANCH  20  22
ATOM     22  C   UNL     1       6.846   4.932  18.281  0.00  0.00    +0.000 C 
BRANCH  22  23
ATOM     23  C   UNL     1       7.315   5.070  16.820  0.00  0.00    +0.000 C 
ATOM     24  F   UNL     1       7.585   6.409  16.629  0.00  0.00    +0.000 F 
BRANCH  23  25
ATOM     25  C   UNL     1       6.315   4.660  15.708  0.00  0.00    +0.000 C 
ATOM     26  C   UNL     1       5.307   5.797  15.471  0.00  0.00    +0.000 C 
ATOM     27  C   UNL     1       6.995   4.321  14.384  0.00  0.00    +0.000 C 
BRANCH  25  28
ATOM     28  O   UNL     1       5.570   3.497  16.105  0.00  0.00    +0.000 OA
ATOM     29  H   UNL     1       5.345   3.013  15.288  0.00  0.00    +0.000 HD
ENDBRANCH  25  28
ENDBRANCH  23  25
ENDBRANCH  22  23
ENDBRANCH  20  22
ENDBRANCH   6  18
BRANCH   1  30
ATOM     30  N   UNL     1       2.467   4.901  21.216  0.00  0.00    +0.000 N 
ATOM     31  H   UNL     1       2.440   5.352  22.135  0.00  0.00    +0.000 HD
BRANCH  30  33
ATOM     32  C   UNL     1       0.937   3.771  19.695  0.00  0.00    +0.000 C 
ATOM     33  C   UNL     1       1.436   3.847  21.134  0.00  0.00    +0.000 C 
ATOM     34  C   UNL     1       2.037   2.520  21.594  0.00  0.00    +0.000 C 
ENDBRANCH  30  33
ENDBRANCH   1  30
TORSDOF 9
ENDMDL
MODEL 2
REMARK VINA RESULT:      -7.7      0.993      1.172
REMARK  Name = 
REMARK  13 active torsions:
REMARK  status: ('A' for Active; 'I' for Inactive)
REMARK    1  A    between atoms: C_1  and  C_2
REMARK    2  A    between atoms: C_2  and  C_3
REMARK    3  A    between atoms: C_2  and  N_4
REMARK    4  A    between atoms: N_4  and  C_5
REMARK    5  A    between atoms: C_7  and  N_8
REMARK    6  A    between atoms: C_13  and  C_14
REMARK    7  A    between atoms: C_21  and  C_22
REMARK    8  A    between atoms: N_24  and  C_25
REMARK    9  A    between atoms: C_25  and  C_26
REMARK   10  A    between atoms: C_26  and  C_28
REMARK   11  A    between atoms: C_28  and  C_29
REMARK   12  A    between atoms: C_28  and  C_30
REMARK   13  A    between atoms: C_28  and  O_31
REMARK                            x       y       z     vdW  Elec       q    Type
REMARK                         _______ _______ _______ _____ _____    ______ ____
ROOT
ATOM      1  C   UNL     1       2.382   6.080  20.014  0.00  0.00    +0.000 A 
ATOM      2  C   UNL     1       1.590   7.203  20.319  0.00  0.00    +0.000 A 
ATOM      3  C   UNL     1       1.608   8.306  19.475  0.00  0.00    +0.000 A 
ATOM      4  N   UNL     1       2.297   8.302  18.315  0.00  0.00    +0.000 NA
ATOM      5  C   UNL     1       3.121   7.247  18.089  0.00  0.00    +0.000 A 
ATOM      6  C   UNL     1       3.267   6.167  18.931  0.00  0.00    +0.000 A 
ENDROOT
BRANCH   3   7
ATOM      7  N   UNL     1       1.024   9.543  19.850  0.00  0.00    +0.000 N 
ATOM      8  C   UNL     1       1.047   9.993  21.162  0.00  0.00    +0.000 A 
ATOM      9  C   UNL     1       0.471  11.234  21.189  0.00  0.00    +0.000 A 
ATOM     10  C   UNL     1      -0.482  11.138  20.162  0.00  0.00    +0.000 A 
ATOM     11  C   UNL     1      -1.812  11.537  19.993  0.00  0.00    +0.000 A 
ATOM     12  C   UNL     1      -2.371  11.348  18.735  0.00  0.00    +0.000 A 
ATOM     13  C   UNL     1      -1.569  10.826  17.725  0.00  0.00    +0.000 A 
ATOM     14  N   UNL     1      -0.337  10.263  17.891  0.00  0.00    +0.000 NA
ATOM     15  C   UNL     1       0.112  10.357  19.165  0.00  0.00    +0.000 A 
BRANCH  12  16
ATOM     16  C   UNL     1      -3.760  11.630  18.504  0.00  0.00    +0.000 C 
ATOM     17  N   UNL     1      -4.868  11.847  18.282  0.00  0.00    +0.000 NA
ENDBRANCH  12  16
ENDBRANCH   3   7
BRANCH   6  18
ATOM     18  C   UNL     1       4.406   5.263  18.651  0.00  0.00    +0.000 C 
ATOM     19  O   UNL     1       5.264   5.001  19.490  0.00  0.00    +0.000 OA
ATOM     20  N   UNL     1       4.448   4.702  17.375  0.00  0.00    +0.000 N 
ATOM     21  H   UNL     1       3.789   5.082  16.715  0.00  0.00    +0.000 HD
BRANCH  20  22
ATOM     22  C   UNL     1       5.387   3.690  16.907  0.00  0.00    +0.000 C 
BRANCH  22  23
ATOM     23  C   UNL     1       6.670   4.162  16.196  0.00  0.00    +0.000 C 
ATOM     24  F   UNL     1       7.294   5.030  17.067  0.00  0.00    +0.000 F 
BRANCH  23  25
ATOM     25  C   UNL     1       6.503   4.927  14.857  0.00  0.00    +0.000 C 
ATOM     26  C   UNL     1       6.025   3.960  13.762  0.00  0.00    +0.000 C 
ATOM     27  C   UNL     1       5.520   6.091  14.949  0.00  0.00    +0.000 C 
BRANCH  25  28
ATOM     28  O   UNL     1       7.761   5.476  14.432  0.00  0.00    +0.000 OA
ATOM     29  H   UNL     1       7.737   6.430  14.638  0.00  0.00    +0.000 HD
ENDBRANCH  25  28
ENDBRANCH  23  25
ENDBRANCH  22  23
ENDBRANCH  20  22
ENDBRANCH   6  18
BRANCH   1  30
ATOM     30  N   UNL     1       2.426   4.985  20.911  0.00  0.00    +0.000 N 
ATOM     31  H   UNL     1       2.463   5.381  21.855  0.00  0.00    +0.000 HD
BRANCH  30  33
ATOM     32  C   UNL     1       1.170   3.603  19.349  0.00  0.00    +0.000 C 
ATOM     33  C   UNL     1       1.332   4.000  20.812  0.00  0.00    +0.000 C 
ATOM     34  C   UNL     1       1.660   2.793  21.691  0.00  0.00    +0.000 C 
ENDBRANCH  30  33
ENDBRANCH   1  30
TORSDOF 9
ENDMDL
MODEL 3
REMARK VINA RESULT:      -7.6      1.316      1.622
REMARK  Name = 
REMARK  13 active torsions:
REMARK  status: ('A' for Active; 'I' for Inactive)
REMARK    1  A    between atoms: C_1  and  C_2
REMARK    2  A    between atoms: C_2  and  C_3
REMARK    3  A    between atoms: C_2  and  N_4
REMARK    4  A    between atoms: N_4  and  C_5
REMARK    5  A    between atoms: C_7  and  N_8
REMARK    6  A    between atoms: C_13  and  C_14
REMARK    7  A    between atoms: C_21  and  C_22
REMARK    8  A    between atoms: N_24  and  C_25
REMARK    9  A    between atoms: C_25  and  C_26
REMARK   10  A    between atoms: C_26  and  C_28
REMARK   11  A    between atoms: C_28  and  C_29
REMARK   12  A    between atoms: C_28  and  C_30
REMARK   13  A    between atoms: C_28  and  O_31
REMARK                            x       y       z     vdW  Elec       q    Type
REMARK                         _______ _______ _______ _____ _____    ______ ____
ROOT
ATOM      1  C   UNL     1       2.178   6.480  20.250  0.00  0.00    +0.000 A 
ATOM      2  C   UNL     1       1.433   7.620  20.606  0.00  0.00    +0.000 A 
ATOM      3  C   UNL     1       1.324   8.677  19.713  0.00  0.00    +0.000 A 
ATOM      4  N   UNL     1       1.838   8.611  18.468  0.00  0.00    +0.000 NA
ATOM      5  C   UNL     1       2.627   7.544  18.181  0.00  0.00    +0.000 A 
ATOM      6  C   UNL     1       2.898   6.508  19.047  0.00  0.00    +0.000 A 
ENDROOT
BRANCH   3   7
ATOM      7  N   UNL     1       0.792   9.933  20.104  0.00  0.00    +0.000 N 
ATOM      8  C   UNL     1       0.914  10.405  21.402  0.00  0.00    +0.000 A 
ATOM      9  C   UNL     1       0.368  11.659  21.445  0.00  0.00    +0.000 A 
ATOM     10  C   UNL     1      -0.654  11.567  20.486  0.00  0.00    +0.000 A 
ATOM     11  C   UNL     1      -1.983  11.994  20.400  0.00  0.00    +0.000 A 
ATOM     12  C   UNL     1      -2.630  11.796  19.186  0.00  0.00    +0.000 A 
ATOM     13  C   UNL     1      -1.909  11.240  18.135  0.00  0.00    +0.000 A 
ATOM     14  N   UNL     1      -0.682  10.652  18.228  0.00  0.00    +0.000 NA
ATOM     15  C   UNL     1      -0.145  10.757  19.466  0.00  0.00    +0.000 A 
BRANCH  12  16
ATOM     16  C   UNL     1      -4.024  12.106  19.043  0.00  0.00    +0.000 C 
ATOM     17  N   UNL     1      -5.144  12.361  18.966  0.00  0.00    +0.000 NA
ENDBRANCH  12  16
ENDBRANCH   3   7
BRANCH   6  18
ATOM     18  C   UNL     1       3.990   5.589  18.653  0.00  0.00    +0.000 C 
ATOM     19  O   UNL     1       5.020   5.467  19.310  0.00  0.00    +0.000 OA
ATOM     20  N   UNL     1       3.779   4.844  17.493  0.00  0.00    +0.000 N 
ATOM     21  H   UNL     1       2.976   5.112  16.949  0.00  0.00    +0.000 HD
BRANCH  20  22
ATOM     22  C   UNL     1       4.640   3.786  16.977  0.00  0.00    +0.000 C 
BRANCH  22  23
ATOM     23  C   UNL     1       5.390   4.039  15.656  0.00  0.00    +0.000 C 
ATOM     24  F   UNL     1       5.979   2.839  15.314  0.00  0.00    +0.000 F 
BRANCH  23  25
ATOM     25  C   UNL     1       6.524   5.096  15.671  0.00  0.00    +0.000 C 
ATOM     26  C   UNL     1       7.469   4.829  16.854  0.00  0.00    +0.000 C 
ATOM     27  C   UNL     1       7.343   5.117  14.382  0.00  0.00    +0.000 C 
BRANCH  25  28
ATOM     28  O   UNL     1       5.980   6.415  15.840  0.00  0.00    +0.000 OA
ATOM     29  H   UNL     1       5.881   6.797  14.947  0.00  0.00    +0.000 HD
ENDBRANCH  25  28
ENDBRANCH  23  25
ENDBRANCH  22  23
ENDBRANCH  20  22
ENDBRANCH   6  18
BRANCH   1  30
ATOM     30  N   UNL     1       2.356   5.433  21.186  0.00  0.00    +0.000 N 
ATOM     31  H   UNL     1       1.747   5.645  21.981  0.00  0.00    +0.000 HD
BRANCH  30  33
ATOM     32  C   UNL     1       2.255   3.101  21.880  0.00  0.00    +0.000 C 
ATOM     33  C   UNL     1       2.110   4.060  20.704  0.00  0.00    +0.000 C 
ATOM     34  C   UNL     1       0.714   3.988  20.086  0.00  0.00    +0.000 C 
ENDBRANCH  30  33
ENDBRANCH   1  30
TORSDOF 9
ENDMDL
MODEL 4
REMARK VINA RESULT:      -7.6      0.977      1.081
REMARK  Name = 
REMARK  13 active torsions:
REMARK  status: ('A' for Active; 'I' for Inactive)
REMARK    1  A    between atoms: C_1  and  C_2
REMARK    2  A    between atoms: C_2  and  C_3
REMARK    3  A    between atoms: C_2  and  N_4
REMARK    4  A    between atoms: N_4  and  C_5
REMARK    5  A    between atoms: C_7  and  N_8
REMARK    6  A    between atoms: C_13  and  C_14
REMARK    7  A    between atoms: C_21  and  C_22
REMARK    8  A    between atoms: N_24  and  C_25
REMARK    9  A    between atoms: C_25  and  C_26
REMARK   10  A    between atoms: C_26  and  C_28
REMARK   11  A    between atoms: C_28  and  C_29
REMARK   12  A    between atoms: C_28  and  C_30
REMARK   13  A    between atoms: C_28  and  O_31
REMARK                            x       y       z     vdW  Elec       q    Type
REMARK                         _______ _______ _______ _____ _____    ______ ____
ROOT
ATOM      1  C   UNL     1       2.593   5.213  19.699  0.00  0.00    +0.000 A 
ATOM      2  C   UNL     1       1.900   6.267  20.324  0.00  0.00    +0.000 A 
ATOM      3  C   UNL     1       1.930   7.537  19.763  0.00  0.00    +0.000 A 
ATOM      4  N   UNL     1       2.533   7.778  18.581  0.00  0.00    +0.000 NA
ATOM      5  C   UNL     1       3.269   6.770  18.046  0.00  0.00    +0.000 A 
ATOM      6  C   UNL     1       3.403   5.515  18.596  0.00  0.00    +0.000 A 
ENDROOT
BRANCH   3   7
ATOM      7  N   UNL     1       1.455   8.675  20.466  0.00  0.00    +0.000 N 
ATOM      8  C   UNL     1       1.297   8.669  21.843  0.00  0.00    +0.000 A 
ATOM      9  C   UNL     1       0.895   9.920  22.224  0.00  0.00    +0.000 A 
ATOM     10  C   UNL     1       0.142  10.338  21.114  0.00  0.00    +0.000 A 
ATOM     11  C   UNL     1      -1.069  11.010  20.926  0.00  0.00    +0.000 A 
ATOM     12  C   UNL     1      -1.408  11.341  19.620  0.00  0.00    +0.000 A 
ATOM     13  C   UNL     1      -0.511  11.031  18.603  0.00  0.00    +0.000 A 
ATOM     14  N   UNL     1       0.584  10.225  18.720  0.00  0.00    +0.000 NA
ATOM     15  C   UNL     1       0.801   9.821  19.994  0.00  0.00    +0.000 A 
BRANCH  12  16
ATOM     16  C   UNL     1      -2.681  11.936  19.325  0.00  0.00    +0.000 C 
ATOM     17  N   UNL     1      -3.705  12.422  19.125  0.00  0.00    +0.000 NA
ENDBRANCH  12  16
ENDBRANCH   3   7
BRANCH   6  18
ATOM     18  C   UNL     1       4.458   4.651  18.017  0.00  0.00    +0.000 C 
ATOM     19  O   UNL     1       4.205   3.615  17.410  0.00  0.00    +0.000 OA
ATOM     20  N   UNL     1       5.772   5.090  18.185  0.00  0.00    +0.000 N 
ATOM     21  H   UNL     1       5.890   5.867  18.812  0.00  0.00    +0.000 HD
BRANCH  20  22
ATOM     22  C   UNL     1       6.964   4.488  17.599  0.00  0.00    +0.000 C 
BRANCH  22  23
ATOM     23  C   UNL     1       7.474   5.044  16.256  0.00  0.00    +0.000 C 
ATOM     24  F   UNL     1       7.478   6.418  16.386  0.00  0.00    +0.000 F 
BRANCH  23  25
ATOM     25  C   UNL     1       6.639   4.725  14.989  0.00  0.00    +0.000 C 
ATOM     26  C   UNL     1       5.429   5.672  14.912  0.00  0.00    +0.000 C 
ATOM     27  C   UNL     1       7.440   4.845  13.695  0.00  0.00    +0.000 C 
BRANCH  25  28
ATOM     28  O   UNL     1       6.133   3.381  15.044  0.00  0.00    +0.000 OA
ATOM     29  H   UNL     1       6.667   2.853  14.421  0.00  0.00    +0.000 HD
ENDBRANCH  25  28
ENDBRANCH  23  25
ENDBRANCH  22  23
ENDBRANCH  20  22
ENDBRANCH   6  18
BRANCH   1  30
ATOM     30  N   UNL     1       2.628   3.935  20.308  0.00  0.00    +0.000 N 
ATOM     31  H   UNL     1       3.078   4.058  21.219  0.00  0.00    +0.000 HD
BRANCH  30  33
ATOM     32  C   UNL     1       1.123   2.340  19.251  0.00  0.00    +0.000 C 
ATOM     33  C   UNL     1       1.337   3.237  20.465  0.00  0.00    +0.000 C 
ATOM     34  C   UNL     1       1.355   2.434  21.765  0.00  0.00    +0.000 C 
ENDBRANCH  30  33
ENDBRANCH   1  30
TORSDOF 9
ENDMDL
MODEL 5
REMARK VINA RESULT:      -7.4      2.008      3.546
REMARK  Name = 
REMARK  13 active torsions:
REMARK  status: ('A' for Active; 'I' for Inactive)
REMARK    1  A    between atoms: C_1  and  C_2
REMARK    2  A    between atoms: C_2  and  C_3
REMARK    3  A    between atoms: C_2  and  N_4
REMARK    4  A    between atoms: N_4  and  C_5
REMARK    5  A    between atoms: C_7  and  N_8
REMARK    6  A    between atoms: C_13  and  C_14
REMARK    7  A    between atoms: C_21  and  C_22
REMARK    8  A    between atoms: N_24  and  C_25
REMARK    9  A    between atoms: C_25  and  C_26
REMARK   10  A    between atoms: C_26  and  C_28
REMARK   11  A    between atoms: C_28  and  C_29
REMARK   12  A    between atoms: C_28  and  C_30
REMARK   13  A    between atoms: C_28  and  O_31
REMARK                            x       y       z     vdW  Elec       q    Type
REMARK                         _______ _______ _______ _____ _____    ______ ____
ROOT
ATOM      1  C   UNL     1       2.463   7.092  18.860  0.00  0.00    +0.000 A 
ATOM      2  C   UNL     1       2.121   8.417  18.529  0.00  0.00    +0.000 A 
ATOM      3  C   UNL     1       1.376   9.177  19.420  0.00  0.00    +0.000 A 
ATOM      4  N   UNL     1       1.044   8.716  20.644  0.00  0.00    +0.000 NA
ATOM      5  C   UNL     1       1.305   7.409  20.903  0.00  0.00    +0.000 A 
ATOM      6  C   UNL     1       1.925   6.541  20.032  0.00  0.00    +0.000 A 
ENDROOT
BRANCH   3   7
ATOM      7  N   UNL     1       0.805  10.421  19.045  0.00  0.00    +0.000 N 
ATOM      8  C   UNL     1       1.148  11.604  19.684  0.00  0.00    +0.000 A 
ATOM      9  C   UNL     1       0.488  12.625  19.056  0.00  0.00    +0.000 A 
ATOM     10  C   UNL     1      -0.698  11.997  18.642  0.00  0.00    +0.000 A 
ATOM     11  C   UNL     1      -2.054  12.340  18.622  0.00  0.00    +0.000 A 
ATOM     12  C   UNL     1      -2.919  11.450  17.998  0.00  0.00    +0.000 A 
ATOM     13  C   UNL     1      -2.382  10.315  17.398  0.00  0.00    +0.000 A 
ATOM     14  N   UNL     1      -1.106   9.858  17.549  0.00  0.00    +0.000 NA
ATOM     15  C   UNL     1      -0.332  10.698  18.275  0.00  0.00    +0.000 A 
BRANCH  12  16
ATOM     16  C   UNL     1      -4.337  11.670  18.024  0.00  0.00    +0.000 C 
ATOM     17  N   UNL     1      -5.471  11.866  18.013  0.00  0.00    +0.000 NA
ENDBRANCH  12  16
ENDBRANCH   3   7
BRANCH   6  18
ATOM     18  C   UNL     1       1.871   5.104  20.384  0.00  0.00    +0.000 C 
ATOM     19  O   UNL     1       0.830   4.454  20.356  0.00  0.00    +0.000 OA
ATOM     20  N   UNL     1       3.084   4.511  20.737  0.00  0.00    +0.000 N 
ATOM     21  H   UNL     1       3.852   5.148  20.869  0.00  0.00    +0.000 HD
BRANCH  20  22
ATOM     22  C   UNL     1       3.310   3.094  20.994  0.00  0.00    +0.000 C 
BRANCH  22  23
ATOM     23  C   UNL     1       4.184   2.305  20.001  0.00  0.00    +0.000 C 
ATOM     24  F   UNL     1       5.231   3.139  19.664  0.00  0.00    +0.000 F 
BRANCH  23  25
ATOM     25  C   UNL     1       3.527   1.864  18.668  0.00  0.00    +0.000 C 
ATOM     26  C   UNL     1       2.012   1.698  18.865  0.00  0.00    +0.000 C 
ATOM     27  C   UNL     1       3.771   2.845  17.524  0.00  0.00    +0.000 C 
BRANCH  25  28
ATOM     28  O   UNL     1       4.050   0.594  18.246  0.00  0.00    +0.000 OA
ATOM     29  H   UNL     1       4.679   0.304  18.934  0.00  0.00    +0.000 HD
ENDBRANCH  25  28
ENDBRANCH  23  25
ENDBRANCH  22  23
ENDBRANCH  20  22
ENDBRANCH   6  18
BRANCH   1  30
ATOM     30  N   UNL     1       3.155   6.288  17.922  0.00  0.00    +0.000 N 
ATOM     31  H   UNL     1       2.584   6.273  17.072  0.00  0.00    +0.000 HD
BRANCH  30  33
ATOM     32  C   UNL     1       5.479   5.996  18.587  0.00  0.00    +0.000 C 
ATOM     33  C   UNL     1       4.540   6.683  17.602  0.00  0.00    +0.000 C 
ATOM     34  C   UNL     1       4.853   6.292  16.158  0.00  0.00    +0.000 C 
ENDBRANCH  30  33
ENDBRANCH   1  30
TORSDOF 9
ENDMDL
MODEL 6
REMARK VINA RESULT:      -7.4      2.147      2.470
REMARK  Name = 
REMARK  13 active torsions:
REMARK  status: ('A' for Active; 'I' for Inactive)
REMARK    1  A    between atoms: C_1  and  C_2
REMARK    2  A    between atoms: C_2  and  C_3
REMARK    3  A    between atoms: C_2  and  N_4
REMARK    4  A    between atoms: N_4  and  C_5
REMARK    5  A    between atoms: C_7  and  N_8
REMARK    6  A    between atoms: C_13  and  C_14
REMARK    7  A    between atoms: C_21  and  C_22
REMARK    8  A    between atoms: N_24  and  C_25
REMARK    9  A    between atoms: C_25  and  C_26
REMARK   10  A    between atoms: C_26  and  C_28
REMARK   11  A    between atoms: C_28  and  C_29
REMARK   12  A    between atoms: C_28  and  C_30
REMARK   13  A    between atoms: C_28  and  O_31
REMARK                            x       y       z     vdW  Elec       q    Type
REMARK                         _______ _______ _______ _____ _____    ______ ____
ROOT
ATOM      1  C   UNL     1       2.038   6.562  20.116  0.00  0.00    +0.000 A 
ATOM      2  C   UNL     1       1.340   7.406  21.000  0.00  0.00    +0.000 A 
ATOM      3  C   UNL     1       0.953   8.672  20.581  0.00  0.00    +0.000 A 
ATOM      4  N   UNL     1       1.147   9.090  19.313  0.00  0.00    +0.000 NA
ATOM      5  C   UNL     1       1.901   8.297  18.509  0.00  0.00    +0.000 A 
ATOM      6  C   UNL     1       2.436   7.083  18.877  0.00  0.00    +0.000 A 
ENDROOT
BRANCH   3   7
ATOM      7  N   UNL     1       0.464   9.644  21.492  0.00  0.00    +0.000 N 
ATOM      8  C   UNL     1      -0.480   9.329  22.457  0.00  0.00    +0.000 A 
ATOM      9  C   UNL     1      -0.693  10.448  23.215  0.00  0.00    +0.000 A 
ATOM     10  C   UNL     1      -0.496  11.478  22.280  0.00  0.00    +0.000 A 
ATOM     11  C   UNL     1      -1.132  12.685  21.976  0.00  0.00    +0.000 A 
ATOM     12  C   UNL     1      -0.525  13.494  21.023  0.00  0.00    +0.000 A 
ATOM     13  C   UNL     1       0.685  13.079  20.476  0.00  0.00    +0.000 A 
ATOM     14  N   UNL     1       1.241  11.841  20.609  0.00  0.00    +0.000 NA
ATOM     15  C   UNL     1       0.542  11.042  21.450  0.00  0.00    +0.000 A 
BRANCH  12  16
ATOM     16  C   UNL     1      -1.165  14.698  20.574  0.00  0.00    +0.000 C 
ATOM     17  N   UNL     1      -1.679  15.675  20.250  0.00  0.00    +0.000 NA
ENDBRANCH  12  16
ENDBRANCH   3   7
BRANCH   6  18
ATOM     18  C   UNL     1       3.448   6.504  17.963  0.00  0.00    +0.000 C 
ATOM     19  O   UNL     1       3.297   5.417  17.413  0.00  0.00    +0.000 OA
ATOM     20  N   UNL     1       4.589   7.275  17.743  0.00  0.00    +0.000 N 
ATOM     21  H   UNL     1       4.690   8.077  18.341  0.00  0.00    +0.000 HD
BRANCH  20  22
ATOM     22  C   UNL     1       5.657   6.984  16.793  0.00  0.00    +0.000 C 
BRANCH  22  23
ATOM     23  C   UNL     1       6.903   6.238  17.306  0.00  0.00    +0.000 C 
ATOM     24  F   UNL     1       7.944   6.619  16.484  0.00  0.00    +0.000 F 
BRANCH  23  25
ATOM     25  C   UNL     1       6.867   4.688  17.280  0.00  0.00    +0.000 C 
ATOM     26  C   UNL     1       6.110   4.164  18.511  0.00  0.00    +0.000 C 
ATOM     27  C   UNL     1       6.211   4.123  16.022  0.00  0.00    +0.000 C 
BRANCH  25  28
ATOM     28  O   UNL     1       8.200   4.153  17.331  0.00  0.00    +0.000 OA
ATOM     29  H   UNL     1       8.124   3.234  17.650  0.00  0.00    +0.000 HD
ENDBRANCH  25  28
ENDBRANCH  23  25
ENDBRANCH  22  23
ENDBRANCH  20  22
ENDBRANCH   6  18
BRANCH   1  30
ATOM     30  N   UNL     1       2.502   5.301  20.564  0.00  0.00    +0.000 N 
ATOM     31  H   UNL     1       3.042   5.474  21.417  0.00  0.00    +0.000 HD
BRANCH  30  33
ATOM     32  C   UNL     1       1.056   3.679  19.465  0.00  0.00    +0.000 C 
ATOM     33  C   UNL     1       1.479   4.265  20.808  0.00  0.00    +0.000 C 
ATOM     34  C   UNL     1       2.058   3.195  21.733  0.00  0.00    +0.000 C 
ENDBRANCH  30  33
ENDBRANCH   1  30
TORSDOF 9
ENDMDL
MODEL 7
REMARK VINA RESULT:      -7.4      2.303      2.580
REMARK  Name = 
REMARK  13 active torsions:
REMARK  status: ('A' for Active; 'I' for Inactive)
REMARK    1  A    between atoms: C_1  and  C_2
REMARK    2  A    between atoms: C_2  and  C_3
REMARK    3  A    between atoms: C_2  and  N_4
REMARK    4  A    between atoms: N_4  and  C_5
REMARK    5  A    between atoms: C_7  and  N_8
REMARK    6  A    between atoms: C_13  and  C_14
REMARK    7  A    between atoms: C_21  and  C_22
REMARK    8  A    between atoms: N_24  and  C_25
REMARK    9  A    between atoms: C_25  and  C_26
REMARK   10  A    between atoms: C_26  and  C_28
REMARK   11  A    between atoms: C_28  and  C_29
REMARK   12  A    between atoms: C_28  and  C_30
REMARK   13  A    between atoms: C_28  and  O_31
REMARK                            x       y       z     vdW  Elec       q    Type
REMARK                         _______ _______ _______ _____ _____    ______ ____
ROOT
ATOM      1  C   UNL     1       2.165   6.312  20.235  0.00  0.00    +0.000 A 
ATOM      2  C   UNL     1       1.399   7.149  21.068  0.00  0.00    +0.000 A 
ATOM      3  C   UNL     1       1.075   8.431  20.644  0.00  0.00    +0.000 A 
ATOM      4  N   UNL     1       1.396   8.873  19.410  0.00  0.00    +0.000 NA
ATOM      5  C   UNL     1       2.210   8.084  18.663  0.00  0.00    +0.000 A 
ATOM      6  C   UNL     1       2.688   6.853  19.052  0.00  0.00    +0.000 A 
ENDROOT
BRANCH   3   7
ATOM      7  N   UNL     1       0.516   9.391  21.526  0.00  0.00    +0.000 N 
ATOM      8  C   UNL     1      -0.530   9.077  22.380  0.00  0.00    +0.000 A 
ATOM      9  C   UNL     1      -0.794  10.181  23.143  0.00  0.00    +0.000 A 
ATOM     10  C   UNL     1      -0.478  11.229  22.263  0.00  0.00    +0.000 A 
ATOM     11  C   UNL     1      -1.051  12.460  21.929  0.00  0.00    +0.000 A 
ATOM     12  C   UNL     1      -0.331  13.276  21.066  0.00  0.00    +0.000 A 
ATOM     13  C   UNL     1       0.919  12.845  20.635  0.00  0.00    +0.000 A 
ATOM     14  N   UNL     1       1.430  11.590  20.790  0.00  0.00    +0.000 NA
ATOM     15  C   UNL     1       0.630  10.788  21.532  0.00  0.00    +0.000 A 
BRANCH  12  16
ATOM     16  C   UNL     1      -0.892  14.508  20.588  0.00  0.00    +0.000 C 
ATOM     17  N   UNL     1      -1.324  15.490  20.171  0.00  0.00    +0.000 NA
ENDBRANCH  12  16
ENDBRANCH   3   7
BRANCH   6  18
ATOM     18  C   UNL     1       3.773   6.276  18.226  0.00  0.00    +0.000 C 
ATOM     19  O   UNL     1       4.897   6.767  18.175  0.00  0.00    +0.000 OA
ATOM     20  N   UNL     1       3.455   5.120  17.513  0.00  0.00    +0.000 N 
ATOM     21  H   UNL     1       2.479   4.874  17.503  0.00  0.00    +0.000 HD
BRANCH  20  22
ATOM     22  C   UNL     1       4.381   4.300  16.740  0.00  0.00    +0.000 C 
BRANCH  22  23
ATOM     23  C   UNL     1       5.124   4.957  15.562  0.00  0.00    +0.000 C 
ATOM     24  F   UNL     1       5.020   4.076  14.504  0.00  0.00    +0.000 F 
BRANCH  23  25
ATOM     25  C   UNL     1       6.636   5.248  15.745  0.00  0.00    +0.000 C 
ATOM     26  C   UNL     1       7.210   4.342  16.846  0.00  0.00    +0.000 C 
ATOM     27  C   UNL     1       7.446   5.043  14.467  0.00  0.00    +0.000 C 
BRANCH  25  28
ATOM     28  O   UNL     1       6.840   6.610  16.154  0.00  0.00    +0.000 OA
ATOM     29  H   UNL     1       5.965   7.044  16.139  0.00  0.00    +0.000 HD
ENDBRANCH  25  28
ENDBRANCH  23  25
ENDBRANCH  22  23
ENDBRANCH  20  22
ENDBRANCH   6  18
BRANCH   1  30
ATOM     30  N   UNL     1       2.562   5.033  20.696  0.00  0.00    +0.000 N 
ATOM     31  H   UNL     1       3.091   5.185  21.559  0.00  0.00    +0.000 HD
BRANCH  30  33
ATOM     32  C   UNL     1       0.967   3.584  19.563  0.00  0.00    +0.000 C 
ATOM     33  C   UNL     1       1.490   4.044  20.920  0.00  0.00    +0.000 C 
ATOM     34  C   UNL     1       2.045   2.877  21.736  0.00  0.00    +0.000 C 
ENDBRANCH  30  33
ENDBRANCH   1  30
TORSDOF 9
ENDMDL
MODEL 8
REMARK VINA RESULT:      -7.3      4.542      9.555
REMARK  Name = 
REMARK  13 active torsions:
REMARK  status: ('A' for Active; 'I' for Inactive)
REMARK    1  A    between atoms: C_1  and  C_2
REMARK    2  A    between atoms: C_2  and  C_3
REMARK    3  A    between atoms: C_2  and  N_4
REMARK    4  A    between atoms: N_4  and  C_5
REMARK    5  A    between atoms: C_7  and  N_8
REMARK    6  A    between atoms: C_13  and  C_14
REMARK    7  A    between atoms: C_21  and  C_22
REMARK    8  A    between atoms: N_24  and  C_25
REMARK    9  A    between atoms: C_25  and  C_26
REMARK   10  A    between atoms: C_26  and  C_28
REMARK   11  A    between atoms: C_28  and  C_29
REMARK   12  A    between atoms: C_28  and  C_30
REMARK   13  A    between atoms: C_28  and  O_31
REMARK                            x       y       z     vdW  Elec       q    Type
REMARK                         _______ _______ _______ _____ _____    ______ ____
ROOT
ATOM      1  C   UNL     1      -0.618  10.728  18.488  0.00  0.00    +0.000 A 
ATOM      2  C   UNL     1       0.212   9.633  18.180  0.00  0.00    +0.000 A 
ATOM      3  C   UNL     1       1.081   9.137  19.142  0.00  0.00    +0.000 A 
ATOM      4  N   UNL     1       1.094   9.616  20.403  0.00  0.00    +0.000 NA
ATOM      5  C   UNL     1       0.354  10.727  20.649  0.00  0.00    +0.000 A 
ATOM      6  C   UNL     1      -0.441  11.366  19.724  0.00  0.00    +0.000 A 
ENDROOT
BRANCH   3   7
ATOM      7  N   UNL     1       2.098   8.202  18.819  0.00  0.00    +0.000 N 
ATOM      8  C   UNL     1       2.818   8.286  17.637  0.00  0.00    +0.000 A 
ATOM      9  C   UNL     1       3.761   7.294  17.650  0.00  0.00    +0.000 A 
ATOM     10  C   UNL     1       3.114   6.283  18.379  0.00  0.00    +0.000 A 
ATOM     11  C   UNL     1       2.989   4.895  18.265  0.00  0.00    +0.000 A 
ATOM     12  C   UNL     1       2.338   4.235  19.300  0.00  0.00    +0.000 A 
ATOM     13  C   UNL     1       1.902   4.980  20.390  0.00  0.00    +0.000 A 
ATOM     14  N   UNL     1       1.844   6.342  20.458  0.00  0.00    +0.000 NA
ATOM     15  C   UNL     1       2.375   6.942  19.367  0.00  0.00    +0.000 A 
BRANCH  12  16
ATOM     16  C   UNL     1       2.072   2.827  19.214  0.00  0.00    +0.000 C 
ATOM     17  N   UNL     1       1.890   1.691  19.165  0.00  0.00    +0.000 NA
ENDBRANCH  12  16
ENDBRANCH   3   7
BRANCH   6  18
ATOM     18  C   UNL     1      -0.946  12.706  20.101  0.00  0.00    +0.000 C 
ATOM     19  O   UNL     1      -1.497  13.455  19.299  0.00  0.00    +0.000 OA
ATOM     20  N   UNL     1      -0.779  13.072  21.437  0.00  0.00    +0.000 N 
ATOM     21  H   UNL     1      -0.196  12.460  21.982  0.00  0.00    +0.000 HD
BRANCH  20  22
ATOM     22  C   UNL     1      -1.305  14.273  22.075  0.00  0.00    +0.000 C 
BRANCH  22  23
ATOM     23  C   UNL     1      -2.277  14.103  23.258  0.00  0.00    +0.000 C 
ATOM     24  F   UNL     1      -1.492  14.019  24.390  0.00  0.00    +0.000 F 
BRANCH  23  25
ATOM     25  C   UNL     1      -3.185  12.846  23.259  0.00  0.00    +0.000 C 
ATOM     26  C   UNL     1      -4.031  12.817  24.542  0.00  0.00    +0.000 C 
ATOM     27  C   UNL     1      -4.118  12.778  22.053  0.00  0.00    +0.000 C 
BRANCH  25  28
ATOM     28  O   UNL     1      -2.389  11.650  23.238  0.00  0.00    +0.000 OA
ATOM     29  H   UNL     1      -2.999  10.907  23.071  0.00  0.00    +0.000 HD
ENDBRANCH  25  28
ENDBRANCH  23  25
ENDBRANCH  22  23
ENDBRANCH  20  22
ENDBRANCH   6  18
BRANCH   1  30
ATOM     30  N   UNL     1      -1.449  11.285  17.487  0.00  0.00    +0.000 N 
ATOM     31  H   UNL     1      -0.830  11.614  16.741  0.00  0.00    +0.000 HD
BRANCH  30  33
ATOM     32  C   UNL     1      -3.739  10.523  17.810  0.00  0.00    +0.000 C 
ATOM     33  C   UNL     1      -2.499  10.409  16.931  0.00  0.00    +0.000 C 
ATOM     34  C   UNL     1      -2.789  10.825  15.489  0.00  0.00    +0.000 C 
ENDBRANCH  30  33
ENDBRANCH   1  30
TORSDOF 9
ENDMDL
MODEL 9
REMARK VINA RESULT:      -7.3      4.092      9.313
REMARK  Name = 
REMARK  13 active torsions:
REMARK  status: ('A' for Active; 'I' for Inactive)
REMARK    1  A    between atoms: C_1  and  C_2
REMARK    2  A    between atoms: C_2  and  C_3
REMARK    3  A    between atoms: C_2  and  N_4
REMARK    4  A    between atoms: N_4  and  C_5
REMARK    5  A    between atoms: C_7  and  N_8
REMARK    6  A    between atoms: C_13  and  C_14
REMARK    7  A    between atoms: C_21  and  C_22
REMARK    8  A    between atoms: N_24  and  C_25
REMARK    9  A    between atoms: C_25  and  C_26
REMARK   10  A    between atoms: C_26  and  C_28
REMARK   11  A    between atoms: C_28  and  C_29
REMARK   12  A    between atoms: C_28  and  C_30
REMARK   13  A    between atoms: C_28  and  O_31
REMARK                            x       y       z     vdW  Elec       q    Type
REMARK                         _______ _______ _______ _____ _____    ______ ____
ROOT
ATOM      1  C   UNL     1       0.959   9.996  20.267  0.00  0.00    +0.000 A 
ATOM      2  C   UNL     1       1.631   8.764  20.384  0.00  0.00    +0.000 A 
ATOM      3  C   UNL     1       1.893   8.013  19.247  0.00  0.00    +0.000 A 
ATOM      4  N   UNL     1       1.604   8.471  18.011  0.00  0.00    +0.000 NA
ATOM      5  C   UNL     1       0.878   9.615  17.930  0.00  0.00    +0.000 A 
ATOM      6  C   UNL     1       0.460  10.362  19.009  0.00  0.00    +0.000 A 
ENDROOT
BRANCH   3   7
ATOM      7  N   UNL     1       2.348   6.671  19.325  0.00  0.00    +0.000 N 
ATOM      8  C   UNL     1       2.150   5.899  20.461  0.00  0.00    +0.000 A 
ATOM      9  C   UNL     1       2.634   4.646  20.204  0.00  0.00    +0.000 A 
ATOM     10  C   UNL     1       3.698   4.915  19.328  0.00  0.00    +0.000 A 
ATOM     11  C   UNL     1       5.008   4.449  19.175  0.00  0.00    +0.000 A 
ATOM     12  C   UNL     1       5.713   4.905  18.069  0.00  0.00    +0.000 A 
ATOM     13  C   UNL     1       5.064   5.745  17.169  0.00  0.00    +0.000 A 
ATOM     14  N   UNL     1       3.863   6.360  17.372  0.00  0.00    +0.000 NA
ATOM     15  C   UNL     1       3.271   5.981  18.529  0.00  0.00    +0.000 A 
BRANCH  12  16
ATOM     16  C   UNL     1       7.096   4.563  17.892  0.00  0.00    +0.000 C 
ATOM     17  N   UNL     1       8.202   4.299  17.715  0.00  0.00    +0.000 NA
ENDBRANCH  12  16
ENDBRANCH   3   7
BRANCH   6  18
ATOM     18  C   UNL     1      -0.546  11.413  18.734  0.00  0.00    +0.000 C 
ATOM     19  O   UNL     1      -0.236  12.568  18.456  0.00  0.00    +0.000 OA
ATOM     20  N   UNL     1      -1.882  11.015  18.789  0.00  0.00    +0.000 N 
ATOM     21  H   UNL     1      -2.042  10.094  19.160  0.00  0.00    +0.000 HD
BRANCH  20  22
ATOM     22  C   UNL     1      -3.039  11.826  18.432  0.00  0.00    +0.000 C 
BRANCH  22  23
ATOM     23  C   UNL     1      -4.230  11.130  17.746  0.00  0.00    +0.000 C 
ATOM     24  F   UNL     1      -4.089  11.370  16.394  0.00  0.00    +0.000 F 
BRANCH  23  25
ATOM     25  C   UNL     1      -5.654  11.610  18.130  0.00  0.00    +0.000 C 
ATOM     26  C   UNL     1      -6.448  10.444  18.741  0.00  0.00    +0.000 C 
ATOM     27  C   UNL     1      -5.650  12.774  19.118  0.00  0.00    +0.000 C 
BRANCH  25  28
ATOM     28  O   UNL     1      -6.366  12.055  16.964  0.00  0.00    +0.000 OA
ATOM     29  H   UNL     1      -6.928  11.311  16.674  0.00  0.00    +0.000 HD
ENDBRANCH  25  28
ENDBRANCH  23  25
ENDBRANCH  22  23
ENDBRANCH  20  22
ENDBRANCH   6  18
BRANCH   1  30
ATOM     30  N   UNL     1       0.621  10.728  21.431  0.00  0.00    +0.000 N 
ATOM     31  H   UNL     1       0.469  11.696  21.135  0.00  0.00    +0.000 HD
BRANCH  30  33
ATOM     32  C   UNL     1      -0.019   9.430  23.390  0.00  0.00    +0.000 C 
ATOM     33  C   UNL     1      -0.537  10.242  22.208  0.00  0.00    +0.000 C 
ATOM     34  C   UNL     1      -1.370  11.438  22.667  0.00  0.00    +0.000 C 
ENDBRANCH  30  33
ENDBRANCH   1  30
TORSDOF 9
ENDMDL
