MODEL 1
REMARK VINA RESULT:      -8.0      0.000      0.000
REMARK  Name = 
REMARK  7 active torsions:
REMARK  status: ('A' for Active; 'I' for Inactive)
REMARK    1  A    between atoms: C_12  and  O_13
REMARK    2  A    between atoms: O_13  and  C_14
REMARK    3  A    between atoms: C_14  and  C_15
REMARK    4  A    between atoms: C_19  and  O_20
REMARK    5  A    between atoms: O_20  and  C_21
REMARK    6  A    between atoms: C_21  and  C_22
REMARK    7  A    between atoms: C_26  and  C_27
REMARK                            x       y       z     vdW  Elec       q    Type
REMARK                         _______ _______ _______ _____ _____    ______ ____
ROOT
ATOM      1  O   UNL     1       1.621   9.755  17.511  0.00  0.00    +0.000 OA
ATOM      2  C   UNL     1       1.583   9.186  18.594  0.00  0.00    +0.000 A 
ATOM      3  C   UNL     1       2.222   7.862  18.752  0.00  0.00    +0.000 A 
ATOM      4  C   UNL     1       2.934   7.266  17.706  0.00  0.00    +0.000 A 
ATOM      5  C   UNL     1       3.524   6.010  17.890  0.00  0.00    +0.000 A 
ATOM      6  C   UNL     1       3.396   5.348  19.111  0.00  0.00    +0.000 A 
ATOM      7  C   UNL     1       2.685   5.946  20.153  0.00  0.00    +0.000 A 
ATOM      8  C   UNL     1       2.104   7.204  19.972  0.00  0.00    +0.000 A 
ATOM      9  O   UNL     1       1.439   7.715  21.051  0.00  0.00    +0.000 OA
ATOM     10  C   UNL     1       0.863   8.956  20.940  0.00  0.00    +0.000 A 
ATOM     11  C   UNL     1       0.231   9.398  22.107  0.00  0.00    +0.000 A 
ATOM     12  C   UNL     1      -0.441  10.613  22.120  0.00  0.00    +0.000 A 
ATOM     13  C   UNL     1      -0.435  11.387  20.963  0.00  0.00    +0.000 A 
ATOM     14  C   UNL     1       0.274  11.011  19.810  0.00  0.00    +0.000 A 
ATOM     15  C   UNL     1       0.892   9.750  19.784  0.00  0.00    +0.000 A 
ENDROOT
BRANCH  12  16
ATOM     16  O   UNL     1      -1.037  10.974  23.299  0.00  0.00    +0.000 OA
BRANCH  16  17
ATOM     17  C   UNL     1      -1.641  12.273  23.326  0.00  0.00    +0.000 C 
BRANCH  17  18
ATOM     18  C   UNL     1      -3.100  12.124  23.584  0.00  0.00    +0.000 C 
ATOM     19  C   UNL     1      -4.031  13.297  23.417  0.00  0.00    +0.000 C 
ATOM     20  O   UNL     1      -3.929  12.263  22.422  0.00  0.00    +0.000 OA
ENDBRANCH  17  18
ENDBRANCH  16  17
ENDBRANCH  12  16
BRANCH  14  21
ATOM     21  O   UNL     1       0.382  11.876  18.740  0.00  0.00    +0.000 OA
BRANCH  21  22
ATOM     22  C   UNL     1      -0.847  12.533  18.385  0.00  0.00    +0.000 C 
BRANCH  22  23
ATOM     23  C   UNL     1      -1.963  11.630  17.934  0.00  0.00    +0.000 A 
ATOM     24  C   UNL     1      -1.685  10.677  16.935  0.00  0.00    +0.000 A 
ATOM     25  C   UNL     1      -2.686   9.842  16.456  0.00  0.00    +0.000 A 
ATOM     26  C   UNL     1      -3.984   9.951  16.962  0.00  0.00    +0.000 A 
ATOM     27  C   UNL     1      -4.277  10.900  17.950  0.00  0.00    +0.000 A 
ATOM     28  C   UNL     1      -3.262  11.739  18.431  0.00  0.00    +0.000 A 
BRANCH  27  29
ATOM     29  C   UNL     1      -5.673  11.052  18.500  0.00  0.00    +0.000 C 
ATOM     30  F   UNL     1      -6.552  11.591  17.607  0.00  0.00    +0.000 F 
ATOM     31  F   UNL     1      -6.217   9.866  18.886  0.00  0.00    +0.000 F 
ATOM     32  F   UNL     1      -5.718  11.863  19.596  0.00  0.00    +0.000 F 
ENDBRANCH  27  29
ENDBRANCH  22  23
ENDBRANCH  21  22
ENDBRANCH  14  21
TORSDOF 7
ENDMDL
MODEL 2
REMARK VINA RESULT:      -8.0      3.712      6.614
REMARK  Name = 
REMARK  7 active torsions:
REMARK  status: ('A' for Active; 'I' for Inactive)
REMARK    1  A    between atoms: C_12  and  O_13
REMARK    2  A    between atoms: O_13  and  C_14
REMARK    3  A    between atoms: C_14  and  C_15
REMARK    4  A    between atoms: C_19  and  O_20
REMARK    5  A    between atoms: O_20  and  C_21
REMARK    6  A    between atoms: C_21  and  C_22
REMARK    7  A    between atoms: C_26  and  C_27
REMARK                            x       y       z     vdW  Elec       q    Type
REMARK                         _______ _______ _______ _____ _____    ______ ____
ROOT
ATOM      1  O   UNL     1       0.026   9.666  17.660  0.00  0.00    +0.000 OA
ATOM      2  C   UNL     1      -0.886  10.306  18.168  0.00  0.00    +0.000 A 
ATOM      3  C   UNL     1      -2.113  10.580  17.390  0.00  0.00    +0.000 A 
ATOM      4  C   UNL     1      -2.290  10.066  16.101  0.00  0.00    +0.000 A 
ATOM      5  C   UNL     1      -3.463  10.350  15.392  0.00  0.00    +0.000 A 
ATOM      6  C   UNL     1      -4.452  11.149  15.965  0.00  0.00    +0.000 A 
ATOM      7  C   UNL     1      -4.272  11.660  17.252  0.00  0.00    +0.000 A 
ATOM      8  C   UNL     1      -3.104  11.370  17.962  0.00  0.00    +0.000 A 
ATOM      9  O   UNL     1      -3.023  11.903  19.218  0.00  0.00    +0.000 OA
ATOM     10  C   UNL     1      -1.907  11.638  19.973  0.00  0.00    +0.000 A 
ATOM     11  C   UNL     1      -1.933  12.207  21.250  0.00  0.00    +0.000 A 
ATOM     12  C   UNL     1      -0.845  12.065  22.100  0.00  0.00    +0.000 A 
ATOM     13  C   UNL     1       0.244  11.317  21.665  0.00  0.00    +0.000 A 
ATOM     14  C   UNL     1       0.255  10.654  20.427  0.00  0.00    +0.000 A 
ATOM     15  C   UNL     1      -0.820  10.860  19.546  0.00  0.00    +0.000 A 
ENDROOT
BRANCH  12  16
ATOM     16  O   UNL     1      -0.946  12.655  23.332  0.00  0.00    +0.000 OA
BRANCH  16  17
ATOM     17  C   UNL     1      -2.045  13.558  23.509  0.00  0.00    +0.000 C 
BRANCH  17  18
ATOM     18  C   UNL     1      -1.519  14.945  23.626  0.00  0.00    +0.000 C 
ATOM     19  C   UNL     1      -1.769  15.757  24.871  0.00  0.00    +0.000 C 
ATOM     20  O   UNL     1      -0.505  15.116  24.627  0.00  0.00    +0.000 OA
ENDBRANCH  17  18
ENDBRANCH  16  17
ENDBRANCH  12  16
BRANCH  14  21
ATOM     21  O   UNL     1       1.286   9.798  20.097  0.00  0.00    +0.000 OA
BRANCH  21  22
ATOM     22  C   UNL     1       1.360   8.618  20.916  0.00  0.00    +0.000 C 
BRANCH  22  23
ATOM     23  C   UNL     1       1.817   7.366  20.217  0.00  0.00    +0.000 A 
ATOM     24  C   UNL     1       2.383   7.491  18.934  0.00  0.00    +0.000 A 
ATOM     25  C   UNL     1       2.789   6.365  18.228  0.00  0.00    +0.000 A 
ATOM     26  C   UNL     1       2.629   5.096  18.791  0.00  0.00    +0.000 A 
ATOM     27  C   UNL     1       2.060   4.957  20.064  0.00  0.00    +0.000 A 
ATOM     28  C   UNL     1       1.653   6.097  20.772  0.00  0.00    +0.000 A 
BRANCH  27  29
ATOM     29  C   UNL     1       1.857   3.598  20.687  0.00  0.00    +0.000 C 
ATOM     30  F   UNL     1       0.556   3.192  20.692  0.00  0.00    +0.000 F 
ATOM     31  F   UNL     1       2.548   2.618  20.043  0.00  0.00    +0.000 F 
ATOM     32  F   UNL     1       2.263   3.554  21.989  0.00  0.00    +0.000 F 
ENDBRANCH  27  29
ENDBRANCH  22  23
ENDBRANCH  21  22
ENDBRANCH  14  21
TORSDOF 7
ENDMDL
MODEL 3
REMARK VINA RESULT:      -7.9      5.276      9.361
REMARK  Name = 
REMARK  7 active torsions:
REMARK  status: ('A' for Active; 'I' for Inactive)
REMARK    1  A    between atoms: C_12  and  O_13
REMARK    2  A    between atoms: O_13  and  C_14
REMARK    3  A    between atoms: C_14  and  C_15
REMARK    4  A    between atoms: C_19  and  O_20
REMARK    5  A    between atoms: O_20  and  C_21
REMARK    6  A    between atoms: C_21  and  C_22
REMARK    7  A    between atoms: C_26  and  C_27
REMARK                            x       y       z     vdW  Elec       q    Type
REMARK                         _______ _______ _______ _____ _____    ______ ____
ROOT
ATOM      1  O   UNL     1       2.274   9.773  17.563  0.00  0.00    +0.000 OA
ATOM      2  C   UNL     1       1.781   9.304  18.580  0.00  0.00    +0.000 A 
ATOM      3  C   UNL     1       0.875  10.130  19.406  0.00  0.00    +0.000 A 
ATOM      4  C   UNL     1       0.509  11.423  19.018  0.00  0.00    +0.000 A 
ATOM      5  C   UNL     1      -0.348  12.178  19.827  0.00  0.00    +0.000 A 
ATOM      6  C   UNL     1      -0.832  11.647  21.023  0.00  0.00    +0.000 A 
ATOM      7  C   UNL     1      -0.466  10.355  21.407  0.00  0.00    +0.000 A 
ATOM      8  C   UNL     1       0.383   9.599  20.594  0.00  0.00    +0.000 A 
ATOM      9  O   UNL     1       0.676   8.343  21.045  0.00  0.00    +0.000 OA
ATOM     10  C   UNL     1       1.491   7.544  20.282  0.00  0.00    +0.000 A 
ATOM     11  C   UNL     1       1.707   6.271  20.817  0.00  0.00    +0.000 A 
ATOM     12  C   UNL     1       2.556   5.378  20.177  0.00  0.00    +0.000 A 
ATOM     13  C   UNL     1       3.148   5.768  18.979  0.00  0.00    +0.000 A 
ATOM     14  C   UNL     1       2.870   7.003  18.371  0.00  0.00    +0.000 A 
ATOM     15  C   UNL     1       2.066   7.926  19.060  0.00  0.00    +0.000 A 
ENDROOT
BRANCH  12  16
ATOM     16  O   UNL     1       2.719   4.153  20.767  0.00  0.00    +0.000 OA
BRANCH  16  17
ATOM     17  C   UNL     1       3.561   3.226  20.069  0.00  0.00    +0.000 C 
BRANCH  17  18
ATOM     18  C   UNL     1       2.708   2.210  19.394  0.00  0.00    +0.000 C 
ATOM     19  C   UNL     1       2.349   2.356  17.938  0.00  0.00    +0.000 C 
ATOM     20  O   UNL     1       3.377   1.451  18.377  0.00  0.00    +0.000 OA
ENDBRANCH  17  18
ENDBRANCH  16  17
ENDBRANCH  12  16
BRANCH  14  21
ATOM     21  O   UNL     1       3.355   7.289  17.111  0.00  0.00    +0.000 OA
BRANCH  21  22
ATOM     22  C   UNL     1       4.778   7.494  17.058  0.00  0.00    +0.000 C 
BRANCH  22  23
ATOM     23  C   UNL     1       5.594   6.301  16.636  0.00  0.00    +0.000 A 
ATOM     24  C   UNL     1       6.548   5.795  17.538  0.00  0.00    +0.000 A 
ATOM     25  C   UNL     1       7.353   4.719  17.186  0.00  0.00    +0.000 A 
ATOM     26  C   UNL     1       7.222   4.136  15.923  0.00  0.00    +0.000 A 
ATOM     27  C   UNL     1       6.282   4.634  15.012  0.00  0.00    +0.000 A 
ATOM     28  C   UNL     1       5.471   5.720  15.373  0.00  0.00    +0.000 A 
BRANCH  27  29
ATOM     29  C   UNL     1       6.132   4.036  13.635  0.00  0.00    +0.000 C 
ATOM     30  F   UNL     1       4.863   4.118  13.143  0.00  0.00    +0.000 F 
ATOM     31  F   UNL     1       6.928   4.642  12.711  0.00  0.00    +0.000 F 
ATOM     32  F   UNL     1       6.456   2.712  13.602  0.00  0.00    +0.000 F 
ENDBRANCH  27  29
ENDBRANCH  22  23
ENDBRANCH  21  22
ENDBRANCH  14  21
TORSDOF 7
ENDMDL
MODEL 4
REMARK VINA RESULT:      -7.8      3.338      7.580
REMARK  Name = 
REMARK  7 active torsions:
REMARK  status: ('A' for Active; 'I' for Inactive)
REMARK    1  A    between atoms: C_12  and  O_13
REMARK    2  A    between atoms: O_13  and  C_14
REMARK    3  A    between atoms: C_14  and  C_15
REMARK    4  A    between atoms: C_19  and  O_20
REMARK    5  A    between atoms: O_20  and  C_21
REMARK    6  A    between atoms: C_21  and  C_22
REMARK    7  A    between atoms: C_26  and  C_27
REMARK                            x       y       z     vdW  Elec       q    Type
REMARK                         _______ _______ _______ _____ _____    ______ ____
ROOT
ATOM      1  O   UNL     1       2.033   6.856  20.199  0.00  0.00    +0.000 OA
ATOM      2  C   UNL     1       2.543   5.916  19.603  0.00  0.00    +0.000 A 
ATOM      3  C   UNL     1       2.347   4.537  20.100  0.00  0.00    +0.000 A 
ATOM      4  C   UNL     1       1.532   4.268  21.205  0.00  0.00    +0.000 A 
ATOM      5  C   UNL     1       1.372   2.951  21.650  0.00  0.00    +0.000 A 
ATOM      6  C   UNL     1       2.031   1.907  21.000  0.00  0.00    +0.000 A 
ATOM      7  C   UNL     1       2.843   2.179  19.897  0.00  0.00    +0.000 A 
ATOM      8  C   UNL     1       2.994   3.493  19.448  0.00  0.00    +0.000 A 
ATOM      9  O   UNL     1       3.799   3.660  18.355  0.00  0.00    +0.000 OA
ATOM     10  C   UNL     1       3.972   4.927  17.855  0.00  0.00    +0.000 A 
ATOM     11  C   UNL     1       4.790   4.987  16.722  0.00  0.00    +0.000 A 
ATOM     12  C   UNL     1       5.096   6.211  16.145  0.00  0.00    +0.000 A 
ATOM     13  C   UNL     1       4.540   7.362  16.696  0.00  0.00    +0.000 A 
ATOM     14  C   UNL     1       3.638   7.321  17.772  0.00  0.00    +0.000 A 
ATOM     15  C   UNL     1       3.390   6.085  18.393  0.00  0.00    +0.000 A 
ENDROOT
BRANCH  12  16
ATOM     16  O   UNL     1       5.906   6.186  15.041  0.00  0.00    +0.000 OA
BRANCH  16  17
ATOM     17  C   UNL     1       5.830   5.005  14.233  0.00  0.00    +0.000 C 
BRANCH  17  18
ATOM     18  C   UNL     1       7.199   4.644  13.772  0.00  0.00    +0.000 C 
ATOM     19  C   UNL     1       7.515   4.556  12.302  0.00  0.00    +0.000 C 
ATOM     20  O   UNL     1       7.896   5.696  13.091  0.00  0.00    +0.000 OA
ENDBRANCH  17  18
ENDBRANCH  16  17
ENDBRANCH  12  16
BRANCH  14  21
ATOM     21  O   UNL     1       2.992   8.466  18.191  0.00  0.00    +0.000 OA
BRANCH  21  22
ATOM     22  C   UNL     1       1.795   8.772  17.453  0.00  0.00    +0.000 C 
BRANCH  22  23
ATOM     23  C   UNL     1       0.768   9.592  18.187  0.00  0.00    +0.000 A 
ATOM     24  C   UNL     1       1.118  10.128  19.441  0.00  0.00    +0.000 A 
ATOM     25  C   UNL     1       0.197  10.862  20.178  0.00  0.00    +0.000 A 
ATOM     26  C   UNL     1      -1.091  11.066  19.676  0.00  0.00    +0.000 A 
ATOM     27  C   UNL     1      -1.455  10.532  18.433  0.00  0.00    +0.000 A 
ATOM     28  C   UNL     1      -0.521   9.793  17.693  0.00  0.00    +0.000 A 
BRANCH  27  29
ATOM     29  C   UNL     1      -2.844  10.720  17.877  0.00  0.00    +0.000 C 
ATOM     30  F   UNL     1      -3.660  11.451  18.689  0.00  0.00    +0.000 F 
ATOM     31  F   UNL     1      -2.846  11.361  16.676  0.00  0.00    +0.000 F 
ATOM     32  F   UNL     1      -3.492   9.536  17.674  0.00  0.00    +0.000 F 
ENDBRANCH  27  29
ENDBRANCH  22  23
ENDBRANCH  21  22
ENDBRANCH  14  21
TORSDOF 7
ENDMDL
MODEL 5
REMARK VINA RESULT:      -7.8      5.189      9.248
REMARK  Name = 
REMARK  7 active torsions:
REMARK  status: ('A' for Active; 'I' for Inactive)
REMARK    1  A    between atoms: C_12  and  O_13
REMARK    2  A    between atoms: O_13  and  C_14
REMARK    3  A    between atoms: C_14  and  C_15
REMARK    4  A    between atoms: C_19  and  O_20
REMARK    5  A    between atoms: O_20  and  C_21
REMARK    6  A    between atoms: C_21  and  C_22
REMARK    7  A    between atoms: C_26  and  C_27
REMARK                            x       y       z     vdW  Elec       q    Type
REMARK                         _______ _______ _______ _____ _____    ______ ____
ROOT
ATOM      1  O   UNL     1       2.076   9.789  18.250  0.00  0.00    +0.000 OA
ATOM      2  C   UNL     1       1.659   9.154  19.210  0.00  0.00    +0.000 A 
ATOM      3  C   UNL     1       0.822   9.825  20.227  0.00  0.00    +0.000 A 
ATOM      4  C   UNL     1       0.434  11.162  20.088  0.00  0.00    +0.000 A 
ATOM      5  C   UNL     1      -0.355  11.766  21.073  0.00  0.00    +0.000 A 
ATOM      6  C   UNL     1      -0.750  11.041  22.197  0.00  0.00    +0.000 A 
ATOM      7  C   UNL     1      -0.361   9.706  22.333  0.00  0.00    +0.000 A 
ATOM      8  C   UNL     1       0.420   9.102  21.345  0.00  0.00    +0.000 A 
ATOM      9  O   UNL     1       0.740   7.790  21.558  0.00  0.00    +0.000 OA
ATOM     10  C   UNL     1       1.490   7.135  20.614  0.00  0.00    +0.000 A 
ATOM     11  C   UNL     1       1.741   5.793  20.913  0.00  0.00    +0.000 A 
ATOM     12  C   UNL     1       2.534   5.025  20.072  0.00  0.00    +0.000 A 
ATOM     13  C   UNL     1       3.035   5.612  18.914  0.00  0.00    +0.000 A 
ATOM     14  C   UNL     1       2.718   6.928  18.541  0.00  0.00    +0.000 A 
ATOM     15  C   UNL     1       1.973   7.718  19.432  0.00  0.00    +0.000 A 
ENDROOT
BRANCH  12  16
ATOM     16  O   UNL     1       2.735   3.720  20.437  0.00  0.00    +0.000 OA
BRANCH  16  17
ATOM     17  C   UNL     1       1.668   2.812  20.137  0.00  0.00    +0.000 C 
BRANCH  17  18
ATOM     18  C   UNL     1       2.148   1.811  19.145  0.00  0.00    +0.000 C 
ATOM     19  C   UNL     1       2.439   2.218  17.724  0.00  0.00    +0.000 C 
ATOM     20  O   UNL     1       3.490   2.022  18.685  0.00  0.00    +0.000 OA
ENDBRANCH  17  18
ENDBRANCH  16  17
ENDBRANCH  12  16
BRANCH  14  21
ATOM     21  O   UNL     1       3.108   7.423  17.312  0.00  0.00    +0.000 OA
BRANCH  21  22
ATOM     22  C   UNL     1       4.506   7.752  17.225  0.00  0.00    +0.000 C 
BRANCH  22  23
ATOM     23  C   UNL     1       5.423   6.614  16.865  0.00  0.00    +0.000 A 
ATOM     24  C   UNL     1       6.429   6.256  17.783  0.00  0.00    +0.000 A 
ATOM     25  C   UNL     1       7.326   5.237  17.487  0.00  0.00    +0.000 A 
ATOM     26  C   UNL     1       7.236   4.565  16.265  0.00  0.00    +0.000 A 
ATOM     27  C   UNL     1       6.245   4.916  15.339  0.00  0.00    +0.000 A 
ATOM     28  C   UNL     1       5.342   5.945  15.644  0.00  0.00    +0.000 A 
BRANCH  27  29
ATOM     29  C   UNL     1       6.138   4.221  14.005  0.00  0.00    +0.000 C 
ATOM     30  F   UNL     1       6.997   4.711  13.067  0.00  0.00    +0.000 F 
ATOM     31  F   UNL     1       6.399   2.887  14.087  0.00  0.00    +0.000 F 
ATOM     32  F   UNL     1       4.893   4.329  13.457  0.00  0.00    +0.000 F 
ENDBRANCH  27  29
ENDBRANCH  22  23
ENDBRANCH  21  22
ENDBRANCH  14  21
TORSDOF 7
ENDMDL
MODEL 6
REMARK VINA RESULT:      -7.8      1.506      2.017
REMARK  Name = 
REMARK  7 active torsions:
REMARK  status: ('A' for Active; 'I' for Inactive)
REMARK    1  A    between atoms: C_12  and  O_13
REMARK    2  A    between atoms: O_13  and  C_14
REMARK    3  A    between atoms: C_14  and  C_15
REMARK    4  A    between atoms: C_19  and  O_20
REMARK    5  A    between atoms: O_20  and  C_21
REMARK    6  A    between atoms: C_21  and  C_22
REMARK    7  A    between atoms: C_26  and  C_27
REMARK                            x       y       z     vdW  Elec       q    Type
REMARK                         _______ _______ _______ _____ _____    ______ ____
ROOT
ATOM      1  O   UNL     1       1.713   9.734  17.509  0.00  0.00    +0.000 OA
ATOM      2  C   UNL     1       1.656   9.149  18.583  0.00  0.00    +0.000 A 
ATOM      3  C   UNL     1       2.272   7.812  18.725  0.00  0.00    +0.000 A 
ATOM      4  C   UNL     1       2.984   7.221  17.675  0.00  0.00    +0.000 A 
ATOM      5  C   UNL     1       3.551   5.952  17.844  0.00  0.00    +0.000 A 
ATOM      6  C   UNL     1       3.401   5.274  19.054  0.00  0.00    +0.000 A 
ATOM      7  C   UNL     1       2.692   5.868  20.100  0.00  0.00    +0.000 A 
ATOM      8  C   UNL     1       2.133   7.138  19.933  0.00  0.00    +0.000 A 
ATOM      9  O   UNL     1       1.468   7.642  21.015  0.00  0.00    +0.000 OA
ATOM     10  C   UNL     1       0.913   8.894  20.919  0.00  0.00    +0.000 A 
ATOM     11  C   UNL     1       0.278   9.329  22.087  0.00  0.00    +0.000 A 
ATOM     12  C   UNL     1      -0.374  10.554  22.113  0.00  0.00    +0.000 A 
ATOM     13  C   UNL     1      -0.346  11.346  20.969  0.00  0.00    +0.000 A 
ATOM     14  C   UNL     1       0.367  10.977  19.817  0.00  0.00    +0.000 A 
ATOM     15  C   UNL     1       0.965   9.706  19.775  0.00  0.00    +0.000 A 
ENDROOT
BRANCH  12  16
ATOM     16  O   UNL     1      -0.975  10.906  23.293  0.00  0.00    +0.000 OA
BRANCH  16  17
ATOM     17  C   UNL     1      -1.594  12.198  23.322  0.00  0.00    +0.000 C 
BRANCH  17  18
ATOM     18  C   UNL     1      -3.044  12.035  23.614  0.00  0.00    +0.000 C 
ATOM     19  C   UNL     1      -3.973  13.220  23.572  0.00  0.00    +0.000 C 
ATOM     20  O   UNL     1      -3.909  12.270  22.494  0.00  0.00    +0.000 OA
ENDBRANCH  17  18
ENDBRANCH  16  17
ENDBRANCH  12  16
BRANCH  14  21
ATOM     21  O   UNL     1       0.498  11.856  18.761  0.00  0.00    +0.000 OA
BRANCH  21  22
ATOM     22  C   UNL     1      -0.604  12.767  18.610  0.00  0.00    +0.000 C 
BRANCH  22  23
ATOM     23  C   UNL     1      -1.899  12.154  18.151  0.00  0.00    +0.000 A 
ATOM     24  C   UNL     1      -3.030  12.292  18.977  0.00  0.00    +0.000 A 
ATOM     25  C   UNL     1      -4.243  11.715  18.620  0.00  0.00    +0.000 A 
ATOM     26  C   UNL     1      -4.341  10.984  17.433  0.00  0.00    +0.000 A 
ATOM     27  C   UNL     1      -3.222  10.831  16.604  0.00  0.00    +0.000 A 
ATOM     28  C   UNL     1      -2.002  11.418  16.970  0.00  0.00    +0.000 A 
BRANCH  27  29
ATOM     29  C   UNL     1      -3.296  10.032  15.328  0.00  0.00    +0.000 C 
ATOM     30  F   UNL     1      -3.042   8.704  15.504  0.00  0.00    +0.000 F 
ATOM     31  F   UNL     1      -4.520  10.100  14.736  0.00  0.00    +0.000 F 
ATOM     32  F   UNL     1      -2.399  10.457  14.392  0.00  0.00    +0.000 F 
ENDBRANCH  27  29
ENDBRANCH  22  23
ENDBRANCH  21  22
ENDBRANCH  14  21
TORSDOF 7
ENDMDL
MODEL 7
REMARK VINA RESULT:      -7.7      3.722      6.589
REMARK  Name = 
REMARK  7 active torsions:
REMARK  status: ('A' for Active; 'I' for Inactive)
REMARK    1  A    between atoms: C_12  and  O_13
REMARK    2  A    between atoms: O_13  and  C_14
REMARK    3  A    between atoms: C_14  and  C_15
REMARK    4  A    between atoms: C_19  and  O_20
REMARK    5  A    between atoms: O_20  and  C_21
REMARK    6  A    between atoms: C_21  and  C_22
REMARK    7  A    between atoms: C_26  and  C_27
REMARK                            x       y       z     vdW  Elec       q    Type
REMARK                         _______ _______ _______ _____ _____    ______ ____
ROOT
ATOM      1  O   UNL     1       0.046   9.523  17.807  0.00  0.00    +0.000 OA
ATOM      2  C   UNL     1      -0.888  10.208  18.205  0.00  0.00    +0.000 A 
ATOM      3  C   UNL     1      -2.047  10.455  17.322  0.00  0.00    +0.000 A 
ATOM      4  C   UNL     1      -2.139   9.867  16.056  0.00  0.00    +0.000 A 
ATOM      5  C   UNL     1      -3.250  10.127  15.245  0.00  0.00    +0.000 A 
ATOM      6  C   UNL     1      -4.262  10.976  15.694  0.00  0.00    +0.000 A 
ATOM      7  C   UNL     1      -4.167  11.560  16.959  0.00  0.00    +0.000 A 
ATOM      8  C   UNL     1      -3.062  11.294  17.771  0.00  0.00    +0.000 A 
ATOM      9  O   UNL     1      -3.062  11.900  18.996  0.00  0.00    +0.000 OA
ATOM     10  C   UNL     1      -2.012  11.662  19.847  0.00  0.00    +0.000 A 
ATOM     11  C   UNL     1      -2.121  12.308  21.083  0.00  0.00    +0.000 A 
ATOM     12  C   UNL     1      -1.102  12.199  22.020  0.00  0.00    +0.000 A 
ATOM     13  C   UNL     1       0.001  11.408  21.712  0.00  0.00    +0.000 A 
ATOM     14  C   UNL     1       0.089  10.672  20.520  0.00  0.00    +0.000 A 
ATOM     15  C   UNL     1      -0.913  10.842  19.550  0.00  0.00    +0.000 A 
ENDROOT
BRANCH  12  16
ATOM     16  O   UNL     1      -1.282  12.864  23.204  0.00  0.00    +0.000 OA
BRANCH  16  17
ATOM     17  C   UNL     1      -2.413  13.741  23.266  0.00  0.00    +0.000 C 
BRANCH  17  18
ATOM     18  C   UNL     1      -3.336  13.266  24.333  0.00  0.00    +0.000 C 
ATOM     19  C   UNL     1      -4.806  13.087  24.052  0.00  0.00    +0.000 C 
ATOM     20  O   UNL     1      -3.903  11.969  24.098  0.00  0.00    +0.000 OA
ENDBRANCH  17  18
ENDBRANCH  16  17
ENDBRANCH  12  16
BRANCH  14  21
ATOM     21  O   UNL     1       1.124   9.781  20.320  0.00  0.00    +0.000 OA
BRANCH  21  22
ATOM     22  C   UNL     1       0.995   8.551  21.054  0.00  0.00    +0.000 C 
BRANCH  22  23
ATOM     23  C   UNL     1       1.633   7.343  20.421  0.00  0.00    +0.000 A 
ATOM     24  C   UNL     1       1.389   6.083  20.998  0.00  0.00    +0.000 A 
ATOM     25  C   UNL     1       1.981   4.939  20.476  0.00  0.00    +0.000 A 
ATOM     26  C   UNL     1       2.832   5.039  19.373  0.00  0.00    +0.000 A 
ATOM     27  C   UNL     1       3.090   6.288  18.793  0.00  0.00    +0.000 A 
ATOM     28  C   UNL     1       2.488   7.438  19.323  0.00  0.00    +0.000 A 
BRANCH  27  29
ATOM     29  C   UNL     1       4.020   6.426  17.614  0.00  0.00    +0.000 C 
ATOM     30  F   UNL     1       3.965   5.371  16.752  0.00  0.00    +0.000 F 
ATOM     31  F   UNL     1       3.755   7.531  16.864  0.00  0.00    +0.000 F 
ATOM     32  F   UNL     1       5.328   6.528  17.988  0.00  0.00    +0.000 F 
ENDBRANCH  27  29
ENDBRANCH  22  23
ENDBRANCH  21  22
ENDBRANCH  14  21
TORSDOF 7
ENDMDL
MODEL 8
REMARK VINA RESULT:      -7.7      4.010      8.142
REMARK  Name = 
REMARK  7 active torsions:
REMARK  status: ('A' for Active; 'I' for Inactive)
REMARK    1  A    between atoms: C_12  and  O_13
REMARK    2  A    between atoms: O_13  and  C_14
REMARK    3  A    between atoms: C_14  and  C_15
REMARK    4  A    between atoms: C_19  and  O_20
REMARK    5  A    between atoms: O_20  and  C_21
REMARK    6  A    between atoms: C_21  and  C_22
REMARK    7  A    between atoms: C_26  and  C_27
REMARK                            x       y       z     vdW  Elec       q    Type
REMARK                         _______ _______ _______ _____ _____    ______ ____
ROOT
ATOM      1  O   UNL     1       2.447   6.630  20.135  0.00  0.00    +0.000 OA
ATOM      2  C   UNL     1       2.812   5.658  19.485  0.00  0.00    +0.000 A 
ATOM      3  C   UNL     1       2.481   4.295  19.953  0.00  0.00    +0.000 A 
ATOM      4  C   UNL     1       1.697   4.085  21.093  0.00  0.00    +0.000 A 
ATOM      5  C   UNL     1       1.406   2.780  21.508  0.00  0.00    +0.000 A 
ATOM      6  C   UNL     1       1.903   1.690  20.794  0.00  0.00    +0.000 A 
ATOM      7  C   UNL     1       2.684   1.904  19.656  0.00  0.00    +0.000 A 
ATOM      8  C   UNL     1       2.966   3.207  19.236  0.00  0.00    +0.000 A 
ATOM      9  O   UNL     1       3.727   3.317  18.107  0.00  0.00    +0.000 OA
ATOM     10  C   UNL     1       4.023   4.571  17.634  0.00  0.00    +0.000 A 
ATOM     11  C   UNL     1       4.783   4.574  16.460  0.00  0.00    +0.000 A 
ATOM     12  C   UNL     1       5.201   5.775  15.902  0.00  0.00    +0.000 A 
ATOM     13  C   UNL     1       4.814   6.962  16.515  0.00  0.00    +0.000 A 
ATOM     14  C   UNL     1       3.970   6.989  17.638  0.00  0.00    +0.000 A 
ATOM     15  C   UNL     1       3.610   5.770  18.236  0.00  0.00    +0.000 A 
ENDROOT
BRANCH  12  16
ATOM     16  O   UNL     1       5.945   5.694  14.755  0.00  0.00    +0.000 OA
BRANCH  16  17
ATOM     17  C   UNL     1       6.394   4.383  14.388  0.00  0.00    +0.000 C 
BRANCH  17  18
ATOM     18  C   UNL     1       6.317   4.240  12.909  0.00  0.00    +0.000 C 
ATOM     19  C   UNL     1       6.275   2.876  12.271  0.00  0.00    +0.000 C 
ATOM     20  O   UNL     1       5.090   3.675  12.427  0.00  0.00    +0.000 OA
ENDBRANCH  17  18
ENDBRANCH  16  17
ENDBRANCH  12  16
BRANCH  14  21
ATOM     21  O   UNL     1       3.485   8.186  18.123  0.00  0.00    +0.000 OA
BRANCH  21  22
ATOM     22  C   UNL     1       2.323   8.677  17.433  0.00  0.00    +0.000 C 
BRANCH  22  23
ATOM     23  C   UNL     1       1.224   9.217  18.308  0.00  0.00    +0.000 A 
ATOM     24  C   UNL     1       0.160   9.903  17.692  0.00  0.00    +0.000 A 
ATOM     25  C   UNL     1      -0.863  10.453  18.454  0.00  0.00    +0.000 A 
ATOM     26  C   UNL     1      -0.834  10.333  19.846  0.00  0.00    +0.000 A 
ATOM     27  C   UNL     1       0.222   9.659  20.473  0.00  0.00    +0.000 A 
ATOM     28  C   UNL     1       1.251   9.104  19.698  0.00  0.00    +0.000 A 
BRANCH  27  29
ATOM     29  C   UNL     1       0.288   9.531  21.974  0.00  0.00    +0.000 C 
ATOM     30  F   UNL     1       0.088  10.711  22.629  0.00  0.00    +0.000 F 
ATOM     31  F   UNL     1      -0.644   8.671  22.469  0.00  0.00    +0.000 F 
ATOM     32  F   UNL     1       1.496   9.070  22.408  0.00  0.00    +0.000 F 
ENDBRANCH  27  29
ENDBRANCH  22  23
ENDBRANCH  21  22
ENDBRANCH  14  21
TORSDOF 7
ENDMDL
MODEL 9
REMARK VINA RESULT:      -7.6      3.501      7.796
REMARK  Name = 
REMARK  7 active torsions:
REMARK  status: ('A' for Active; 'I' for Inactive)
REMARK    1  A    between atoms: C_12  and  O_13
REMARK    2  A    between atoms: O_13  and  C_14
REMARK    3  A    between atoms: C_14  and  C_15
REMARK    4  A    between atoms: C_19  and  O_20
REMARK    5  A    between atoms: O_20  and  C_21
REMARK    6  A    between atoms: C_21  and  C_22
REMARK    7  A    between atoms: C_26  and  C_27
REMARK                            x       y       z     vdW  Elec       q    Type
REMARK                         _______ _______ _______ _____ _____    ______ ____
ROOT
ATOM      1  O   UNL     1       2.375   6.885  19.946  0.00  0.00    +0.000 OA
ATOM      2  C   UNL     1       2.822   5.875  19.418  0.00  0.00    +0.000 A 
ATOM      3  C   UNL     1       2.558   4.552  20.020  0.00  0.00    +0.000 A 
ATOM      4  C   UNL     1       1.746   4.413  21.151  0.00  0.00    +0.000 A 
ATOM      5  C   UNL     1       1.521   3.144  21.697  0.00  0.00    +0.000 A 
ATOM      6  C   UNL     1       2.110   2.019  21.121  0.00  0.00    +0.000 A 
ATOM      7  C   UNL     1       2.919   2.160  19.991  0.00  0.00    +0.000 A 
ATOM      8  C   UNL     1       3.136   3.427  19.442  0.00  0.00    +0.000 A 
ATOM      9  O   UNL     1       3.932   3.465  18.331  0.00  0.00    +0.000 OA
ATOM     10  C   UNL     1       4.167   4.679  17.734  0.00  0.00    +0.000 A 
ATOM     11  C   UNL     1       4.970   4.607  16.591  0.00  0.00    +0.000 A 
ATOM     12  C   UNL     1       5.334   5.766  15.919  0.00  0.00    +0.000 A 
ATOM     13  C   UNL     1       4.852   6.984  16.387  0.00  0.00    +0.000 A 
ATOM     14  C   UNL     1       3.966   7.075  17.473  0.00  0.00    +0.000 A 
ATOM     15  C   UNL     1       3.659   5.905  18.189  0.00  0.00    +0.000 A 
ENDROOT
BRANCH  12  16
ATOM     16  O   UNL     1       6.125   5.612  14.811  0.00  0.00    +0.000 OA
BRANCH  16  17
ATOM     17  C   UNL     1       6.374   4.262  14.399  0.00  0.00    +0.000 C 
BRANCH  17  18
ATOM     18  C   UNL     1       6.254   4.177  12.918  0.00  0.00    +0.000 C 
ATOM     19  C   UNL     1       6.215   2.838  12.228  0.00  0.00    +0.000 C 
ATOM     20  O   UNL     1       5.022   3.610  12.450  0.00  0.00    +0.000 OA
ENDBRANCH  17  18
ENDBRANCH  16  17
ENDBRANCH  12  16
BRANCH  14  21
ATOM     21  O   UNL     1       3.390   8.283  17.811  0.00  0.00    +0.000 OA
BRANCH  21  22
ATOM     22  C   UNL     1       2.004   8.400  17.444  0.00  0.00    +0.000 C 
BRANCH  22  23
ATOM     23  C   UNL     1       1.318   9.666  17.883  0.00  0.00    +0.000 A 
ATOM     24  C   UNL     1       2.117  10.733  18.333  0.00  0.00    +0.000 A 
ATOM     25  C   UNL     1       1.535  11.912  18.784  0.00  0.00    +0.000 A 
ATOM     26  C   UNL     1       0.144  12.038  18.799  0.00  0.00    +0.000 A 
ATOM     27  C   UNL     1      -0.664  10.981  18.361  0.00  0.00    +0.000 A 
ATOM     28  C   UNL     1      -0.071   9.795  17.905  0.00  0.00    +0.000 A 
BRANCH  27  29
ATOM     29  C   UNL     1      -2.169  11.084  18.384  0.00  0.00    +0.000 C 
ATOM     30  F   UNL     1      -2.796   9.875  18.310  0.00  0.00    +0.000 F 
ATOM     31  F   UNL     1      -2.637  11.675  19.517  0.00  0.00    +0.000 F 
ATOM     32  F   UNL     1      -2.659  11.818  17.344  0.00  0.00    +0.000 F 
ENDBRANCH  27  29
ENDBRANCH  22  23
ENDBRANCH  21  22
ENDBRANCH  14  21
TORSDOF 7
ENDMDL
