MODEL 1
REMARK VINA RESULT:      -7.1      0.000      0.000
REMARK  Name = 
REMARK  11 active torsions:
REMARK  status: ('A' for Active; 'I' for Inactive)
REMARK    1  A    between atoms: C_1  and  O_2
REMARK    2  A    between atoms: O_2  and  C_3
REMARK    3  A    between atoms: C_3  and  C_4
REMARK    4  A    between atoms: C_4  and  N_5
REMARK    5  A    between atoms: C_6  and  C_8
REMARK    6  A    between atoms: C_8  and  O_9
REMARK    7  A    between atoms: C_8  and  C_17
REMARK    8  A    between atoms: O_9  and  C_10
REMARK    9  A    between atoms: C_10  and  C_12
REMARK   10  A    between atoms: C_22  and  O_23
REMARK   11  A    between atoms: O_23  and  C_24
REMARK                            x       y       z     vdW  Elec       q    Type
REMARK                         _______ _______ _______ _____ _____    ______ ____
ROOT
ATOM      1  C   UNL     1       3.924   4.137  18.085  0.00  0.00    +0.000 C 
ENDROOT
BRANCH   1   2
ATOM      2  C   UNL     1       5.078   4.453  17.144  0.00  0.00    +0.000 A 
ATOM      3  C   UNL     1       4.850   4.342  15.752  0.00  0.00    +0.000 A 
ATOM      4  C   UNL     1       5.885   4.466  14.826  0.00  0.00    +0.000 A 
ATOM      5  C   UNL     1       7.172   4.740  15.267  0.00  0.00    +0.000 A 
ATOM      6  C   UNL     1       7.414   4.902  16.632  0.00  0.00    +0.000 A 
ATOM      7  C   UNL     1       6.380   4.769  17.572  0.00  0.00    +0.000 A 
BRANCH   7   8
ATOM      8  O   UNL     1       6.798   4.786  18.875  0.00  0.00    +0.000 OA
ATOM      9  C   UNL     1       7.823   5.729  19.181  0.00  0.00    +0.000 C 
ENDBRANCH   7   8
ENDBRANCH   1   2
BRANCH   1  11
ATOM     10  N   UNL     1       3.275   6.455  18.720  0.00  0.00    +0.000 N 
ATOM     11  C   UNL     1       2.876   5.285  18.096  0.00  0.00    +0.000 C 
ATOM     12  O   UNL     1       1.745   5.153  17.635  0.00  0.00    +0.000 OA
ATOM     13  H   UNL     1       4.268   6.625  18.818  0.00  0.00    +0.000 HD
BRANCH  10  14
ATOM     14  C   UNL     1       2.404   7.621  18.716  0.00  0.00    +0.000 C 
BRANCH  14  15
ATOM     15  C   UNL     1       2.625   8.503  17.488  0.00  0.00    +0.000 C 
BRANCH  15  17
ATOM     16  C   UNL     1       1.018   9.673  18.761  0.00  0.00    +0.000 C 
ATOM     17  O   UNL     1       1.937   9.746  17.679  0.00  0.00    +0.000 OA
ENDBRANCH  15  17
ENDBRANCH  14  15
ENDBRANCH  10  14
ENDBRANCH   1  11
BRANCH   1  18
ATOM     18  O   UNL     1       3.367   2.879  17.655  0.00  0.00    +0.000 OA
BRANCH  18  19
ATOM     19  C   UNL     1       3.348   1.888  18.580  0.00  0.00    +0.000 C 
ATOM     20  O   UNL     1       3.891   0.801  18.429  0.00  0.00    +0.000 OA
BRANCH  19  21
ATOM     21  C   UNL     1       2.608   2.301  19.749  0.00  0.00    +0.000 A 
ATOM     22  C   UNL     1       1.258   2.548  19.919  0.00  0.00    +0.000 A 
ATOM     23  C   UNL     1       1.078   2.943  21.267  0.00  0.00    +0.000 A 
ATOM     24  C   UNL     1       2.321   2.905  21.851  0.00  0.00    +0.000 A 
ATOM     25  O   UNL     1       3.254   2.509  20.940  0.00  0.00    +0.000 OA
ENDBRANCH  19  21
ENDBRANCH  18  19
ENDBRANCH   1  18
TORSDOF 9
ENDMDL
MODEL 2
REMARK VINA RESULT:      -7.1      0.931      1.065
REMARK  Name = 
REMARK  11 active torsions:
REMARK  status: ('A' for Active; 'I' for Inactive)
REMARK    1  A    between atoms: C_1  and  O_2
REMARK    2  A    between atoms: O_2  and  C_3
REMARK    3  A    between atoms: C_3  and  C_4
REMARK    4  A    between atoms: C_4  and  N_5
REMARK    5  A    between atoms: C_6  and  C_8
REMARK    6  A    between atoms: C_8  and  O_9
REMARK    7  A    between atoms: C_8  and  C_17
REMARK    8  A    between atoms: O_9  and  C_10
REMARK    9  A    between atoms: C_10  and  C_12
REMARK   10  A    between atoms: C_22  and  O_23
REMARK   11  A    between atoms: O_23  and  C_24
REMARK                            x       y       z     vdW  Elec       q    Type
REMARK                         _______ _______ _______ _____ _____    ______ ____
ROOT
ATOM      1  C   UNL     1       4.751   3.958  18.033  0.00  0.00    +0.000 C 
ENDROOT
BRANCH   1   2
ATOM      2  C   UNL     1       5.525   4.343  16.779  0.00  0.00    +0.000 A 
ATOM      3  C   UNL     1       4.928   4.081  15.524  0.00  0.00    +0.000 A 
ATOM      4  C   UNL     1       5.623   4.261  14.328  0.00  0.00    +0.000 A 
ATOM      5  C   UNL     1       6.924   4.743  14.356  0.00  0.00    +0.000 A 
ATOM      6  C   UNL     1       7.519   5.053  15.580  0.00  0.00    +0.000 A 
ATOM      7  C   UNL     1       6.830   4.866  16.788  0.00  0.00    +0.000 A 
BRANCH   7   8
ATOM      8  O   UNL     1       7.596   5.053  17.907  0.00  0.00    +0.000 OA
ATOM      9  C   UNL     1       7.750   6.406  18.330  0.00  0.00    +0.000 C 
ENDBRANCH   7   8
ENDBRANCH   1   2
BRANCH   1  11
ATOM     10  N   UNL     1       3.196   5.902  18.080  0.00  0.00    +0.000 N 
ATOM     11  C   UNL     1       4.190   5.215  18.756  0.00  0.00    +0.000 C 
ATOM     12  O   UNL     1       4.634   5.615  19.830  0.00  0.00    +0.000 OA
ATOM     13  H   UNL     1       2.671   5.401  17.373  0.00  0.00    +0.000 HD
BRANCH  10  14
ATOM     14  C   UNL     1       2.543   7.044  18.700  0.00  0.00    +0.000 C 
BRANCH  14  15
ATOM     15  C   UNL     1       2.493   8.257  17.772  0.00  0.00    +0.000 C 
BRANCH  15  17
ATOM     16  C   UNL     1       1.289   8.928  19.688  0.00  0.00    +0.000 C 
ATOM     17  O   UNL     1       1.888   9.352  18.470  0.00  0.00    +0.000 OA
ENDBRANCH  15  17
ENDBRANCH  14  15
ENDBRANCH  10  14
ENDBRANCH   1  11
BRANCH   1  18
ATOM     18  O   UNL     1       3.714   3.046  17.620  0.00  0.00    +0.000 OA
BRANCH  18  19
ATOM     19  C   UNL     1       3.441   2.028  18.474  0.00  0.00    +0.000 C 
ATOM     20  O   UNL     1       3.858   0.886  18.332  0.00  0.00    +0.000 OA
BRANCH  19  21
ATOM     21  C   UNL     1       2.603   2.487  19.557  0.00  0.00    +0.000 A 
ATOM     22  C   UNL     1       1.286   2.907  19.560  0.00  0.00    +0.000 A 
ATOM     23  C   UNL     1       0.970   3.265  20.894  0.00  0.00    +0.000 A 
ATOM     24  C   UNL     1       2.105   3.036  21.634  0.00  0.00    +0.000 A 
ATOM     25  O   UNL     1       3.098   2.556  20.833  0.00  0.00    +0.000 OA
ENDBRANCH  19  21
ENDBRANCH  18  19
ENDBRANCH   1  18
TORSDOF 9
ENDMDL
MODEL 3
REMARK VINA RESULT:      -7.0      3.020      6.316
REMARK  Name = 
REMARK  11 active torsions:
REMARK  status: ('A' for Active; 'I' for Inactive)
REMARK    1  A    between atoms: C_1  and  O_2
REMARK    2  A    between atoms: O_2  and  C_3
REMARK    3  A    between atoms: C_3  and  C_4
REMARK    4  A    between atoms: C_4  and  N_5
REMARK    5  A    between atoms: C_6  and  C_8
REMARK    6  A    between atoms: C_8  and  O_9
REMARK    7  A    between atoms: C_8  and  C_17
REMARK    8  A    between atoms: O_9  and  C_10
REMARK    9  A    between atoms: C_10  and  C_12
REMARK   10  A    between atoms: C_22  and  O_23
REMARK   11  A    between atoms: O_23  and  C_24
REMARK                            x       y       z     vdW  Elec       q    Type
REMARK                         _______ _______ _______ _____ _____    ______ ____
ROOT
ATOM      1  C   UNL     1       5.624   5.377  16.297  0.00  0.00    +0.000 C 
ENDROOT
BRANCH   1   2
ATOM      2  C   UNL     1       4.357   4.938  17.019  0.00  0.00    +0.000 A 
ATOM      3  C   UNL     1       4.047   3.558  17.038  0.00  0.00    +0.000 A 
ATOM      4  C   UNL     1       2.837   3.084  17.543  0.00  0.00    +0.000 A 
ATOM      5  C   UNL     1       1.918   3.977  18.076  0.00  0.00    +0.000 A 
ATOM      6  C   UNL     1       2.221   5.339  18.113  0.00  0.00    +0.000 A 
ATOM      7  C   UNL     1       3.433   5.826  17.598  0.00  0.00    +0.000 A 
BRANCH   7   8
ATOM      8  O   UNL     1       3.516   7.191  17.550  0.00  0.00    +0.000 OA
ATOM      9  C   UNL     1       2.374   7.896  18.033  0.00  0.00    +0.000 C 
ENDBRANCH   7   8
ENDBRANCH   1   2
BRANCH   1  11
ATOM     10  N   UNL     1       7.151   7.144  17.162  0.00  0.00    +0.000 N 
ATOM     11  C   UNL     1       6.715   5.837  17.305  0.00  0.00    +0.000 C 
ATOM     12  O   UNL     1       7.207   5.081  18.139  0.00  0.00    +0.000 OA
ATOM     13  H   UNL     1       6.541   7.796  16.685  0.00  0.00    +0.000 HD
BRANCH  10  14
ATOM     14  C   UNL     1       8.109   7.703  18.103  0.00  0.00    +0.000 C 
BRANCH  14  15
ATOM     15  C   UNL     1       8.265   9.214  17.939  0.00  0.00    +0.000 C 
BRANCH  15  17
ATOM     16  C   UNL     1       9.312  11.112  18.874  0.00  0.00    +0.000 C 
ATOM     17  O   UNL     1       9.119   9.708  18.979  0.00  0.00    +0.000 OA
ENDBRANCH  15  17
ENDBRANCH  14  15
ENDBRANCH  10  14
ENDBRANCH   1  11
BRANCH   1  18
ATOM     18  O   UNL     1       6.049   4.263  15.486  0.00  0.00    +0.000 OA
BRANCH  18  19
ATOM     19  C   UNL     1       6.738   4.574  14.360  0.00  0.00    +0.000 C 
ATOM     20  O   UNL     1       7.669   5.369  14.325  0.00  0.00    +0.000 OA
BRANCH  19  21
ATOM     21  C   UNL     1       6.220   3.838  13.231  0.00  0.00    +0.000 A 
ATOM     22  C   UNL     1       6.866   3.047  12.299  0.00  0.00    +0.000 A 
ATOM     23  C   UNL     1       5.878   2.581  11.398  0.00  0.00    +0.000 A 
ATOM     24  C   UNL     1       4.683   3.102  11.831  0.00  0.00    +0.000 A 
ATOM     25  O   UNL     1       4.879   3.859  12.947  0.00  0.00    +0.000 OA
ENDBRANCH  19  21
ENDBRANCH  18  19
ENDBRANCH   1  18
TORSDOF 9
ENDMDL
MODEL 4
REMARK VINA RESULT:      -6.9      2.153      4.646
REMARK  Name = 
REMARK  11 active torsions:
REMARK  status: ('A' for Active; 'I' for Inactive)
REMARK    1  A    between atoms: C_1  and  O_2
REMARK    2  A    between atoms: O_2  and  C_3
REMARK    3  A    between atoms: C_3  and  C_4
REMARK    4  A    between atoms: C_4  and  N_5
REMARK    5  A    between atoms: C_6  and  C_8
REMARK    6  A    between atoms: C_8  and  O_9
REMARK    7  A    between atoms: C_8  and  C_17
REMARK    8  A    between atoms: O_9  and  C_10
REMARK    9  A    between atoms: C_10  and  C_12
REMARK   10  A    between atoms: C_22  and  O_23
REMARK   11  A    between atoms: O_23  and  C_24
REMARK                            x       y       z     vdW  Elec       q    Type
REMARK                         _______ _______ _______ _____ _____    ______ ____
ROOT
ATOM      1  C   UNL     1       4.047   4.069  18.110  0.00  0.00    +0.000 C 
ENDROOT
BRANCH   1   2
ATOM      2  C   UNL     1       5.140   4.408  17.106  0.00  0.00    +0.000 A 
ATOM      3  C   UNL     1       4.811   4.379  15.730  0.00  0.00    +0.000 A 
ATOM      4  C   UNL     1       5.781   4.528  14.740  0.00  0.00    +0.000 A 
ATOM      5  C   UNL     1       7.103   4.747  15.101  0.00  0.00    +0.000 A 
ATOM      6  C   UNL     1       7.446   4.828  16.451  0.00  0.00    +0.000 A 
ATOM      7  C   UNL     1       6.477   4.669  17.455  0.00  0.00    +0.000 A 
BRANCH   7   8
ATOM      8  O   UNL     1       6.987   4.605  18.724  0.00  0.00    +0.000 OA
ATOM      9  C   UNL     1       7.868   5.665  19.088  0.00  0.00    +0.000 C 
ENDBRANCH   7   8
ENDBRANCH   1   2
BRANCH   1  11
ATOM     10  N   UNL     1       4.989   2.377  19.675  0.00  0.00    +0.000 N 
ATOM     11  C   UNL     1       4.159   2.594  18.588  0.00  0.00    +0.000 C 
ATOM     12  O   UNL     1       3.597   1.666  18.010  0.00  0.00    +0.000 OA
ATOM     13  H   UNL     1       5.189   3.162  20.283  0.00  0.00    +0.000 HD
BRANCH  10  14
ATOM     14  C   UNL     1       5.103   1.048  20.256  0.00  0.00    +0.000 C 
BRANCH  14  15
ATOM     15  C   UNL     1       5.051   1.078  21.783  0.00  0.00    +0.000 C 
BRANCH  15  17
ATOM     16  C   UNL     1       6.603  -0.634  22.264  0.00  0.00    +0.000 C 
ATOM     17  O   UNL     1       6.350   0.765  22.298  0.00  0.00    +0.000 OA
ENDBRANCH  15  17
ENDBRANCH  14  15
ENDBRANCH  10  14
ENDBRANCH   1  11
BRANCH   1  18
ATOM     18  O   UNL     1       4.167   5.014  19.192  0.00  0.00    +0.000 OA
BRANCH  18  19
ATOM     19  C   UNL     1       3.003   5.495  19.695  0.00  0.00    +0.000 C 
ATOM     20  O   UNL     1       2.669   6.672  19.641  0.00  0.00    +0.000 OA
BRANCH  19  21
ATOM     21  C   UNL     1       2.229   4.430  20.288  0.00  0.00    +0.000 A 
ATOM     22  C   UNL     1       0.999   3.906  19.934  0.00  0.00    +0.000 A 
ATOM     23  C   UNL     1       0.701   2.886  20.870  0.00  0.00    +0.000 A 
ATOM     24  C   UNL     1       1.766   2.833  21.737  0.00  0.00    +0.000 A 
ATOM     25  O   UNL     1       2.701   3.760  21.387  0.00  0.00    +0.000 OA
ENDBRANCH  19  21
ENDBRANCH  18  19
ENDBRANCH   1  18
TORSDOF 9
ENDMDL
MODEL 5
REMARK VINA RESULT:      -6.8      0.999      1.210
REMARK  Name = 
REMARK  11 active torsions:
REMARK  status: ('A' for Active; 'I' for Inactive)
REMARK    1  A    between atoms: C_1  and  O_2
REMARK    2  A    between atoms: O_2  and  C_3
REMARK    3  A    between atoms: C_3  and  C_4
REMARK    4  A    between atoms: C_4  and  N_5
REMARK    5  A    between atoms: C_6  and  C_8
REMARK    6  A    between atoms: C_8  and  O_9
REMARK    7  A    between atoms: C_8  and  C_17
REMARK    8  A    between atoms: O_9  and  C_10
REMARK    9  A    between atoms: C_10  and  C_12
REMARK   10  A    between atoms: C_22  and  O_23
REMARK   11  A    between atoms: O_23  and  C_24
REMARK                            x       y       z     vdW  Elec       q    Type
REMARK                         _______ _______ _______ _____ _____    ______ ____
ROOT
ATOM      1  C   UNL     1       4.341   4.747  18.220  0.00  0.00    +0.000 C 
ENDROOT
BRANCH   1   2
ATOM      2  C   UNL     1       5.349   4.835  17.081  0.00  0.00    +0.000 A 
ATOM      3  C   UNL     1       4.852   4.883  15.757  0.00  0.00    +0.000 A 
ATOM      4  C   UNL     1       5.699   4.814  14.652  0.00  0.00    +0.000 A 
ATOM      5  C   UNL     1       7.072   4.730  14.842  0.00  0.00    +0.000 A 
ATOM      6  C   UNL     1       7.589   4.729  16.138  0.00  0.00    +0.000 A 
ATOM      7  C   UNL     1       6.743   4.788  17.257  0.00  0.00    +0.000 A 
BRANCH   7   8
ATOM      8  O   UNL     1       7.380   4.609  18.455  0.00  0.00    +0.000 OA
ATOM      9  C   UNL     1       7.775   5.803  19.128  0.00  0.00    +0.000 C 
ENDBRANCH   7   8
ENDBRANCH   1   2
BRANCH   1  11
ATOM     10  N   UNL     1       3.403   7.049  18.088  0.00  0.00    +0.000 N 
ATOM     11  C   UNL     1       3.134   5.695  17.978  0.00  0.00    +0.000 C 
ATOM     12  O   UNL     1       1.998   5.279  17.760  0.00  0.00    +0.000 OA
ATOM     13  H   UNL     1       4.364   7.352  17.976  0.00  0.00    +0.000 HD
BRANCH  10  14
ATOM     14  C   UNL     1       2.366   8.028  17.800  0.00  0.00    +0.000 C 
BRANCH  14  15
ATOM     15  C   UNL     1       1.742   8.600  19.072  0.00  0.00    +0.000 C 
BRANCH  15  17
ATOM     16  C   UNL     1       0.031  10.166  18.634  0.00  0.00    +0.000 C 
ATOM     17  O   UNL     1       1.423   9.980  18.853  0.00  0.00    +0.000 OA
ENDBRANCH  15  17
ENDBRANCH  14  15
ENDBRANCH  10  14
ENDBRANCH   1  11
BRANCH   1  18
ATOM     18  O   UNL     1       3.950   3.363  18.325  0.00  0.00    +0.000 OA
BRANCH  18  19
ATOM     19  C   UNL     1       4.109   2.790  19.543  0.00  0.00    +0.000 C 
ATOM     20  O   UNL     1       5.169   2.334  19.952  0.00  0.00    +0.000 OA
BRANCH  19  21
ATOM     21  C   UNL     1       2.863   2.802  20.274  0.00  0.00    +0.000 A 
ATOM     22  C   UNL     1       2.617   2.746  21.633  0.00  0.00    +0.000 A 
ATOM     23  C   UNL     1       1.210   2.772  21.799  0.00  0.00    +0.000 A 
ATOM     24  C   UNL     1       0.674   2.852  20.537  0.00  0.00    +0.000 A 
ATOM     25  O   UNL     1       1.669   2.879  19.606  0.00  0.00    +0.000 OA
ENDBRANCH  19  21
ENDBRANCH  18  19
ENDBRANCH   1  18
TORSDOF 9
ENDMDL
MODEL 6
REMARK VINA RESULT:      -6.7      1.454      1.660
REMARK  Name = 
REMARK  11 active torsions:
REMARK  status: ('A' for Active; 'I' for Inactive)
REMARK    1  A    between atoms: C_1  and  O_2
REMARK    2  A    between atoms: O_2  and  C_3
REMARK    3  A    between atoms: C_3  and  C_4
REMARK    4  A    between atoms: C_4  and  N_5
REMARK    5  A    between atoms: C_6  and  C_8
REMARK    6  A    between atoms: C_8  and  O_9
REMARK    7  A    between atoms: C_8  and  C_17
REMARK    8  A    between atoms: O_9  and  C_10
REMARK    9  A    between atoms: C_10  and  C_12
REMARK   10  A    between atoms: C_22  and  O_23
REMARK   11  A    between atoms: O_23  and  C_24
REMARK                            x       y       z     vdW  Elec       q    Type
REMARK                         _______ _______ _______ _____ _____    ______ ____
ROOT
ATOM      1  C   UNL     1       3.978   4.940  18.043  0.00  0.00    +0.000 C 
ENDROOT
BRANCH   1   2
ATOM      2  C   UNL     1       5.129   4.912  17.046  0.00  0.00    +0.000 A 
ATOM      3  C   UNL     1       4.812   4.901  15.667  0.00  0.00    +0.000 A 
ATOM      4  C   UNL     1       5.792   4.725  14.690  0.00  0.00    +0.000 A 
ATOM      5  C   UNL     1       7.121   4.591  15.066  0.00  0.00    +0.000 A 
ATOM      6  C   UNL     1       7.464   4.646  16.418  0.00  0.00    +0.000 A 
ATOM      7  C   UNL     1       6.484   4.813  17.408  0.00  0.00    +0.000 A 
BRANCH   7   8
ATOM      8  O   UNL     1       6.948   4.679  18.689  0.00  0.00    +0.000 OA
ATOM      9  C   UNL     1       7.696   5.784  19.192  0.00  0.00    +0.000 C 
ENDBRANCH   7   8
ENDBRANCH   1   2
BRANCH   1  11
ATOM     10  N   UNL     1       2.476   6.533  19.228  0.00  0.00    +0.000 N 
ATOM     11  C   UNL     1       3.466   6.390  18.270  0.00  0.00    +0.000 C 
ATOM     12  O   UNL     1       3.864   7.345  17.608  0.00  0.00    +0.000 OA
ATOM     13  H   UNL     1       2.388   5.808  19.931  0.00  0.00    +0.000 HD
BRANCH  10  14
ATOM     14  C   UNL     1       1.982   7.855  19.579  0.00  0.00    +0.000 C 
BRANCH  14  15
ATOM     15  C   UNL     1       1.381   7.894  20.984  0.00  0.00    +0.000 C 
BRANCH  15  17
ATOM     16  C   UNL     1       0.202   9.872  20.465  0.00  0.00    +0.000 C 
ATOM     17  O   UNL     1       1.135   9.258  21.345  0.00  0.00    +0.000 OA
ENDBRANCH  15  17
ENDBRANCH  14  15
ENDBRANCH  10  14
ENDBRANCH   1  11
BRANCH   1  18
ATOM     18  O   UNL     1       2.957   4.063  17.527  0.00  0.00    +0.000 OA
BRANCH  18  19
ATOM     19  C   UNL     1       2.885   2.833  18.094  0.00  0.00    +0.000 C 
ATOM     20  O   UNL     1       3.122   1.790  17.499  0.00  0.00    +0.000 OA
BRANCH  19  21
ATOM     21  C   UNL     1       2.499   2.938  19.482  0.00  0.00    +0.000 A 
ATOM     22  C   UNL     1       3.134   2.500  20.629  0.00  0.00    +0.000 A 
ATOM     23  C   UNL     1       2.303   2.850  21.721  0.00  0.00    +0.000 A 
ATOM     24  C   UNL     1       1.212   3.491  21.186  0.00  0.00    +0.000 A 
ATOM     25  O   UNL     1       1.325   3.556  19.829  0.00  0.00    +0.000 OA
ENDBRANCH  19  21
ENDBRANCH  18  19
ENDBRANCH   1  18
TORSDOF 9
ENDMDL
MODEL 7
REMARK VINA RESULT:      -6.7      1.855      6.148
REMARK  Name = 
REMARK  11 active torsions:
REMARK  status: ('A' for Active; 'I' for Inactive)
REMARK    1  A    between atoms: C_1  and  O_2
REMARK    2  A    between atoms: O_2  and  C_3
REMARK    3  A    between atoms: C_3  and  C_4
REMARK    4  A    between atoms: C_4  and  N_5
REMARK    5  A    between atoms: C_6  and  C_8
REMARK    6  A    between atoms: C_8  and  O_9
REMARK    7  A    between atoms: C_8  and  C_17
REMARK    8  A    between atoms: O_9  and  C_10
REMARK    9  A    between atoms: C_10  and  C_12
REMARK   10  A    between atoms: C_22  and  O_23
REMARK   11  A    between atoms: O_23  and  C_24
REMARK                            x       y       z     vdW  Elec       q    Type
REMARK                         _______ _______ _______ _____ _____    ______ ____
ROOT
ATOM      1  C   UNL     1       3.146   6.373  19.567  0.00  0.00    +0.000 C 
ENDROOT
BRANCH   1   2
ATOM      2  C   UNL     1       2.251   7.565  19.257  0.00  0.00    +0.000 A 
ATOM      3  C   UNL     1       2.206   8.033  17.923  0.00  0.00    +0.000 A 
ATOM      4  C   UNL     1       1.534   9.205  17.577  0.00  0.00    +0.000 A 
ATOM      5  C   UNL     1       0.857   9.922  18.554  0.00  0.00    +0.000 A 
ATOM      6  C   UNL     1       0.846   9.455  19.869  0.00  0.00    +0.000 A 
ATOM      7  C   UNL     1       1.529   8.282  20.227  0.00  0.00    +0.000 A 
BRANCH   7   8
ATOM      8  O   UNL     1       1.569   8.043  21.574  0.00  0.00    +0.000 OA
ATOM      9  C   UNL     1       1.197   9.139  22.407  0.00  0.00    +0.000 C 
ENDBRANCH   7   8
ENDBRANCH   1   2
BRANCH   1  11
ATOM     10  N   UNL     1       1.515   4.542  19.136  0.00  0.00    +0.000 N 
ATOM     11  C   UNL     1       2.315   5.163  20.081  0.00  0.00    +0.000 C 
ATOM     12  O   UNL     1       2.317   4.810  21.257  0.00  0.00    +0.000 OA
ATOM     13  H   UNL     1       1.753   4.663  18.159  0.00  0.00    +0.000 HD
BRANCH  10  14
ATOM     14  C   UNL     1       0.759   3.350  19.487  0.00  0.00    +0.000 C 
BRANCH  14  15
ATOM     15  C   UNL     1       1.268   2.107  18.760  0.00  0.00    +0.000 C 
BRANCH  15  17
ATOM     16  C   UNL     1       3.534   1.565  18.383  0.00  0.00    +0.000 C 
ATOM     17  O   UNL     1       2.504   1.694  19.355  0.00  0.00    +0.000 OA
ENDBRANCH  15  17
ENDBRANCH  14  15
ENDBRANCH  10  14
ENDBRANCH   1  11
BRANCH   1  18
ATOM     18  O   UNL     1       3.876   6.074  18.361  0.00  0.00    +0.000 OA
BRANCH  18  19
ATOM     19  C   UNL     1       5.082   5.476  18.526  0.00  0.00    +0.000 C 
ATOM     20  O   UNL     1       5.649   5.366  19.606  0.00  0.00    +0.000 OA
BRANCH  19  21
ATOM     21  C   UNL     1       5.585   4.993  17.262  0.00  0.00    +0.000 A 
ATOM     22  C   UNL     1       4.958   4.281  16.256  0.00  0.00    +0.000 A 
ATOM     23  C   UNL     1       5.925   4.053  15.246  0.00  0.00    +0.000 A 
ATOM     24  C   UNL     1       7.085   4.646  15.682  0.00  0.00    +0.000 A 
ATOM     25  O   UNL     1       6.887   5.225  16.900  0.00  0.00    +0.000 OA
ENDBRANCH  19  21
ENDBRANCH  18  19
ENDBRANCH   1  18
TORSDOF 9
ENDMDL
MODEL 8
REMARK VINA RESULT:      -6.7      2.381      6.342
REMARK  Name = 
REMARK  11 active torsions:
REMARK  status: ('A' for Active; 'I' for Inactive)
REMARK    1  A    between atoms: C_1  and  O_2
REMARK    2  A    between atoms: O_2  and  C_3
REMARK    3  A    between atoms: C_3  and  C_4
REMARK    4  A    between atoms: C_4  and  N_5
REMARK    5  A    between atoms: C_6  and  C_8
REMARK    6  A    between atoms: C_8  and  O_9
REMARK    7  A    between atoms: C_8  and  C_17
REMARK    8  A    between atoms: O_9  and  C_10
REMARK    9  A    between atoms: C_10  and  C_12
REMARK   10  A    between atoms: C_22  and  O_23
REMARK   11  A    between atoms: O_23  and  C_24
REMARK                            x       y       z     vdW  Elec       q    Type
REMARK                         _______ _______ _______ _____ _____    ______ ____
ROOT
ATOM      1  C   UNL     1       5.244   4.052  18.726  0.00  0.00    +0.000 C 
ENDROOT
BRANCH   1   2
ATOM      2  C   UNL     1       3.972   4.035  19.563  0.00  0.00    +0.000 A 
ATOM      3  C   UNL     1       3.542   2.795  20.092  0.00  0.00    +0.000 A 
ATOM      4  C   UNL     1       2.315   2.660  20.741  0.00  0.00    +0.000 A 
ATOM      5  C   UNL     1       1.501   3.771  20.910  0.00  0.00    +0.000 A 
ATOM      6  C   UNL     1       1.925   5.015  20.440  0.00  0.00    +0.000 A 
ATOM      7  C   UNL     1       3.154   5.158  19.776  0.00  0.00    +0.000 A 
BRANCH   7   8
ATOM      8  O   UNL     1       3.356   6.395  19.227  0.00  0.00    +0.000 OA
ATOM      9  C   UNL     1       2.342   7.362  19.494  0.00  0.00    +0.000 C 
ENDBRANCH   7   8
ENDBRANCH   1   2
BRANCH   1  11
ATOM     10  N   UNL     1       5.983   3.829  16.359  0.00  0.00    +0.000 N 
ATOM     11  C   UNL     1       4.918   4.084  17.207  0.00  0.00    +0.000 C 
ATOM     12  O   UNL     1       3.804   4.371  16.774  0.00  0.00    +0.000 OA
ATOM     13  H   UNL     1       6.778   3.325  16.735  0.00  0.00    +0.000 HD
BRANCH  10  14
ATOM     14  C   UNL     1       5.774   3.752  14.922  0.00  0.00    +0.000 C 
BRANCH  14  15
ATOM     15  C   UNL     1       6.723   4.666  14.149  0.00  0.00    +0.000 C 
BRANCH  15  17
ATOM     16  C   UNL     1       5.795   3.334  12.436  0.00  0.00    +0.000 C 
ATOM     17  O   UNL     1       6.896   4.144  12.826  0.00  0.00    +0.000 OA
ENDBRANCH  15  17
ENDBRANCH  14  15
ENDBRANCH  10  14
ENDBRANCH   1  11
BRANCH   1  18
ATOM     18  O   UNL     1       6.009   5.197  19.155  0.00  0.00    +0.000 OA
BRANCH  18  19
ATOM     19  C   UNL     1       7.262   5.300  18.645  0.00  0.00    +0.000 C 
ATOM     20  O   UNL     1       8.018   4.350  18.489  0.00  0.00    +0.000 OA
BRANCH  19  21
ATOM     21  C   UNL     1       7.563   6.674  18.317  0.00  0.00    +0.000 A 
ATOM     22  C   UNL     1       7.036   7.503  17.344  0.00  0.00    +0.000 A 
ATOM     23  C   UNL     1       7.706   8.746  17.454  0.00  0.00    +0.000 A 
ATOM     24  C   UNL     1       8.596   8.615  18.493  0.00  0.00    +0.000 A 
ATOM     25  O   UNL     1       8.510   7.364  19.028  0.00  0.00    +0.000 OA
ENDBRANCH  19  21
ENDBRANCH  18  19
ENDBRANCH   1  18
TORSDOF 9
ENDMDL
MODEL 9
REMARK VINA RESULT:      -6.7      1.866      6.076
REMARK  Name = 
REMARK  11 active torsions:
REMARK  status: ('A' for Active; 'I' for Inactive)
REMARK    1  A    between atoms: C_1  and  O_2
REMARK    2  A    between atoms: O_2  and  C_3
REMARK    3  A    between atoms: C_3  and  C_4
REMARK    4  A    between atoms: C_4  and  N_5
REMARK    5  A    between atoms: C_6  and  C_8
REMARK    6  A    between atoms: C_8  and  O_9
REMARK    7  A    between atoms: C_8  and  C_17
REMARK    8  A    between atoms: O_9  and  C_10
REMARK    9  A    between atoms: C_10  and  C_12
REMARK   10  A    between atoms: C_22  and  O_23
REMARK   11  A    between atoms: O_23  and  C_24
REMARK                            x       y       z     vdW  Elec       q    Type
REMARK                         _______ _______ _______ _____ _____    ______ ____
ROOT
ATOM      1  C   UNL     1       2.981   6.199  19.178  0.00  0.00    +0.000 C 
ENDROOT
BRANCH   1   2
ATOM      2  C   UNL     1       2.319   4.943  19.729  0.00  0.00    +0.000 A 
ATOM      3  C   UNL     1       2.393   4.711  21.123  0.00  0.00    +0.000 A 
ATOM      4  C   UNL     1       1.948   3.518  21.693  0.00  0.00    +0.000 A 
ATOM      5  C   UNL     1       1.384   2.540  20.886  0.00  0.00    +0.000 A 
ATOM      6  C   UNL     1       1.256   2.765  19.515  0.00  0.00    +0.000 A 
ATOM      7  C   UNL     1       1.711   3.958  18.931  0.00  0.00    +0.000 A 
BRANCH   7   8
ATOM      8  O   UNL     1       1.673   3.966  17.563  0.00  0.00    +0.000 OA
ATOM      9  C   UNL     1       2.569   3.065  16.917  0.00  0.00    +0.000 C 
ENDBRANCH   7   8
ENDBRANCH   1   2
BRANCH   1  11
ATOM     10  N   UNL     1       5.248   5.236  18.819  0.00  0.00    +0.000 N 
ATOM     11  C   UNL     1       4.156   5.844  18.224  0.00  0.00    +0.000 C 
ATOM     12  O   UNL     1       4.149   6.132  17.029  0.00  0.00    +0.000 OA
ATOM     13  H   UNL     1       5.105   4.765  19.704  0.00  0.00    +0.000 HD
BRANCH  10  14
ATOM     14  C   UNL     1       6.368   4.787  18.007  0.00  0.00    +0.000 C 
BRANCH  14  15
ATOM     15  C   UNL     1       7.334   5.922  17.673  0.00  0.00    +0.000 C 
BRANCH  15  17
ATOM     16  C   UNL     1       7.047   4.794  15.621  0.00  0.00    +0.000 C 
ATOM     17  O   UNL     1       7.513   5.978  16.253  0.00  0.00    +0.000 OA
ENDBRANCH  15  17
ENDBRANCH  14  15
ENDBRANCH  10  14
ENDBRANCH   1  11
BRANCH   1  18
ATOM     18  O   UNL     1       1.946   6.963  18.526  0.00  0.00    +0.000 OA
BRANCH  18  19
ATOM     19  C   UNL     1       2.026   8.311  18.660  0.00  0.00    +0.000 C 
ATOM     20  O   UNL     1       2.651   9.038  17.898  0.00  0.00    +0.000 OA
BRANCH  19  21
ATOM     21  C   UNL     1       1.275   8.749  19.813  0.00  0.00    +0.000 A 
ATOM     22  C   UNL     1       1.310   8.320  21.127  0.00  0.00    +0.000 A 
ATOM     23  C   UNL     1       0.349   9.082  21.835  0.00  0.00    +0.000 A 
ATOM     24  C   UNL     1      -0.212   9.942  20.922  0.00  0.00    +0.000 A 
ATOM     25  O   UNL     1       0.349   9.753  19.695  0.00  0.00    +0.000 OA
ENDBRANCH  19  21
ENDBRANCH  18  19
ENDBRANCH   1  18
TORSDOF 9
ENDMDL
