MODEL 1
REMARK VINA RESULT:      -8.9      0.000      0.000
REMARK  Name = 
REMARK  5 active torsions:
REMARK  status: ('A' for Active; 'I' for Inactive)
REMARK    1  A    between atoms: C_2  and  O_3
REMARK    2  A    between atoms: C_2  and  C_4
REMARK    3  A    between atoms: C_11  and  N_12
REMARK    4  A    between atoms: N_12  and  C_13
REMARK    5  A    between atoms: C_15  and  C_16
REMARK                            x       y       z     vdW  Elec       q    Type
REMARK                         _______ _______ _______ _____ _____    ______ ____
ROOT
ATOM      1  C   UNL     1       4.354   5.596  18.807  0.00  0.00    +0.000 A 
ATOM      2  N   UNL     1       3.558   6.624  19.102  0.00  0.00    +0.000 NA
ATOM      3  C   UNL     1       3.337   7.628  18.180  0.00  0.00    +0.000 A 
ATOM      4  N   UNL     1       3.936   7.684  16.960  0.00  0.00    +0.000 NA
ATOM      5  C   UNL     1       4.815   6.647  16.726  0.00  0.00    +0.000 A 
ATOM      6  C   UNL     1       4.992   5.621  17.606  0.00  0.00    +0.000 A 
ATOM      7  S   UNL     1       6.093   4.406  17.028  0.00  0.00    +0.000 S 
ATOM      8  O   UNL     1       5.308   3.306  16.526  0.00  0.00    +0.000 OA
ATOM      9  O   UNL     1       7.144   4.240  18.002  0.00  0.00    +0.000 OA
ATOM     10  C   UNL     1       6.670   5.402  15.669  0.00  0.00    +0.000 C 
ATOM     11  C   UNL     1       5.556   6.430  15.413  0.00  0.00    +0.000 C 
ENDROOT
BRANCH   3  12
ATOM     12  C   UNL     1       2.156   8.439  18.553  0.00  0.00    +0.000 A 
ATOM     13  C   UNL     1       1.328   8.852  17.511  0.00  0.00    +0.000 A 
ATOM     14  N   UNL     1       0.849  10.070  17.873  0.00  0.00    +0.000 N 
ATOM     15  C   UNL     1       0.560   9.930  19.189  0.00  0.00    +0.000 A 
ATOM     16  N   UNL     1      -0.406  10.645  19.783  0.00  0.00    +0.000 NA
ATOM     17  C   UNL     1      -0.677  10.195  21.021  0.00  0.00    +0.000 A 
ATOM     18  C   UNL     1       0.029   9.194  21.662  0.00  0.00    +0.000 A 
ATOM     19  F   UNL     1      -0.360   8.810  22.886  0.00  0.00    +0.000 F 
ATOM     20  C   UNL     1       1.119   8.548  21.035  0.00  0.00    +0.000 A 
ATOM     21  C   UNL     1       1.362   8.874  19.682  0.00  0.00    +0.000 A 
ATOM     22  H   UNL     1       0.439  10.763  17.265  0.00  0.00    +0.000 HD
ENDBRANCH   3  12
BRANCH   1  23
ATOM     23  N   UNL     1       4.520   4.582  19.726  0.00  0.00    +0.000 N 
ATOM     24  H   UNL     1       5.486   4.359  19.954  0.00  0.00    +0.000 HD
BRANCH  23  32
ATOM     25  C   UNL     1       2.487   3.730  18.723  0.00  0.00    +0.000 C 
ATOM     26  C   UNL     1       1.120   3.809  19.440  0.00  0.00    +0.000 C 
ATOM     27  C   UNL     1       0.811   2.494  20.181  0.00  0.00    +0.000 C 
ATOM     28  C   UNL     1       1.972   2.119  21.109  0.00  0.00    +0.000 C 
ATOM     29  C   UNL     1       2.989   3.277  21.170  0.00  0.00    +0.000 C 
ATOM     30  C   UNL     1       2.213   4.539  21.596  0.00  0.00    +0.000 C 
ATOM     31  C   UNL     1       1.217   4.934  20.496  0.00  0.00    +0.000 C 
ATOM     32  C   UNL     1       3.602   3.445  19.753  0.00  0.00    +0.000 C 
BRANCH  25  34
ATOM     33  O   UNL     1       2.133   2.909  16.457  0.00  0.00    +0.000 OA
ATOM     34  C   UNL     1       2.531   2.723  17.595  0.00  0.00    +0.000 C 
BRANCH  34  35
ATOM     35  O   UNL     1       3.142   1.574  17.953  0.00  0.00    +0.000 OA
ATOM     36  H   UNL     1       2.734   0.763  17.565  0.00  0.00    +0.000 HD
ENDBRANCH  34  35
ENDBRANCH  25  34
ENDBRANCH  23  32
ENDBRANCH   1  23
TORSDOF 5
ENDMDL
MODEL 2
REMARK VINA RESULT:      -8.5      1.835      4.637
REMARK  Name = 
REMARK  5 active torsions:
REMARK  status: ('A' for Active; 'I' for Inactive)
REMARK    1  A    between atoms: C_2  and  O_3
REMARK    2  A    between atoms: C_2  and  C_4
REMARK    3  A    between atoms: C_11  and  N_12
REMARK    4  A    between atoms: N_12  and  C_13
REMARK    5  A    between atoms: C_15  and  C_16
REMARK                            x       y       z     vdW  Elec       q    Type
REMARK                         _______ _______ _______ _____ _____    ______ ____
ROOT
ATOM      1  C   UNL     1       3.079   4.633  18.208  0.00  0.00    +0.000 A 
ATOM      2  N   UNL     1       2.556   5.852  18.074  0.00  0.00    +0.000 NA
ATOM      3  C   UNL     1       1.974   6.490  19.151  0.00  0.00    +0.000 A 
ATOM      4  N   UNL     1       1.837   5.929  20.383  0.00  0.00    +0.000 NA
ATOM      5  C   UNL     1       2.316   4.637  20.459  0.00  0.00    +0.000 A 
ATOM      6  C   UNL     1       2.945   4.023  19.416  0.00  0.00    +0.000 A 
ATOM      7  S   UNL     1       3.522   2.431  19.808  0.00  0.00    +0.000 S 
ATOM      8  O   UNL     1       4.934   2.529  20.076  0.00  0.00    +0.000 OA
ATOM      9  O   UNL     1       2.967   1.497  18.858  0.00  0.00    +0.000 OA
ATOM     10  C   UNL     1       2.623   2.349  21.342  0.00  0.00    +0.000 C 
ATOM     11  C   UNL     1       2.354   3.810  21.738  0.00  0.00    +0.000 C 
ENDROOT
BRANCH   3  12
ATOM     12  C   UNL     1       1.815   7.938  18.887  0.00  0.00    +0.000 A 
ATOM     13  C   UNL     1       2.160   8.382  17.611  0.00  0.00    +0.000 A 
ATOM     14  N   UNL     1       2.663   9.633  17.774  0.00  0.00    +0.000 N 
ATOM     15  C   UNL     1       1.835  10.203  18.681  0.00  0.00    +0.000 A 
ATOM     16  N   UNL     1       1.617  11.526  18.709  0.00  0.00    +0.000 NA
ATOM     17  C   UNL     1       0.602  11.851  19.530  0.00  0.00    +0.000 A 
ATOM     18  C   UNL     1      -0.065  10.955  20.344  0.00  0.00    +0.000 A 
ATOM     19  F   UNL     1      -1.084  11.397  21.094  0.00  0.00    +0.000 F 
ATOM     20  C   UNL     1       0.282   9.585  20.366  0.00  0.00    +0.000 A 
ATOM     21  C   UNL     1       1.240   9.154  19.421  0.00  0.00    +0.000 A 
ATOM     22  H   UNL     1       3.237  10.142  17.118  0.00  0.00    +0.000 HD
ENDBRANCH   3  12
BRANCH   1  23
ATOM     23  N   UNL     1       3.696   4.038  17.129  0.00  0.00    +0.000 N 
ATOM     24  H   UNL     1       3.275   3.166  16.817  0.00  0.00    +0.000 HD
BRANCH  23  32
ATOM     25  C   UNL     1       5.617   5.424  17.637  0.00  0.00    +0.000 C 
ATOM     26  C   UNL     1       6.268   6.346  16.582  0.00  0.00    +0.000 C 
ATOM     27  C   UNL     1       7.469   5.653  15.911  0.00  0.00    +0.000 C 
ATOM     28  C   UNL     1       7.055   4.283  15.360  0.00  0.00    +0.000 C 
ATOM     29  C   UNL     1       5.525   4.118  15.461  0.00  0.00    +0.000 C 
ATOM     30  C   UNL     1       4.891   5.318  14.730  0.00  0.00    +0.000 C 
ATOM     31  C   UNL     1       5.209   6.616  15.488  0.00  0.00    +0.000 C 
ATOM     32  C   UNL     1       5.148   4.113  16.968  0.00  0.00    +0.000 C 
BRANCH  25  34
ATOM     33  O   UNL     1       7.650   4.712  18.775  0.00  0.00    +0.000 OA
ATOM     34  C   UNL     1       6.505   5.129  18.826  0.00  0.00    +0.000 C 
BRANCH  34  35
ATOM     35  O   UNL     1       5.918   5.449  19.999  0.00  0.00    +0.000 OA
ATOM     36  H   UNL     1       5.057   4.992  20.156  0.00  0.00    +0.000 HD
ENDBRANCH  34  35
ENDBRANCH  25  34
ENDBRANCH  23  32
ENDBRANCH   1  23
TORSDOF 5
ENDMDL
MODEL 3
REMARK VINA RESULT:      -8.2      2.442      4.973
REMARK  Name = 
REMARK  5 active torsions:
REMARK  status: ('A' for Active; 'I' for Inactive)
REMARK    1  A    between atoms: C_2  and  O_3
REMARK    2  A    between atoms: C_2  and  C_4
REMARK    3  A    between atoms: C_11  and  N_12
REMARK    4  A    between atoms: N_12  and  C_13
REMARK    5  A    between atoms: C_15  and  C_16
REMARK                            x       y       z     vdW  Elec       q    Type
REMARK                         _______ _______ _______ _____ _____    ______ ____
ROOT
ATOM      1  C   UNL     1       3.668   5.179  19.625  0.00  0.00    +0.000 A 
ATOM      2  N   UNL     1       3.111   6.390  19.643  0.00  0.00    +0.000 NA
ATOM      3  C   UNL     1       1.813   6.560  20.083  0.00  0.00    +0.000 A 
ATOM      4  N   UNL     1       1.002   5.538  20.467  0.00  0.00    +0.000 NA
ATOM      5  C   UNL     1       1.586   4.294  20.355  0.00  0.00    +0.000 A 
ATOM      6  C   UNL     1       2.886   4.124  19.979  0.00  0.00    +0.000 A 
ATOM      7  S   UNL     1       3.392   2.461  20.000  0.00  0.00    +0.000 S 
ATOM      8  O   UNL     1       4.138   2.245  21.215  0.00  0.00    +0.000 OA
ATOM      9  O   UNL     1       3.903   2.121  18.695  0.00  0.00    +0.000 OA
ATOM     10  C   UNL     1       1.738   1.832  20.191  0.00  0.00    +0.000 C 
ATOM     11  C   UNL     1       0.925   2.992  20.790  0.00  0.00    +0.000 C 
ENDROOT
BRANCH   3  12
ATOM     12  C   UNL     1       1.537   7.984  20.380  0.00  0.00    +0.000 A 
ATOM     13  C   UNL     1       1.489   8.343  21.727  0.00  0.00    +0.000 A 
ATOM     14  N   UNL     1       0.560   9.330  21.817  0.00  0.00    +0.000 N 
ATOM     15  C   UNL     1       0.801  10.107  20.735  0.00  0.00    +0.000 A 
ATOM     16  N   UNL     1       0.527  11.419  20.728  0.00  0.00    +0.000 NA
ATOM     17  C   UNL     1       1.045  12.036  19.652  0.00  0.00    +0.000 A 
ATOM     18  C   UNL     1       1.682  11.390  18.609  0.00  0.00    +0.000 A 
ATOM     19  F   UNL     1       2.186  12.121  17.605  0.00  0.00    +0.000 F 
ATOM     20  C   UNL     1       1.843   9.986  18.606  0.00  0.00    +0.000 A 
ATOM     21  C   UNL     1       1.451   9.296  19.775  0.00  0.00    +0.000 A 
ATOM     22  H   UNL     1       0.088   9.639  22.654  0.00  0.00    +0.000 HD
ENDBRANCH   3  12
BRANCH   1  23
ATOM     23  N   UNL     1       4.980   5.042  19.225  0.00  0.00    +0.000 N 
ATOM     24  H   UNL     1       5.573   4.513  19.861  0.00  0.00    +0.000 HD
BRANCH  23  32
ATOM     25  C   UNL     1       5.556   5.807  17.000  0.00  0.00    +0.000 C 
ATOM     26  C   UNL     1       6.972   5.626  16.409  0.00  0.00    +0.000 C 
ATOM     27  C   UNL     1       7.820   6.895  16.613  0.00  0.00    +0.000 C 
ATOM     28  C   UNL     1       7.818   7.307  18.090  0.00  0.00    +0.000 C 
ATOM     29  C   UNL     1       7.146   6.208  18.939  0.00  0.00    +0.000 C 
ATOM     30  C   UNL     1       7.889   4.891  18.644  0.00  0.00    +0.000 C 
ATOM     31  C   UNL     1       7.653   4.475  17.185  0.00  0.00    +0.000 C 
ATOM     32  C   UNL     1       5.655   6.123  18.509  0.00  0.00    +0.000 C 
BRANCH  25  34
ATOM     33  O   UNL     1       4.789   7.130  15.104  0.00  0.00    +0.000 OA
ATOM     34  C   UNL     1       4.723   6.851  16.290  0.00  0.00    +0.000 C 
BRANCH  34  35
ATOM     35  O   UNL     1       3.810   7.423  17.103  0.00  0.00    +0.000 OA
ATOM     36  H   UNL     1       3.026   7.794  16.629  0.00  0.00    +0.000 HD
ENDBRANCH  34  35
ENDBRANCH  25  34
ENDBRANCH  23  32
ENDBRANCH   1  23
TORSDOF 5
ENDMDL
MODEL 4
REMARK VINA RESULT:      -8.1      1.868      4.463
REMARK  Name = 
REMARK  5 active torsions:
REMARK  status: ('A' for Active; 'I' for Inactive)
REMARK    1  A    between atoms: C_2  and  O_3
REMARK    2  A    between atoms: C_2  and  C_4
REMARK    3  A    between atoms: C_11  and  N_12
REMARK    4  A    between atoms: N_12  and  C_13
REMARK    5  A    between atoms: C_15  and  C_16
REMARK                            x       y       z     vdW  Elec       q    Type
REMARK                         _______ _______ _______ _____ _____    ______ ____
ROOT
ATOM      1  C   UNL     1       3.172   4.887  18.360  0.00  0.00    +0.000 A 
ATOM      2  N   UNL     1       2.585   6.082  18.289  0.00  0.00    +0.000 NA
ATOM      3  C   UNL     1       1.835   6.561  19.345  0.00  0.00    +0.000 A 
ATOM      4  N   UNL     1       1.590   5.857  20.483  0.00  0.00    +0.000 NA
ATOM      5  C   UNL     1       2.145   4.593  20.483  0.00  0.00    +0.000 A 
ATOM      6  C   UNL     1       2.936   4.138  19.470  0.00  0.00    +0.000 A 
ATOM      7  S   UNL     1       3.571   2.546  19.761  0.00  0.00    +0.000 S 
ATOM      8  O   UNL     1       4.931   2.693  20.215  0.00  0.00    +0.000 OA
ATOM      9  O   UNL     1       3.201   1.696  18.656  0.00  0.00    +0.000 OA
ATOM     10  C   UNL     1       2.503   2.241  21.152  0.00  0.00    +0.000 C 
ATOM     11  C   UNL     1       2.087   3.630  21.663  0.00  0.00    +0.000 C 
ENDROOT
BRANCH   3  12
ATOM     12  C   UNL     1       1.608   8.018  19.217  0.00  0.00    +0.000 A 
ATOM     13  C   UNL     1       1.679   8.550  17.931  0.00  0.00    +0.000 A 
ATOM     14  N   UNL     1       2.190   9.801  18.071  0.00  0.00    +0.000 N 
ATOM     15  C   UNL     1       1.559  10.292  19.164  0.00  0.00    +0.000 A 
ATOM     16  N   UNL     1       1.336  11.604  19.325  0.00  0.00    +0.000 NA
ATOM     17  C   UNL     1       0.508  11.850  20.355  0.00  0.00    +0.000 A 
ATOM     18  C   UNL     1       0.032  10.889  21.226  0.00  0.00    +0.000 A 
ATOM     19  F   UNL     1      -0.816  11.256  22.197  0.00  0.00    +0.000 F 
ATOM     20  C   UNL     1       0.392   9.529  21.085  0.00  0.00    +0.000 A 
ATOM     21  C   UNL     1       1.141   9.183  19.938  0.00  0.00    +0.000 A 
ATOM     22  H   UNL     1       2.611  10.365  17.348  0.00  0.00    +0.000 HD
ENDBRANCH   3  12
BRANCH   1  23
ATOM     23  N   UNL     1       3.953   4.453  17.311  0.00  0.00    +0.000 N 
ATOM     24  H   UNL     1       4.209   3.469  17.341  0.00  0.00    +0.000 HD
BRANCH  23  32
ATOM     25  C   UNL     1       6.130   4.443  16.248  0.00  0.00    +0.000 C 
ATOM     26  C   UNL     1       7.419   4.824  17.010  0.00  0.00    +0.000 C 
ATOM     27  C   UNL     1       7.776   6.305  16.780  0.00  0.00    +0.000 C 
ATOM     28  C   UNL     1       6.577   7.201  17.113  0.00  0.00    +0.000 C 
ATOM     29  C   UNL     1       5.463   6.361  17.771  0.00  0.00    +0.000 C 
ATOM     30  C   UNL     1       6.089   5.655  18.990  0.00  0.00    +0.000 C 
ATOM     31  C   UNL     1       7.137   4.636  18.518  0.00  0.00    +0.000 C 
ATOM     32  C   UNL     1       4.960   5.334  16.720  0.00  0.00    +0.000 C 
BRANCH  25  34
ATOM     33  O   UNL     1       6.444   5.504  14.078  0.00  0.00    +0.000 OA
ATOM     34  C   UNL     1       6.268   4.496  14.743  0.00  0.00    +0.000 C 
BRANCH  34  35
ATOM     35  O   UNL     1       6.250   3.270  14.179  0.00  0.00    +0.000 OA
ATOM     36  H   UNL     1       5.429   3.075  13.665  0.00  0.00    +0.000 HD
ENDBRANCH  34  35
ENDBRANCH  25  34
ENDBRANCH  23  32
ENDBRANCH   1  23
TORSDOF 5
ENDMDL
MODEL 5
REMARK VINA RESULT:      -8.1      3.554      6.128
REMARK  Name = 
REMARK  5 active torsions:
REMARK  status: ('A' for Active; 'I' for Inactive)
REMARK    1  A    between atoms: C_2  and  O_3
REMARK    2  A    between atoms: C_2  and  C_4
REMARK    3  A    between atoms: C_11  and  N_12
REMARK    4  A    between atoms: N_12  and  C_13
REMARK    5  A    between atoms: C_15  and  C_16
REMARK                            x       y       z     vdW  Elec       q    Type
REMARK                         _______ _______ _______ _____ _____    ______ ____
ROOT
ATOM      1  C   UNL     1       2.898   6.386  19.720  0.00  0.00    +0.000 A 
ATOM      2  N   UNL     1       3.706   5.984  18.739  0.00  0.00    +0.000 NA
ATOM      3  C   UNL     1       3.913   6.778  17.628  0.00  0.00    +0.000 A 
ATOM      4  N   UNL     1       3.288   7.969  17.419  0.00  0.00    +0.000 NA
ATOM      5  C   UNL     1       2.398   8.311  18.417  0.00  0.00    +0.000 A 
ATOM      6  C   UNL     1       2.235   7.561  19.544  0.00  0.00    +0.000 A 
ATOM      7  S   UNL     1       1.114   8.261  20.674  0.00  0.00    +0.000 S 
ATOM      8  O   UNL     1       1.882   8.912  21.706  0.00  0.00    +0.000 OA
ATOM      9  O   UNL     1       0.083   7.292  20.956  0.00  0.00    +0.000 OA
ATOM     10  C   UNL     1       0.514   9.472  19.516  0.00  0.00    +0.000 C 
ATOM     11  C   UNL     1       1.628   9.624  18.467  0.00  0.00    +0.000 C 
ENDROOT
BRANCH   3  12
ATOM     12  C   UNL     1       5.106   6.334  16.873  0.00  0.00    +0.000 A 
ATOM     13  C   UNL     1       6.336   6.464  17.516  0.00  0.00    +0.000 A 
ATOM     14  N   UNL     1       7.239   6.746  16.542  0.00  0.00    +0.000 N 
ATOM     15  C   UNL     1       6.891   5.922  15.525  0.00  0.00    +0.000 A 
ATOM     16  N   UNL     1       7.789   5.472  14.638  0.00  0.00    +0.000 NA
ATOM     17  C   UNL     1       7.282   4.502  13.856  0.00  0.00    +0.000 A 
ATOM     18  C   UNL     1       5.962   4.092  13.873  0.00  0.00    +0.000 A 
ATOM     19  F   UNL     1       5.585   3.089  13.068  0.00  0.00    +0.000 F 
ATOM     20  C   UNL     1       5.023   4.682  14.749  0.00  0.00    +0.000 A 
ATOM     21  C   UNL     1       5.523   5.604  15.695  0.00  0.00    +0.000 A 
ATOM     22  H   UNL     1       8.156   7.150  16.667  0.00  0.00    +0.000 HD
ENDBRANCH   3  12
BRANCH   1  23
ATOM     23  N   UNL     1       2.746   5.597  20.839  0.00  0.00    +0.000 N 
ATOM     24  H   UNL     1       3.153   5.973  21.692  0.00  0.00    +0.000 HD
BRANCH  23  32
ATOM     25  C   UNL     1       3.419   3.795  19.367  0.00  0.00    +0.000 C 
ATOM     26  C   UNL     1       2.404   3.025  18.492  0.00  0.00    +0.000 C 
ATOM     27  C   UNL     1       1.950   1.728  19.188  0.00  0.00    +0.000 C 
ATOM     28  C   UNL     1       1.438   2.032  20.602  0.00  0.00    +0.000 C 
ATOM     29  C   UNL     1       1.341   3.558  20.806  0.00  0.00    +0.000 C 
ATOM     30  C   UNL     1       0.453   4.111  19.673  0.00  0.00    +0.000 C 
ATOM     31  C   UNL     1       1.162   3.928  18.322  0.00  0.00    +0.000 C 
ATOM     32  C   UNL     1       2.780   4.139  20.730  0.00  0.00    +0.000 C 
BRANCH  25  34
ATOM     33  O   UNL     1       4.953   2.199  20.383  0.00  0.00    +0.000 OA
ATOM     34  C   UNL     1       4.734   3.073  19.561  0.00  0.00    +0.000 C 
BRANCH  34  35
ATOM     35  O   UNL     1       5.665   3.445  18.657  0.00  0.00    +0.000 OA
ATOM     36  H   UNL     1       6.312   4.110  18.997  0.00  0.00    +0.000 HD
ENDBRANCH  34  35
ENDBRANCH  25  34
ENDBRANCH  23  32
ENDBRANCH   1  23
TORSDOF 5
ENDMDL
MODEL 6
REMARK VINA RESULT:      -8.0      2.228      4.758
REMARK  Name = 
REMARK  5 active torsions:
REMARK  status: ('A' for Active; 'I' for Inactive)
REMARK    1  A    between atoms: C_2  and  O_3
REMARK    2  A    between atoms: C_2  and  C_4
REMARK    3  A    between atoms: C_11  and  N_12
REMARK    4  A    between atoms: N_12  and  C_13
REMARK    5  A    between atoms: C_15  and  C_16
REMARK                            x       y       z     vdW  Elec       q    Type
REMARK                         _______ _______ _______ _____ _____    ______ ____
ROOT
ATOM      1  C   UNL     1       3.593   5.353  19.721  0.00  0.00    +0.000 A 
ATOM      2  N   UNL     1       3.027   6.559  19.761  0.00  0.00    +0.000 NA
ATOM      3  C   UNL     1       1.720   6.708  20.181  0.00  0.00    +0.000 A 
ATOM      4  N   UNL     1       0.908   5.670  20.519  0.00  0.00    +0.000 NA
ATOM      5  C   UNL     1       1.504   4.433  20.385  0.00  0.00    +0.000 A 
ATOM      6  C   UNL     1       2.812   4.283  20.030  0.00  0.00    +0.000 A 
ATOM      7  S   UNL     1       3.330   2.623  20.015  0.00  0.00    +0.000 S 
ATOM      8  O   UNL     1       4.054   2.379  21.238  0.00  0.00    +0.000 OA
ATOM      9  O   UNL     1       3.870   2.323  18.711  0.00  0.00    +0.000 OA
ATOM     10  C   UNL     1       1.677   1.978  20.156  0.00  0.00    +0.000 C 
ATOM     11  C   UNL     1       0.844   3.115  20.770  0.00  0.00    +0.000 C 
ENDROOT
BRANCH   3  12
ATOM     12  C   UNL     1       1.427   8.121  20.512  0.00  0.00    +0.000 A 
ATOM     13  C   UNL     1       1.428   8.458  21.864  0.00  0.00    +0.000 A 
ATOM     14  N   UNL     1       0.484   9.424  22.009  0.00  0.00    +0.000 N 
ATOM     15  C   UNL     1       0.663  10.222  20.930  0.00  0.00    +0.000 A 
ATOM     16  N   UNL     1       0.362  11.528  20.956  0.00  0.00    +0.000 NA
ATOM     17  C   UNL     1       0.821  12.172  19.869  0.00  0.00    +0.000 A 
ATOM     18  C   UNL     1       1.427  11.555  18.790  0.00  0.00    +0.000 A 
ATOM     19  F   UNL     1       1.874  12.312  17.778  0.00  0.00    +0.000 F 
ATOM     20  C   UNL     1       1.617  10.155  18.758  0.00  0.00    +0.000 A 
ATOM     21  C   UNL     1       1.288   9.439  19.931  0.00  0.00    +0.000 A 
ATOM     22  H   UNL     1       0.041   9.711  22.870  0.00  0.00    +0.000 HD
ENDBRANCH   3  12
BRANCH   1  23
ATOM     23  N   UNL     1       4.914   5.236  19.344  0.00  0.00    +0.000 N 
ATOM     24  H   UNL     1       5.591   5.375  20.091  0.00  0.00    +0.000 HD
BRANCH  23  32
ATOM     25  C   UNL     1       5.754   4.428  17.221  0.00  0.00    +0.000 C 
ATOM     26  C   UNL     1       7.251   4.502  16.847  0.00  0.00    +0.000 C 
ATOM     27  C   UNL     1       7.549   5.762  16.012  0.00  0.00    +0.000 C 
ATOM     28  C   UNL     1       7.032   7.014  16.731  0.00  0.00    +0.000 C 
ATOM     29  C   UNL     1       6.568   6.644  18.155  0.00  0.00    +0.000 C 
ATOM     30  C   UNL     1       7.755   5.951  18.853  0.00  0.00    +0.000 C 
ATOM     31  C   UNL     1       8.052   4.611  18.165  0.00  0.00    +0.000 C 
ATOM     32  C   UNL     1       5.353   5.686  18.024  0.00  0.00    +0.000 C 
BRANCH  25  34
ATOM     33  O   UNL     1       5.174   4.214  14.865  0.00  0.00    +0.000 OA
ATOM     34  C   UNL     1       4.834   4.236  16.035  0.00  0.00    +0.000 C 
BRANCH  34  35
ATOM     35  O   UNL     1       3.555   4.011  16.406  0.00  0.00    +0.000 OA
ATOM     36  H   UNL     1       3.458   3.664  17.326  0.00  0.00    +0.000 HD
ENDBRANCH  34  35
ENDBRANCH  25  34
ENDBRANCH  23  32
ENDBRANCH   1  23
TORSDOF 5
ENDMDL
MODEL 7
REMARK VINA RESULT:      -7.9      2.185      4.901
REMARK  Name = 
REMARK  5 active torsions:
REMARK  status: ('A' for Active; 'I' for Inactive)
REMARK    1  A    between atoms: C_2  and  O_3
REMARK    2  A    between atoms: C_2  and  C_4
REMARK    3  A    between atoms: C_11  and  N_12
REMARK    4  A    between atoms: N_12  and  C_13
REMARK    5  A    between atoms: C_15  and  C_16
REMARK                            x       y       z     vdW  Elec       q    Type
REMARK                         _______ _______ _______ _____ _____    ______ ____
ROOT
ATOM      1  C   UNL     1       2.596   5.255  18.412  0.00  0.00    +0.000 A 
ATOM      2  N   UNL     1       2.184   6.442  18.860  0.00  0.00    +0.000 NA
ATOM      3  C   UNL     1       1.457   6.538  20.029  0.00  0.00    +0.000 A 
ATOM      4  N   UNL     1       1.061   5.466  20.768  0.00  0.00    +0.000 NA
ATOM      5  C   UNL     1       1.434   4.253  20.228  0.00  0.00    +0.000 A 
ATOM      6  C   UNL     1       2.204   4.153  19.106  0.00  0.00    +0.000 A 
ATOM      7  S   UNL     1       2.596   2.511  18.690  0.00  0.00    +0.000 S 
ATOM      8  O   UNL     1       3.940   2.253  19.145  0.00  0.00    +0.000 OA
ATOM      9  O   UNL     1       2.167   2.267  17.335  0.00  0.00    +0.000 OA
ATOM     10  C   UNL     1       1.428   1.812  19.837  0.00  0.00    +0.000 C 
ATOM     11  C   UNL     1       1.185   2.904  20.892  0.00  0.00    +0.000 C 
ENDROOT
BRANCH   3  12
ATOM     12  C   UNL     1       1.441   7.931  20.531  0.00  0.00    +0.000 A 
ATOM     13  C   UNL     1       1.907   8.132  21.829  0.00  0.00    +0.000 A 
ATOM     14  N   UNL     1       1.170   9.154  22.337  0.00  0.00    +0.000 N 
ATOM     15  C   UNL     1       1.085  10.037  21.314  0.00  0.00    +0.000 A 
ATOM     16  N   UNL     1       0.953  11.354  21.523  0.00  0.00    +0.000 NA
ATOM     17  C   UNL     1       1.113  12.062  20.391  0.00  0.00    +0.000 A 
ATOM     18  C   UNL     1       1.274  11.507  19.136  0.00  0.00    +0.000 A 
ATOM     19  F   UNL     1       1.458  12.320  18.086  0.00  0.00    +0.000 F 
ATOM     20  C   UNL     1       1.289  10.105  18.951  0.00  0.00    +0.000 A 
ATOM     21  C   UNL     1       1.272   9.307  20.116  0.00  0.00    +0.000 A 
ATOM     22  H   UNL     1       1.057   9.390  23.312  0.00  0.00    +0.000 HD
ENDBRANCH   3  12
BRANCH   1  23
ATOM     23  N   UNL     1       3.361   5.191  17.267  0.00  0.00    +0.000 N 
ATOM     24  H   UNL     1       2.846   4.984  16.414  0.00  0.00    +0.000 HD
BRANCH  23  32
ATOM     25  C   UNL     1       5.625   5.752  17.918  0.00  0.00    +0.000 C 
ATOM     26  C   UNL     1       6.696   6.176  16.887  0.00  0.00    +0.000 C 
ATOM     27  C   UNL     1       7.560   4.973  16.464  0.00  0.00    +0.000 C 
ATOM     28  C   UNL     1       6.670   3.819  15.988  0.00  0.00    +0.000 C 
ATOM     29  C   UNL     1       5.207   4.295  15.881  0.00  0.00    +0.000 C 
ATOM     30  C   UNL     1       5.199   5.530  14.959  0.00  0.00    +0.000 C 
ATOM     31  C   UNL     1       5.952   6.687  15.632  0.00  0.00    +0.000 C 
ATOM     32  C   UNL     1       4.721   4.657  17.312  0.00  0.00    +0.000 C 
BRANCH  25  34
ATOM     33  O   UNL     1       7.084   5.859  19.866  0.00  0.00    +0.000 OA
ATOM     34  C   UNL     1       6.195   5.301  19.245  0.00  0.00    +0.000 C 
BRANCH  34  35
ATOM     35  O   UNL     1       5.557   4.219  19.738  0.00  0.00    +0.000 OA
ATOM     36  H   UNL     1       5.322   3.544  19.056  0.00  0.00    +0.000 HD
ENDBRANCH  34  35
ENDBRANCH  25  34
ENDBRANCH  23  32
ENDBRANCH   1  23
TORSDOF 5
ENDMDL
MODEL 8
REMARK VINA RESULT:      -7.9      2.252      4.835
REMARK  Name = 
REMARK  5 active torsions:
REMARK  status: ('A' for Active; 'I' for Inactive)
REMARK    1  A    between atoms: C_2  and  O_3
REMARK    2  A    between atoms: C_2  and  C_4
REMARK    3  A    between atoms: C_11  and  N_12
REMARK    4  A    between atoms: N_12  and  C_13
REMARK    5  A    between atoms: C_15  and  C_16
REMARK                            x       y       z     vdW  Elec       q    Type
REMARK                         _______ _______ _______ _____ _____    ______ ____
ROOT
ATOM      1  C   UNL     1       3.039   4.903  18.698  0.00  0.00    +0.000 A 
ATOM      2  N   UNL     1       2.446   6.088  18.847  0.00  0.00    +0.000 NA
ATOM      3  C   UNL     1       1.740   6.381  19.997  0.00  0.00    +0.000 A 
ATOM      4  N   UNL     1       1.546   5.499  21.014  0.00  0.00    +0.000 NA
ATOM      5  C   UNL     1       2.104   4.258  20.786  0.00  0.00    +0.000 A 
ATOM      6  C   UNL     1       2.853   3.981  19.680  0.00  0.00    +0.000 A 
ATOM      7  S   UNL     1       3.504   2.369  19.682  0.00  0.00    +0.000 S 
ATOM      8  O   UNL     1       4.882   2.453  20.098  0.00  0.00    +0.000 OA
ATOM      9  O   UNL     1       3.090   1.706  18.470  0.00  0.00    +0.000 OA
ATOM     10  C   UNL     1       2.497   1.832  21.047  0.00  0.00    +0.000 C 
ATOM     11  C   UNL     1       2.099   3.116  21.794  0.00  0.00    +0.000 C 
ENDROOT
BRANCH   3  12
ATOM     12  C   UNL     1       1.504   7.838  20.117  0.00  0.00    +0.000 A 
ATOM     13  C   UNL     1       1.294   8.332  21.404  0.00  0.00    +0.000 A 
ATOM     14  N   UNL     1       0.416   9.360  21.270  0.00  0.00    +0.000 N 
ATOM     15  C   UNL     1       0.844  10.014  20.164  0.00  0.00    +0.000 A 
ATOM     16  N   UNL     1       0.645  11.329  19.996  0.00  0.00    +0.000 NA
ATOM     17  C   UNL     1       1.336  11.813  18.950  0.00  0.00    +0.000 A 
ATOM     18  C   UNL     1       2.073  11.040  18.072  0.00  0.00    +0.000 A 
ATOM     19  F   UNL     1       2.748  11.645  17.085  0.00  0.00    +0.000 F 
ATOM     20  C   UNL     1       2.157   9.637  18.224  0.00  0.00    +0.000 A 
ATOM     21  C   UNL     1       1.572   9.084  19.385  0.00  0.00    +0.000 A 
ATOM     22  H   UNL     1      -0.147   9.771  22.000  0.00  0.00    +0.000 HD
ENDBRANCH   3  12
BRANCH   1  23
ATOM     23  N   UNL     1       3.777   4.653  17.561  0.00  0.00    +0.000 N 
ATOM     24  H   UNL     1       4.058   3.683  17.433  0.00  0.00    +0.000 HD
BRANCH  23  32
ATOM     25  C   UNL     1       5.814   4.878  16.270  0.00  0.00    +0.000 C 
ATOM     26  C   UNL     1       7.192   5.084  16.937  0.00  0.00    +0.000 C 
ATOM     27  C   UNL     1       7.557   6.580  16.995  0.00  0.00    +0.000 C 
ATOM     28  C   UNL     1       6.428   7.380  17.655  0.00  0.00    +0.000 C 
ATOM     29  C   UNL     1       5.378   6.415  18.243  0.00  0.00    +0.000 C 
ATOM     30  C   UNL     1       6.124   5.459  19.194  0.00  0.00    +0.000 C 
ATOM     31  C   UNL     1       7.084   4.569  18.390  0.00  0.00    +0.000 C 
ATOM     32  C   UNL     1       4.730   5.643  17.061  0.00  0.00    +0.000 C 
BRANCH  25  34
ATOM     33  O   UNL     1       6.116   4.550  13.875  0.00  0.00    +0.000 OA
ATOM     34  C   UNL     1       5.777   5.260  14.807  0.00  0.00    +0.000 C 
BRANCH  34  35
ATOM     35  O   UNL     1       5.245   6.485  14.608  0.00  0.00    +0.000 OA
ATOM     36  H   UNL     1       4.330   6.471  14.236  0.00  0.00    +0.000 HD
ENDBRANCH  34  35
ENDBRANCH  25  34
ENDBRANCH  23  32
ENDBRANCH   1  23
TORSDOF 5
ENDMDL
MODEL 9
REMARK VINA RESULT:      -7.9      6.429     10.189
REMARK  Name = 
REMARK  5 active torsions:
REMARK  status: ('A' for Active; 'I' for Inactive)
REMARK    1  A    between atoms: C_2  and  O_3
REMARK    2  A    between atoms: C_2  and  C_4
REMARK    3  A    between atoms: C_11  and  N_12
REMARK    4  A    between atoms: N_12  and  C_13
REMARK    5  A    between atoms: C_15  and  C_16
REMARK                            x       y       z     vdW  Elec       q    Type
REMARK                         _______ _______ _______ _____ _____    ______ ____
ROOT
ATOM      1  C   UNL     1      -2.381  12.797  20.541  0.00  0.00    +0.000 A 
ATOM      2  N   UNL     1      -1.485  11.835  20.323  0.00  0.00    +0.000 NA
ATOM      3  C   UNL     1      -0.496  11.571  21.251  0.00  0.00    +0.000 A 
ATOM      4  N   UNL     1      -0.322  12.283  22.397  0.00  0.00    +0.000 NA
ATOM      5  C   UNL     1      -1.217  13.323  22.546  0.00  0.00    +0.000 A 
ATOM      6  C   UNL     1      -2.232  13.550  21.664  0.00  0.00    +0.000 A 
ATOM      7  S   UNL     1      -3.260  14.871  22.132  0.00  0.00    +0.000 S 
ATOM      8  O   UNL     1      -4.447  14.312  22.731  0.00  0.00    +0.000 OA
ATOM      9  O   UNL     1      -3.303  15.825  21.051  0.00  0.00    +0.000 OA
ATOM     10  C   UNL     1      -2.156  15.441  23.406  0.00  0.00    +0.000 C 
ATOM     11  C   UNL     1      -1.289  14.224  23.772  0.00  0.00    +0.000 C 
ENDROOT
BRANCH   3  12
ATOM     12  C   UNL     1       0.128  10.252  21.001  0.00  0.00    +0.000 A 
ATOM     13  C   UNL     1      -0.314   9.193  21.792  0.00  0.00    +0.000 A 
ATOM     14  N   UNL     1       0.766   8.388  21.975  0.00  0.00    +0.000 N 
ATOM     15  C   UNL     1       1.359   8.356  20.759  0.00  0.00    +0.000 A 
ATOM     16  N   UNL     1       2.079   7.301  20.349  0.00  0.00    +0.000 NA
ATOM     17  C   UNL     1       2.386   7.379  19.042  0.00  0.00    +0.000 A 
ATOM     18  C   UNL     1       2.106   8.466  18.234  0.00  0.00    +0.000 A 
ATOM     19  F   UNL     1       2.434   8.410  16.936  0.00  0.00    +0.000 F 
ATOM     20  C   UNL     1       1.447   9.608  18.745  0.00  0.00    +0.000 A 
ATOM     21  C   UNL     1       0.969   9.529  20.072  0.00  0.00    +0.000 A 
ATOM     22  H   UNL     1       0.880   7.685  22.691  0.00  0.00    +0.000 HD
ENDBRANCH   3  12
BRANCH   1  23
ATOM     23  N   UNL     1      -3.386  13.009  19.622  0.00  0.00    +0.000 N 
ATOM     24  H   UNL     1      -3.768  13.951  19.608  0.00  0.00    +0.000 HD
BRANCH  23  32
ATOM     25  C   UNL     1      -4.622  12.009  17.794  0.00  0.00    +0.000 C 
ATOM     26  C   UNL     1      -6.116  12.317  17.547  0.00  0.00    +0.000 C 
ATOM     27  C   UNL     1      -7.014  11.243  18.191  0.00  0.00    +0.000 C 
ATOM     28  C   UNL     1      -6.658  11.070  19.673  0.00  0.00    +0.000 C 
ATOM     29  C   UNL     1      -5.664  12.167  20.105  0.00  0.00    +0.000 C 
ATOM     30  C   UNL     1      -6.308  13.524  19.757  0.00  0.00    +0.000 C 
ATOM     31  C   UNL     1      -6.430  13.666  18.233  0.00  0.00    +0.000 C 
ATOM     32  C   UNL     1      -4.345  11.949  19.313  0.00  0.00    +0.000 C 
BRANCH  25  34
ATOM     33  O   UNL     1      -3.591   9.806  17.662  0.00  0.00    +0.000 OA
ATOM     34  C   UNL     1      -4.134  10.750  17.113  0.00  0.00    +0.000 C 
BRANCH  34  35
ATOM     35  O   UNL     1      -4.428  10.730  15.795  0.00  0.00    +0.000 OA
ATOM     36  H   UNL     1      -4.145  11.540  15.307  0.00  0.00    +0.000 HD
ENDBRANCH  34  35
ENDBRANCH  25  34
ENDBRANCH  23  32
ENDBRANCH   1  23
TORSDOF 5
ENDMDL
