MODEL 1
REMARK VINA RESULT:      -8.1      0.000      0.000
REMARK  Name = 
REMARK  2 active torsions:
REMARK  status: ('A' for Active; 'I' for Inactive)
REMARK    1  A    between atoms: C_1  and  N_2
REMARK    2  A    between atoms: C_12  and  C_13
REMARK                            x       y       z     vdW  Elec       q    Type
REMARK                         _______ _______ _______ _____ _____    ______ ____
ROOT
ATOM      1  C   UNL     1       1.948   7.230  20.444  0.00  0.00    +0.000 C 
ATOM      2  N   UNL     1       2.793   6.208  19.839  0.00  0.00    +0.000 N 
ATOM      3  C   UNL     1       2.326   4.907  20.169  0.00  0.00    +0.000 A 
ATOM      4  C   UNL     1       2.343   4.434  21.497  0.00  0.00    +0.000 A 
ATOM      5  C   UNL     1       1.967   3.118  21.805  0.00  0.00    +0.000 A 
ATOM      6  C   UNL     1       1.569   2.245  20.796  0.00  0.00    +0.000 A 
ATOM      7  C   UNL     1       1.508   2.704  19.480  0.00  0.00    +0.000 A 
ATOM      8  C   UNL     1       1.881   4.030  19.177  0.00  0.00    +0.000 A 
ATOM      9  C   UNL     1       1.696   4.582  17.825  0.00  0.00    +0.000 C 
ATOM     10  O   UNL     1       1.004   4.013  16.988  0.00  0.00    +0.000 OA
ATOM     11  N   UNL     1       2.240   5.819  17.586  0.00  0.00    +0.000 N 
ATOM     12  C   UNL     1       3.249   6.418  18.419  0.00  0.00    +0.000 C 
ATOM     13  H   UNL     1       2.005   6.237  16.700  0.00  0.00    +0.000 HD
ENDROOT
BRANCH  12  14
ATOM     14  C   UNL     1       4.669   5.865  18.148  0.00  0.00    +0.000 A 
ATOM     15  C   UNL     1       5.553   5.958  19.237  0.00  0.00    +0.000 A 
ATOM     16  C   UNL     1       6.630   5.120  19.356  0.00  0.00    +0.000 A 
ATOM     17  C   UNL     1       7.338   4.946  18.197  0.00  0.00    +0.000 A 
ATOM     18  C   UNL     1       6.660   4.981  16.988  0.00  0.00    +0.000 A 
ATOM     19  C   UNL     1       7.429   4.603  15.876  0.00  0.00    +0.000 A 
ATOM     20  C   UNL     1       6.832   4.383  14.658  0.00  0.00    +0.000 A 
ATOM     21  C   UNL     1       5.450   4.536  14.558  0.00  0.00    +0.000 A 
ATOM     22  C   UNL     1       4.679   5.010  15.655  0.00  0.00    +0.000 A 
ATOM     23  C   UNL     1       5.261   5.302  16.932  0.00  0.00    +0.000 A 
ENDBRANCH  12  14
TORSDOF 1
ENDMDL
MODEL 2
REMARK VINA RESULT:      -7.1      6.081      9.512
REMARK  Name = 
REMARK  2 active torsions:
REMARK  status: ('A' for Active; 'I' for Inactive)
REMARK    1  A    between atoms: C_1  and  N_2
REMARK    2  A    between atoms: C_12  and  C_13
REMARK                            x       y       z     vdW  Elec       q    Type
REMARK                         _______ _______ _______ _____ _____    ______ ____
ROOT
ATOM      1  C   UNL     1       2.195  12.261  18.308  0.00  0.00    +0.000 C 
ATOM      2  N   UNL     1       0.998  11.472  18.566  0.00  0.00    +0.000 N 
ATOM      3  C   UNL     1       1.339  10.171  19.026  0.00  0.00    +0.000 A 
ATOM      4  C   UNL     1       2.019   9.254  18.200  0.00  0.00    +0.000 A 
ATOM      5  C   UNL     1       2.273   7.941  18.626  0.00  0.00    +0.000 A 
ATOM      6  C   UNL     1       1.852   7.515  19.883  0.00  0.00    +0.000 A 
ATOM      7  C   UNL     1       1.210   8.418  20.731  0.00  0.00    +0.000 A 
ATOM      8  C   UNL     1       0.963   9.738  20.300  0.00  0.00    +0.000 A 
ATOM      9  C   UNL     1       0.415  10.748  21.220  0.00  0.00    +0.000 C 
ATOM     10  O   UNL     1       0.379  10.562  22.431  0.00  0.00    +0.000 OA
ATOM     11  N   UNL     1       0.055  11.952  20.667  0.00  0.00    +0.000 N 
ATOM     12  C   UNL     1      -0.158  12.147  19.257  0.00  0.00    +0.000 C 
ATOM     13  H   UNL     1      -0.204  12.674  21.321  0.00  0.00    +0.000 HD
ENDROOT
BRANCH  12  14
ATOM     14  C   UNL     1      -1.538  11.639  18.774  0.00  0.00    +0.000 A 
ATOM     15  C   UNL     1      -1.486  10.734  17.700  0.00  0.00    +0.000 A 
ATOM     16  C   UNL     1      -2.498   9.838  17.473  0.00  0.00    +0.000 A 
ATOM     17  C   UNL     1      -3.755  10.373  17.569  0.00  0.00    +0.000 A 
ATOM     18  C   UNL     1      -3.976  11.402  18.472  0.00  0.00    +0.000 A 
ATOM     19  C   UNL     1      -5.325  11.753  18.639  0.00  0.00    +0.000 A 
ATOM     20  C   UNL     1      -5.704  12.599  19.654  0.00  0.00    +0.000 A 
ATOM     21  C   UNL     1      -4.721  13.090  20.512  0.00  0.00    +0.000 A 
ATOM     22  C   UNL     1      -3.344  12.815  20.291  0.00  0.00    +0.000 A 
ATOM     23  C   UNL     1      -2.892  11.979  19.218  0.00  0.00    +0.000 A 
ENDBRANCH  12  14
TORSDOF 1
ENDMDL
MODEL 3
REMARK VINA RESULT:      -7.1      7.582     10.288
REMARK  Name = 
REMARK  2 active torsions:
REMARK  status: ('A' for Active; 'I' for Inactive)
REMARK    1  A    between atoms: C_1  and  N_2
REMARK    2  A    between atoms: C_12  and  C_13
REMARK                            x       y       z     vdW  Elec       q    Type
REMARK                         _______ _______ _______ _____ _____    ______ ____
ROOT
ATOM      1  C   UNL     1       1.391  12.850  19.955  0.00  0.00    +0.000 C 
ATOM      2  N   UNL     1       0.138  12.107  19.986  0.00  0.00    +0.000 N 
ATOM      3  C   UNL     1       0.094  11.237  21.109  0.00  0.00    +0.000 A 
ATOM      4  C   UNL     1       0.984  10.151  21.234  0.00  0.00    +0.000 A 
ATOM      5  C   UNL     1       0.878   9.242  22.297  0.00  0.00    +0.000 A 
ATOM      6  C   UNL     1      -0.120   9.396  23.257  0.00  0.00    +0.000 A 
ATOM      7  C   UNL     1      -0.987  10.485  23.174  0.00  0.00    +0.000 A 
ATOM      8  C   UNL     1      -0.871  11.398  22.106  0.00  0.00    +0.000 A 
ATOM      9  C   UNL     1      -1.679  12.629  22.067  0.00  0.00    +0.000 C 
ATOM     10  O   UNL     1      -2.291  13.027  23.051  0.00  0.00    +0.000 OA
ATOM     11  N   UNL     1      -1.619  13.368  20.913  0.00  0.00    +0.000 N 
ATOM     12  C   UNL     1      -1.131  12.849  19.661  0.00  0.00    +0.000 C 
ATOM     13  H   UNL     1      -2.077  14.265  20.942  0.00  0.00    +0.000 HD
ENDROOT
BRANCH  12  14
ATOM     14  C   UNL     1      -2.173  11.978  18.917  0.00  0.00    +0.000 A 
ATOM     15  C   UNL     1      -1.627  11.086  17.978  0.00  0.00    +0.000 A 
ATOM     16  C   UNL     1      -2.292   9.948  17.605  0.00  0.00    +0.000 A 
ATOM     17  C   UNL     1      -3.625  10.133  17.350  0.00  0.00    +0.000 A 
ATOM     18  C   UNL     1      -4.316  11.094  18.072  0.00  0.00    +0.000 A 
ATOM     19  C   UNL     1      -5.707  11.079  17.882  0.00  0.00    +0.000 A 
ATOM     20  C   UNL     1      -6.529  11.826  18.692  0.00  0.00    +0.000 A 
ATOM     21  C   UNL     1      -5.950  12.586  19.707  0.00  0.00    +0.000 A 
ATOM     22  C   UNL     1      -4.538  12.679  19.845  0.00  0.00    +0.000 A 
ATOM     23  C   UNL     1      -3.635  11.961  18.994  0.00  0.00    +0.000 A 
ENDBRANCH  12  14
TORSDOF 1
ENDMDL
MODEL 4
REMARK VINA RESULT:      -7.0      5.945      8.466
REMARK  Name = 
REMARK  2 active torsions:
REMARK  status: ('A' for Active; 'I' for Inactive)
REMARK    1  A    between atoms: C_1  and  N_2
REMARK    2  A    between atoms: C_12  and  C_13
REMARK                            x       y       z     vdW  Elec       q    Type
REMARK                         _______ _______ _______ _____ _____    ______ ____
ROOT
ATOM      1  C   UNL     1      -1.006  14.633  20.124  0.00  0.00    +0.000 C 
ATOM      2  N   UNL     1      -1.134  13.181  20.137  0.00  0.00    +0.000 N 
ATOM      3  C   UNL     1      -2.489  12.792  19.961  0.00  0.00    +0.000 A 
ATOM      4  C   UNL     1      -3.473  13.098  20.924  0.00  0.00    +0.000 A 
ATOM      5  C   UNL     1      -4.790  12.633  20.791  0.00  0.00    +0.000 A 
ATOM      6  C   UNL     1      -5.153  11.852  19.696  0.00  0.00    +0.000 A 
ATOM      7  C   UNL     1      -4.206  11.570  18.712  0.00  0.00    +0.000 A 
ATOM      8  C   UNL     1      -2.885  12.045  18.849  0.00  0.00    +0.000 A 
ATOM      9  C   UNL     1      -1.902  11.883  17.764  0.00  0.00    +0.000 C 
ATOM     10  O   UNL     1      -2.242  11.556  16.633  0.00  0.00    +0.000 OA
ATOM     11  N   UNL     1      -0.605  12.226  18.053  0.00  0.00    +0.000 N 
ATOM     12  C   UNL     1      -0.102  12.374  19.394  0.00  0.00    +0.000 C 
ATOM     13  H   UNL     1       0.032  12.225  17.272  0.00  0.00    +0.000 HD
ENDROOT
BRANCH  12  14
ATOM     14  C   UNL     1       0.222  11.023  20.076  0.00  0.00    +0.000 A 
ATOM     15  C   UNL     1      -0.138  10.950  21.432  0.00  0.00    +0.000 A 
ATOM     16  C   UNL     1      -0.383   9.748  22.041  0.00  0.00    +0.000 A 
ATOM     17  C   UNL     1       0.534   8.772  21.751  0.00  0.00    +0.000 A 
ATOM     18  C   UNL     1       1.130   8.768  20.499  0.00  0.00    +0.000 A 
ATOM     19  C   UNL     1       1.904   7.629  20.225  0.00  0.00    +0.000 A 
ATOM     20  C   UNL     1       2.370   7.393  18.954  0.00  0.00    +0.000 A 
ATOM     21  C   UNL     1       2.049   8.303  17.948  0.00  0.00    +0.000 A 
ATOM     22  C   UNL     1       1.347   9.505  18.238  0.00  0.00    +0.000 A 
ATOM     23  C   UNL     1       0.883   9.823  19.556  0.00  0.00    +0.000 A 
ENDBRANCH  12  14
TORSDOF 1
ENDMDL
MODEL 5
REMARK VINA RESULT:      -6.9      1.887      5.993
REMARK  Name = 
REMARK  2 active torsions:
REMARK  status: ('A' for Active; 'I' for Inactive)
REMARK    1  A    between atoms: C_1  and  N_2
REMARK    2  A    between atoms: C_12  and  C_13
REMARK                            x       y       z     vdW  Elec       q    Type
REMARK                         _______ _______ _______ _____ _____    ______ ____
ROOT
ATOM      1  C   UNL     1       4.257   8.009  17.068  0.00  0.00    +0.000 C 
ATOM      2  N   UNL     1       4.193   6.572  17.300  0.00  0.00    +0.000 N 
ATOM      3  C   UNL     1       5.249   5.904  16.625  0.00  0.00    +0.000 A 
ATOM      4  C   UNL     1       5.327   5.885  15.218  0.00  0.00    +0.000 A 
ATOM      5  C   UNL     1       6.320   5.148  14.554  0.00  0.00    +0.000 A 
ATOM      6  C   UNL     1       7.254   4.412  15.280  0.00  0.00    +0.000 A 
ATOM      7  C   UNL     1       7.219   4.448  16.674  0.00  0.00    +0.000 A 
ATOM      8  C   UNL     1       6.222   5.195  17.335  0.00  0.00    +0.000 A 
ATOM      9  C   UNL     1       6.243   5.364  18.798  0.00  0.00    +0.000 C 
ATOM     10  O   UNL     1       7.231   5.077  19.463  0.00  0.00    +0.000 OA
ATOM     11  N   UNL     1       5.146   5.963  19.363  0.00  0.00    +0.000 N 
ATOM     12  C   UNL     1       3.878   6.095  18.694  0.00  0.00    +0.000 C 
ATOM     13  H   UNL     1       5.223   6.182  20.344  0.00  0.00    +0.000 HD
ENDROOT
BRANCH  12  14
ATOM     14  C   UNL     1       3.039   4.794  18.718  0.00  0.00    +0.000 A 
ATOM     15  C   UNL     1       2.652   4.323  17.452  0.00  0.00    +0.000 A 
ATOM     16  C   UNL     1       2.358   3.002  17.241  0.00  0.00    +0.000 A 
ATOM     17  C   UNL     1       1.565   2.441  18.208  0.00  0.00    +0.000 A 
ATOM     18  C   UNL     1       1.687   2.890  19.514  0.00  0.00    +0.000 A 
ATOM     19  C   UNL     1       0.981   2.130  20.461  0.00  0.00    +0.000 A 
ATOM     20  C   UNL     1       1.184   2.329  21.805  0.00  0.00    +0.000 A 
ATOM     21  C   UNL     1       2.111   3.292  22.202  0.00  0.00    +0.000 A 
ATOM     22  C   UNL     1       2.758   4.128  21.253  0.00  0.00    +0.000 A 
ATOM     23  C   UNL     1       2.543   3.997  19.842  0.00  0.00    +0.000 A 
ENDBRANCH  12  14
TORSDOF 1
ENDMDL
MODEL 6
REMARK VINA RESULT:      -6.8      2.036      5.840
REMARK  Name = 
REMARK  2 active torsions:
REMARK  status: ('A' for Active; 'I' for Inactive)
REMARK    1  A    between atoms: C_1  and  N_2
REMARK    2  A    between atoms: C_12  and  C_13
REMARK                            x       y       z     vdW  Elec       q    Type
REMARK                         _______ _______ _______ _____ _____    ______ ____
ROOT
ATOM      1  C   UNL     1       6.603   4.971  19.648  0.00  0.00    +0.000 C 
ATOM      2  N   UNL     1       5.525   5.530  18.843  0.00  0.00    +0.000 N 
ATOM      3  C   UNL     1       5.648   5.130  17.485  0.00  0.00    +0.000 A 
ATOM      4  C   UNL     1       6.738   5.544  16.692  0.00  0.00    +0.000 A 
ATOM      5  C   UNL     1       6.808   5.222  15.328  0.00  0.00    +0.000 A 
ATOM      6  C   UNL     1       5.793   4.483  14.726  0.00  0.00    +0.000 A 
ATOM      7  C   UNL     1       4.724   4.031  15.501  0.00  0.00    +0.000 A 
ATOM      8  C   UNL     1       4.662   4.353  16.872  0.00  0.00    +0.000 A 
ATOM      9  C   UNL     1       3.623   3.776  17.742  0.00  0.00    +0.000 C 
ATOM     10  O   UNL     1       2.935   2.828  17.380  0.00  0.00    +0.000 OA
ATOM     11  N   UNL     1       3.543   4.275  19.018  0.00  0.00    +0.000 N 
ATOM     12  C   UNL     1       4.134   5.524  19.421  0.00  0.00    +0.000 C 
ATOM     13  H   UNL     1       2.912   3.792  19.638  0.00  0.00    +0.000 HD
ENDROOT
BRANCH  12  14
ATOM     14  C   UNL     1       3.296   6.757  19.006  0.00  0.00    +0.000 A 
ATOM     15  C   UNL     1       3.662   7.327  17.775  0.00  0.00    +0.000 A 
ATOM     16  C   UNL     1       2.773   8.065  17.038  0.00  0.00    +0.000 A 
ATOM     17  C   UNL     1       2.047   8.966  17.770  0.00  0.00    +0.000 A 
ATOM     18  C   UNL     1       1.716   8.652  19.079  0.00  0.00    +0.000 A 
ATOM     19  C   UNL     1       0.814   9.542  19.684  0.00  0.00    +0.000 A 
ATOM     20  C   UNL     1       0.237   9.235  20.893  0.00  0.00    +0.000 A 
ATOM     21  C   UNL     1       0.563   8.020  21.495  0.00  0.00    +0.000 A 
ATOM     22  C   UNL     1       1.545   7.159  20.936  0.00  0.00    +0.000 A 
ATOM     23  C   UNL     1       2.214   7.457  19.703  0.00  0.00    +0.000 A 
ENDBRANCH  12  14
TORSDOF 1
ENDMDL
MODEL 7
REMARK VINA RESULT:      -6.7      2.331      5.632
REMARK  Name = 
REMARK  2 active torsions:
REMARK  status: ('A' for Active; 'I' for Inactive)
REMARK    1  A    between atoms: C_1  and  N_2
REMARK    2  A    between atoms: C_12  and  C_13
REMARK                            x       y       z     vdW  Elec       q    Type
REMARK                         _______ _______ _______ _____ _____    ______ ____
ROOT
ATOM      1  C   UNL     1       4.746   3.081  18.212  0.00  0.00    +0.000 C 
ATOM      2  N   UNL     1       4.476   4.475  18.541  0.00  0.00    +0.000 N 
ATOM      3  C   UNL     1       5.669   5.245  18.496  0.00  0.00    +0.000 A 
ATOM      4  C   UNL     1       6.726   5.018  19.400  0.00  0.00    +0.000 A 
ATOM      5  C   UNL     1       7.863   5.840  19.411  0.00  0.00    +0.000 A 
ATOM      6  C   UNL     1       7.969   6.907  18.522  0.00  0.00    +0.000 A 
ATOM      7  C   UNL     1       6.952   7.126  17.593  0.00  0.00    +0.000 A 
ATOM      8  C   UNL     1       5.814   6.293  17.584  0.00  0.00    +0.000 A 
ATOM      9  C   UNL     1       4.792   6.413  16.529  0.00  0.00    +0.000 C 
ATOM     10  O   UNL     1       4.998   7.055  15.506  0.00  0.00    +0.000 OA
ATOM     11  N   UNL     1       3.646   5.677  16.697  0.00  0.00    +0.000 N 
ATOM     12  C   UNL     1       3.242   5.112  17.958  0.00  0.00    +0.000 C 
ATOM     13  H   UNL     1       3.010   5.673  15.916  0.00  0.00    +0.000 HD
ENDROOT
BRANCH  12  14
ATOM     14  C   UNL     1       2.584   6.145  18.905  0.00  0.00    +0.000 A 
ATOM     15  C   UNL     1       2.156   5.621  20.136  0.00  0.00    +0.000 A 
ATOM     16  C   UNL     1       2.018   6.419  21.242  0.00  0.00    +0.000 A 
ATOM     17  C   UNL     1       1.389   7.611  21.000  0.00  0.00    +0.000 A 
ATOM     18  C   UNL     1       1.560   8.219  19.766  0.00  0.00    +0.000 A 
ATOM     19  C   UNL     1       1.041   9.520  19.677  0.00  0.00    +0.000 A 
ATOM     20  C   UNL     1       1.329  10.314  18.593  0.00  0.00    +0.000 A 
ATOM     21  C   UNL     1       2.153   9.799  17.594  0.00  0.00    +0.000 A 
ATOM     22  C   UNL     1       2.605   8.452  17.630  0.00  0.00    +0.000 A 
ATOM     23  C   UNL     1       2.291   7.567  18.713  0.00  0.00    +0.000 A 
ENDBRANCH  12  14
TORSDOF 1
ENDMDL
MODEL 8
REMARK VINA RESULT:      -6.7      7.768     11.221
REMARK  Name = 
REMARK  2 active torsions:
REMARK  status: ('A' for Active; 'I' for Inactive)
REMARK    1  A    between atoms: C_1  and  N_2
REMARK    2  A    between atoms: C_12  and  C_13
REMARK                            x       y       z     vdW  Elec       q    Type
REMARK                         _______ _______ _______ _____ _____    ______ ____
ROOT
ATOM      1  C   UNL     1      -0.271  12.444  18.832  0.00  0.00    +0.000 C 
ATOM      2  N   UNL     1      -1.333  12.160  19.789  0.00  0.00    +0.000 N 
ATOM      3  C   UNL     1      -0.913  11.188  20.737  0.00  0.00    +0.000 A 
ATOM      4  C   UNL     1      -0.620   9.864  20.352  0.00  0.00    +0.000 A 
ATOM      5  C   UNL     1      -0.295   8.885  21.303  0.00  0.00    +0.000 A 
ATOM      6  C   UNL     1      -0.257   9.206  22.658  0.00  0.00    +0.000 A 
ATOM      7  C   UNL     1      -0.505  10.519  23.057  0.00  0.00    +0.000 A 
ATOM      8  C   UNL     1      -0.826  11.499  22.096  0.00  0.00    +0.000 A 
ATOM      9  C   UNL     1      -0.957  12.918  22.471  0.00  0.00    +0.000 C 
ATOM     10  O   UNL     1      -0.565  13.334  23.555  0.00  0.00    +0.000 OA
ATOM     11  N   UNL     1      -1.433  13.768  21.505  0.00  0.00    +0.000 N 
ATOM     12  C   UNL     1      -2.128  13.321  20.326  0.00  0.00    +0.000 C 
ATOM     13  H   UNL     1      -1.404  14.749  21.732  0.00  0.00    +0.000 HD
ENDROOT
BRANCH  12  14
ATOM     14  C   UNL     1      -3.613  12.972  20.591  0.00  0.00    +0.000 A 
ATOM     15  C   UNL     1      -4.077  13.320  21.871  0.00  0.00    +0.000 A 
ATOM     16  C   UNL     1      -5.407  13.542  22.111  0.00  0.00    +0.000 A 
ATOM     17  C   UNL     1      -6.244  12.614  21.549  0.00  0.00    +0.000 A 
ATOM     18  C   UNL     1      -5.880  12.029  20.347  0.00  0.00    +0.000 A 
ATOM     19  C   UNL     1      -6.880  11.241  19.754  0.00  0.00    +0.000 A 
ATOM     20  C   UNL     1      -6.735  10.782  18.467  0.00  0.00    +0.000 A 
ATOM     21  C   UNL     1      -5.580  11.125  17.766  0.00  0.00    +0.000 A 
ATOM     22  C   UNL     1      -4.523  11.841  18.390  0.00  0.00    +0.000 A 
ATOM     23  C   UNL     1      -4.603  12.299  19.746  0.00  0.00    +0.000 A 
ENDBRANCH  12  14
TORSDOF 1
ENDMDL
MODEL 9
REMARK VINA RESULT:      -6.6      5.763      8.687
REMARK  Name = 
REMARK  2 active torsions:
REMARK  status: ('A' for Active; 'I' for Inactive)
REMARK    1  A    between atoms: C_1  and  N_2
REMARK    2  A    between atoms: C_12  and  C_13
REMARK                            x       y       z     vdW  Elec       q    Type
REMARK                         _______ _______ _______ _____ _____    ______ ____
ROOT
ATOM      1  C   UNL     1      -0.726  13.429  18.070  0.00  0.00    +0.000 C 
ATOM      2  N   UNL     1       0.094  12.643  18.983  0.00  0.00    +0.000 N 
ATOM      3  C   UNL     1       1.326  13.300  19.250  0.00  0.00    +0.000 A 
ATOM      4  C   UNL     1       2.283  13.508  18.236  0.00  0.00    +0.000 A 
ATOM      5  C   UNL     1       3.534  14.074  18.522  0.00  0.00    +0.000 A 
ATOM      6  C   UNL     1       3.858  14.443  19.825  0.00  0.00    +0.000 A 
ATOM      7  C   UNL     1       2.912  14.282  20.837  0.00  0.00    +0.000 A 
ATOM      8  C   UNL     1       1.654  13.717  20.542  0.00  0.00    +0.000 A 
ATOM      9  C   UNL     1       0.588  13.662  21.557  0.00  0.00    +0.000 C 
ATOM     10  O   UNL     1       0.658  14.305  22.598  0.00  0.00    +0.000 OA
ATOM     11  N   UNL     1      -0.537  12.948  21.229  0.00  0.00    +0.000 N 
ATOM     12  C   UNL     1      -0.585  11.988  20.157  0.00  0.00    +0.000 C 
ATOM     13  H   UNL     1      -1.305  13.018  21.878  0.00  0.00    +0.000 HD
ENDROOT
BRANCH  12  14
ATOM     14  C   UNL     1       0.035  10.622  20.536  0.00  0.00    +0.000 A 
ATOM     15  C   UNL     1      -0.093  10.275  21.891  0.00  0.00    +0.000 A 
ATOM     16  C   UNL     1      -0.062   8.968  22.300  0.00  0.00    +0.000 A 
ATOM     17  C   UNL     1       0.930   8.221  21.722  0.00  0.00    +0.000 A 
ATOM     18  C   UNL     1       1.317   8.516  20.424  0.00  0.00    +0.000 A 
ATOM     19  C   UNL     1       2.196   7.583  19.850  0.00  0.00    +0.000 A 
ATOM     20  C   UNL     1       2.486   7.633  18.508  0.00  0.00    +0.000 A 
ATOM     21  C   UNL     1       1.882   8.623  17.734  0.00  0.00    +0.000 A 
ATOM     22  C   UNL     1       1.067   9.626  18.324  0.00  0.00    +0.000 A 
ATOM     23  C   UNL     1       0.774   9.649  19.727  0.00  0.00    +0.000 A 
ENDBRANCH  12  14
TORSDOF 1
ENDMDL
