MODEL 1
REMARK VINA RESULT:     -10.3      0.000      0.000
REMARK  Name = 
REMARK  5 active torsions:
REMARK  status: ('A' for Active; 'I' for Inactive)
REMARK    1  A    between atoms: C_5  and  C_6
REMARK    2  A    between atoms: C_9  and  C_10
REMARK    3  A    between atoms: C_13  and  C_14
REMARK    4  A    between atoms: C_19  and  S_20
REMARK    5  A    between atoms: S_20  and  N_23
REMARK                            x       y       z     vdW  Elec       q    Type
REMARK                         _______ _______ _______ _____ _____    ______ ____
ROOT
ATOM      1  C   UNL     1       3.531   6.544  17.557  0.00  0.00    +0.000 A 
ATOM      2  C   UNL     1       4.607   7.228  16.930  0.00  0.00    +0.000 A 
ATOM      3  C   UNL     1       5.589   6.601  16.139  0.00  0.00    +0.000 A 
ATOM      4  C   UNL     1       5.590   5.223  15.962  0.00  0.00    +0.000 A 
ATOM      5  C   UNL     1       4.582   4.501  16.603  0.00  0.00    +0.000 A 
ATOM      6  C   UNL     1       3.542   5.137  17.346  0.00  0.00    +0.000 A 
ENDROOT
BRANCH   1  10
ATOM      7  C   UNL     1       0.934   9.291  19.920  0.00  0.00    +0.000 A 
ATOM      8  C   UNL     1       1.190   9.492  18.560  0.00  0.00    +0.000 A 
ATOM      9  C   UNL     1       1.974   8.567  17.806  0.00  0.00    +0.000 A 
ATOM     10  C   UNL     1       2.578   7.407  18.362  0.00  0.00    +0.000 A 
ATOM     11  C   UNL     1       2.336   7.237  19.730  0.00  0.00    +0.000 A 
ATOM     12  C   UNL     1       1.534   8.136  20.467  0.00  0.00    +0.000 A 
ATOM     13  F   UNL     1       1.377   7.883  21.778  0.00  0.00    +0.000 F 
BRANCH   7  18
ATOM     14  N   UNL     1      -1.898  12.821  23.266  0.00  0.00    +0.000 N 
ATOM     15  C   UNL     1      -1.292  11.913  22.425  0.00  0.00    +0.000 A 
ATOM     16  N   UNL     1      -0.467  11.032  22.988  0.00  0.00    +0.000 NA
ATOM     17  C   UNL     1       0.199  10.199  22.147  0.00  0.00    +0.000 A 
ATOM     18  C   UNL     1       0.080  10.174  20.765  0.00  0.00    +0.000 A 
ATOM     19  C   UNL     1      -0.858  11.091  20.316  0.00  0.00    +0.000 A 
ATOM     20  N   UNL     1      -1.552  11.955  21.114  0.00  0.00    +0.000 NA
ATOM     21  H   UNL     1      -1.882  12.488  24.220  0.00  0.00    +0.000 HD
ATOM     22  H   UNL     1      -2.770  13.167  22.898  0.00  0.00    +0.000 HD
ENDBRANCH   7  18
ENDBRANCH   1  10
BRANCH   4  23
ATOM     23  C   UNL     1       6.605   4.523  15.084  0.00  0.00    +0.000 C 
ATOM     24  F   UNL     1       6.171   3.323  14.608  0.00  0.00    +0.000 F 
ATOM     25  F   UNL     1       6.957   5.256  13.995  0.00  0.00    +0.000 F 
ATOM     26  F   UNL     1       7.762   4.258  15.754  0.00  0.00    +0.000 F 
ENDBRANCH   4  23
BRANCH   6  27
ATOM     27  S   UNL     1       2.250   3.995  17.833  0.00  0.00    +0.000 S 
ATOM     28  O   UNL     1       0.986   4.565  17.395  0.00  0.00    +0.000 OA
ATOM     29  O   UNL     1       2.640   2.660  17.454  0.00  0.00    +0.000 OA
BRANCH  27  30
ATOM     30  N   UNL     1       2.322   4.035  19.519  0.00  0.00    +0.000 NA
ATOM     31  C   UNL     1       1.068   4.124  20.291  0.00  0.00    +0.000 C 
ATOM     32  C   UNL     1       0.777   2.808  21.018  0.00  0.00    +0.000 C 
ATOM     33  N   UNL     1       1.926   2.235  21.684  0.00  0.00    +0.000 N 
ATOM     34  C   UNL     1       3.221   2.443  21.293  0.00  0.00    +0.000 C 
ATOM     35  O   UNL     1       4.121   1.783  21.807  0.00  0.00    +0.000 OA
ATOM     36  C   UNL     1       3.496   3.536  20.268  0.00  0.00    +0.000 C 
ATOM     37  H   UNL     1       1.805   1.448  22.313  0.00  0.00    +0.000 HD
ENDBRANCH  27  30
ENDBRANCH   6  27
TORSDOF 5
ENDMDL
MODEL 2
REMARK VINA RESULT:     -10.3      0.171      1.029
REMARK  Name = 
REMARK  5 active torsions:
REMARK  status: ('A' for Active; 'I' for Inactive)
REMARK    1  A    between atoms: C_5  and  C_6
REMARK    2  A    between atoms: C_9  and  C_10
REMARK    3  A    between atoms: C_13  and  C_14
REMARK    4  A    between atoms: C_19  and  S_20
REMARK    5  A    between atoms: S_20  and  N_23
REMARK                            x       y       z     vdW  Elec       q    Type
REMARK                         _______ _______ _______ _____ _____    ______ ____
ROOT
ATOM      1  C   UNL     1       3.561   6.556  17.524  0.00  0.00    +0.000 A 
ATOM      2  C   UNL     1       4.635   7.226  16.878  0.00  0.00    +0.000 A 
ATOM      3  C   UNL     1       5.596   6.587  16.073  0.00  0.00    +0.000 A 
ATOM      4  C   UNL     1       5.580   5.208  15.901  0.00  0.00    +0.000 A 
ATOM      5  C   UNL     1       4.574   4.499  16.560  0.00  0.00    +0.000 A 
ATOM      6  C   UNL     1       3.554   5.149  17.318  0.00  0.00    +0.000 A 
ENDROOT
BRANCH   1  10
ATOM      7  C   UNL     1       1.037   9.335  19.929  0.00  0.00    +0.000 A 
ATOM      8  C   UNL     1       1.305   9.554  18.574  0.00  0.00    +0.000 A 
ATOM      9  C   UNL     1       2.065   8.620  17.806  0.00  0.00    +0.000 A 
ATOM     10  C   UNL     1       2.631   7.432  18.342  0.00  0.00    +0.000 A 
ATOM     11  C   UNL     1       2.378   7.243  19.705  0.00  0.00    +0.000 A 
ATOM     12  C   UNL     1       1.600   8.153  20.457  0.00  0.00    +0.000 A 
ATOM     13  F   UNL     1       1.429   7.880  21.762  0.00  0.00    +0.000 F 
BRANCH   7  18
ATOM     14  N   UNL     1      -2.470  12.472  23.017  0.00  0.00    +0.000 N 
ATOM     15  C   UNL     1      -1.538  11.764  22.290  0.00  0.00    +0.000 A 
ATOM     16  N   UNL     1      -1.662  11.795  20.964  0.00  0.00    +0.000 NA
ATOM     17  C   UNL     1      -0.798  11.023  20.255  0.00  0.00    +0.000 A 
ATOM     18  C   UNL     1       0.206  10.227  20.787  0.00  0.00    +0.000 A 
ATOM     19  C   UNL     1       0.270  10.341  22.167  0.00  0.00    +0.000 A 
ATOM     20  N   UNL     1      -0.574  11.096  22.931  0.00  0.00    +0.000 NA
ATOM     21  H   UNL     1      -2.918  13.169  22.439  0.00  0.00    +0.000 HD
ATOM     22  H   UNL     1      -2.124  12.755  23.920  0.00  0.00    +0.000 HD
ENDBRANCH   7  18
ENDBRANCH   1  10
BRANCH   4  23
ATOM     23  C   UNL     1       6.572   4.494  15.009  0.00  0.00    +0.000 C 
ATOM     24  F   UNL     1       6.839   5.163  13.853  0.00  0.00    +0.000 F 
ATOM     25  F   UNL     1       7.773   4.288  15.613  0.00  0.00    +0.000 F 
ATOM     26  F   UNL     1       6.123   3.265  14.628  0.00  0.00    +0.000 F 
ENDBRANCH   4  23
BRANCH   6  27
ATOM     27  S   UNL     1       2.257   4.022  17.830  0.00  0.00    +0.000 S 
ATOM     28  O   UNL     1       0.991   4.618  17.437  0.00  0.00    +0.000 OA
ATOM     29  O   UNL     1       2.613   2.686  17.423  0.00  0.00    +0.000 OA
BRANCH  27  30
ATOM     30  N   UNL     1       2.380   4.040  19.514  0.00  0.00    +0.000 NA
ATOM     31  C   UNL     1       1.150   4.121  20.324  0.00  0.00    +0.000 C 
ATOM     32  C   UNL     1       0.878   2.796  21.042  0.00  0.00    +0.000 C 
ATOM     33  N   UNL     1       2.045   2.213  21.666  0.00  0.00    +0.000 N 
ATOM     34  C   UNL     1       3.328   2.424  21.239  0.00  0.00    +0.000 C 
ATOM     35  O   UNL     1       4.242   1.756  21.717  0.00  0.00    +0.000 OA
ATOM     36  C   UNL     1       3.575   3.529  20.221  0.00  0.00    +0.000 C 
ATOM     37  H   UNL     1       1.941   1.418  22.288  0.00  0.00    +0.000 HD
ENDBRANCH  27  30
ENDBRANCH   6  27
TORSDOF 5
ENDMDL
MODEL 3
REMARK VINA RESULT:      -9.8      0.909      1.296
REMARK  Name = 
REMARK  5 active torsions:
REMARK  status: ('A' for Active; 'I' for Inactive)
REMARK    1  A    between atoms: C_5  and  C_6
REMARK    2  A    between atoms: C_9  and  C_10
REMARK    3  A    between atoms: C_13  and  C_14
REMARK    4  A    between atoms: C_19  and  S_20
REMARK    5  A    between atoms: S_20  and  N_23
REMARK                            x       y       z     vdW  Elec       q    Type
REMARK                         _______ _______ _______ _____ _____    ______ ____
ROOT
ATOM      1  C   UNL     1       3.630   6.495  17.344  0.00  0.00    +0.000 A 
ATOM      2  C   UNL     1       4.664   7.111  16.586  0.00  0.00    +0.000 A 
ATOM      3  C   UNL     1       5.502   6.424  15.688  0.00  0.00    +0.000 A 
ATOM      4  C   UNL     1       5.398   5.048  15.525  0.00  0.00    +0.000 A 
ATOM      5  C   UNL     1       4.432   4.390  16.289  0.00  0.00    +0.000 A 
ATOM      6  C   UNL     1       3.531   5.091  17.146  0.00  0.00    +0.000 A 
ENDROOT
BRANCH   1  10
ATOM      7  C   UNL     1       1.090   9.003  20.015  0.00  0.00    +0.000 A 
ATOM      8  C   UNL     1       1.744   7.854  20.470  0.00  0.00    +0.000 A 
ATOM      9  C   UNL     1       2.603   7.099  19.616  0.00  0.00    +0.000 A 
ATOM     10  C   UNL     1       2.837   7.417  18.251  0.00  0.00    +0.000 A 
ATOM     11  C   UNL     1       2.152   8.553  17.803  0.00  0.00    +0.000 A 
ATOM     12  C   UNL     1       1.327   9.316  18.659  0.00  0.00    +0.000 A 
ATOM     13  F   UNL     1       0.706  10.382  18.122  0.00  0.00    +0.000 F 
BRANCH   7  18
ATOM     14  N   UNL     1      -1.790  12.493  23.363  0.00  0.00    +0.000 N 
ATOM     15  C   UNL     1      -1.171  11.597  22.517  0.00  0.00    +0.000 A 
ATOM     16  N   UNL     1      -0.382  10.686  23.082  0.00  0.00    +0.000 NA
ATOM     17  C   UNL     1       0.297   9.863  22.241  0.00  0.00    +0.000 A 
ATOM     18  C   UNL     1       0.224   9.879  20.855  0.00  0.00    +0.000 A 
ATOM     19  C   UNL     1      -0.682  10.825  20.402  0.00  0.00    +0.000 A 
ATOM     20  N   UNL     1      -1.387  11.680  21.201  0.00  0.00    +0.000 NA
ATOM     21  H   UNL     1      -1.812  12.133  24.307  0.00  0.00    +0.000 HD
ATOM     22  H   UNL     1      -2.642  12.865  22.976  0.00  0.00    +0.000 HD
ENDBRANCH   7  18
ENDBRANCH   1  10
BRANCH   4  23
ATOM     23  C   UNL     1       6.254   4.285  14.537  0.00  0.00    +0.000 C 
ATOM     24  F   UNL     1       6.955   3.265  15.105  0.00  0.00    +0.000 F 
ATOM     25  F   UNL     1       5.531   3.731  13.528  0.00  0.00    +0.000 F 
ATOM     26  F   UNL     1       7.183   5.086  13.944  0.00  0.00    +0.000 F 
ENDBRANCH   4  23
BRANCH   6  27
ATOM     27  S   UNL     1       2.239   4.031  17.795  0.00  0.00    +0.000 S 
ATOM     28  O   UNL     1       0.972   4.703  17.557  0.00  0.00    +0.000 OA
ATOM     29  O   UNL     1       2.468   2.683  17.338  0.00  0.00    +0.000 OA
BRANCH  27  30
ATOM     30  N   UNL     1       2.556   4.016  19.453  0.00  0.00    +0.000 NA
ATOM     31  C   UNL     1       1.427   4.009  20.401  0.00  0.00    +0.000 C 
ATOM     32  C   UNL     1       1.311   2.654  21.107  0.00  0.00    +0.000 C 
ATOM     33  N   UNL     1       2.572   2.122  21.574  0.00  0.00    +0.000 N 
ATOM     34  C   UNL     1       3.784   2.416  21.008  0.00  0.00    +0.000 C 
ATOM     35  O   UNL     1       4.781   1.789  21.358  0.00  0.00    +0.000 OA
ATOM     36  C   UNL     1       3.851   3.557  20.002  0.00  0.00    +0.000 C 
ATOM     37  H   UNL     1       2.584   1.309  22.180  0.00  0.00    +0.000 HD
ENDBRANCH  27  30
ENDBRANCH   6  27
TORSDOF 5
ENDMDL
MODEL 4
REMARK VINA RESULT:      -9.7      0.961      1.512
REMARK  Name = 
REMARK  5 active torsions:
REMARK  status: ('A' for Active; 'I' for Inactive)
REMARK    1  A    between atoms: C_5  and  C_6
REMARK    2  A    between atoms: C_9  and  C_10
REMARK    3  A    between atoms: C_13  and  C_14
REMARK    4  A    between atoms: C_19  and  S_20
REMARK    5  A    between atoms: S_20  and  N_23
REMARK                            x       y       z     vdW  Elec       q    Type
REMARK                         _______ _______ _______ _____ _____    ______ ____
ROOT
ATOM      1  C   UNL     1       3.623   6.452  17.339  0.00  0.00    +0.000 A 
ATOM      2  C   UNL     1       4.640   7.069  16.561  0.00  0.00    +0.000 A 
ATOM      3  C   UNL     1       5.440   6.389  15.623  0.00  0.00    +0.000 A 
ATOM      4  C   UNL     1       5.310   5.019  15.435  0.00  0.00    +0.000 A 
ATOM      5  C   UNL     1       4.360   4.359  16.216  0.00  0.00    +0.000 A 
ATOM      6  C   UNL     1       3.497   5.053  17.116  0.00  0.00    +0.000 A 
ENDROOT
BRANCH   1  10
ATOM      7  C   UNL     1       1.201   8.943  20.133  0.00  0.00    +0.000 A 
ATOM      8  C   UNL     1       1.820   7.756  20.537  0.00  0.00    +0.000 A 
ATOM      9  C   UNL     1       2.643   7.004  19.645  0.00  0.00    +0.000 A 
ATOM     10  C   UNL     1       2.872   7.366  18.289  0.00  0.00    +0.000 A 
ATOM     11  C   UNL     1       2.222   8.540  17.893  0.00  0.00    +0.000 A 
ATOM     12  C   UNL     1       1.434   9.299  18.787  0.00  0.00    +0.000 A 
ATOM     13  F   UNL     1       0.844  10.404  18.298  0.00  0.00    +0.000 F 
BRANCH   7  18
ATOM     14  N   UNL     1      -2.289  12.046  23.274  0.00  0.00    +0.000 N 
ATOM     15  C   UNL     1      -1.359  11.338  22.544  0.00  0.00    +0.000 A 
ATOM     16  N   UNL     1      -1.391  11.493  21.222  0.00  0.00    +0.000 NA
ATOM     17  C   UNL     1      -0.535  10.725  20.499  0.00  0.00    +0.000 A 
ATOM     18  C   UNL     1       0.376   9.815  21.016  0.00  0.00    +0.000 A 
ATOM     19  C   UNL     1       0.354   9.803  22.403  0.00  0.00    +0.000 A 
ATOM     20  N   UNL     1      -0.488  10.548  23.179  0.00  0.00    +0.000 NA
ATOM     21  H   UNL     1      -2.649  12.822  22.736  0.00  0.00    +0.000 HD
ATOM     22  H   UNL     1      -1.987  12.223  24.219  0.00  0.00    +0.000 HD
ENDBRANCH   7  18
ENDBRANCH   1  10
BRANCH   4  23
ATOM     23  C   UNL     1       6.124   4.265  14.405  0.00  0.00    +0.000 C 
ATOM     24  F   UNL     1       5.430   3.989  13.266  0.00  0.00    +0.000 F 
ATOM     25  F   UNL     1       7.238   4.939  14.015  0.00  0.00    +0.000 F 
ATOM     26  F   UNL     1       6.553   3.060  14.877  0.00  0.00    +0.000 F 
ENDBRANCH   4  23
BRANCH   6  27
ATOM     27  S   UNL     1       2.211   3.998  17.785  0.00  0.00    +0.000 S 
ATOM     28  O   UNL     1       0.945   4.682  17.580  0.00  0.00    +0.000 OA
ATOM     29  O   UNL     1       2.419   2.652  17.312  0.00  0.00    +0.000 OA
BRANCH  27  30
ATOM     30  N   UNL     1       2.565   3.967  19.435  0.00  0.00    +0.000 NA
ATOM     31  C   UNL     1       1.457   3.917  20.407  0.00  0.00    +0.000 C 
ATOM     32  C   UNL     1       1.390   2.550  21.094  0.00  0.00    +0.000 C 
ATOM     33  N   UNL     1       2.674   2.043  21.526  0.00  0.00    +0.000 N 
ATOM     34  C   UNL     1       3.865   2.375  20.939  0.00  0.00    +0.000 C 
ATOM     35  O   UNL     1       4.885   1.768  21.258  0.00  0.00    +0.000 OA
ATOM     36  C   UNL     1       3.883   3.532  19.949  0.00  0.00    +0.000 C 
ATOM     37  H   UNL     1       2.719   1.221  22.119  0.00  0.00    +0.000 HD
ENDBRANCH  27  30
ENDBRANCH   6  27
TORSDOF 5
ENDMDL
MODEL 5
REMARK VINA RESULT:      -8.7      0.997      1.452
REMARK  Name = 
REMARK  5 active torsions:
REMARK  status: ('A' for Active; 'I' for Inactive)
REMARK    1  A    between atoms: C_5  and  C_6
REMARK    2  A    between atoms: C_9  and  C_10
REMARK    3  A    between atoms: C_13  and  C_14
REMARK    4  A    between atoms: C_19  and  S_20
REMARK    5  A    between atoms: S_20  and  N_23
REMARK                            x       y       z     vdW  Elec       q    Type
REMARK                         _______ _______ _______ _____ _____    ______ ____
ROOT
ATOM      1  C   UNL     1       3.651   6.410  17.967  0.00  0.00    +0.000 A 
ATOM      2  C   UNL     1       4.927   7.000  17.759  0.00  0.00    +0.000 A 
ATOM      3  C   UNL     1       5.991   6.366  17.089  0.00  0.00    +0.000 A 
ATOM      4  C   UNL     1       5.866   5.063  16.623  0.00  0.00    +0.000 A 
ATOM      5  C   UNL     1       4.647   4.422  16.852  0.00  0.00    +0.000 A 
ATOM      6  C   UNL     1       3.541   5.084  17.465  0.00  0.00    +0.000 A 
ENDROOT
BRANCH   1  10
ATOM      7  C   UNL     1       0.883   9.136  20.155  0.00  0.00    +0.000 A 
ATOM      8  C   UNL     1       1.228   9.340  18.816  0.00  0.00    +0.000 A 
ATOM      9  C   UNL     1       2.067   8.423  18.114  0.00  0.00    +0.000 A 
ATOM     10  C   UNL     1       2.641   7.266  18.708  0.00  0.00    +0.000 A 
ATOM     11  C   UNL     1       2.310   7.092  20.057  0.00  0.00    +0.000 A 
ATOM     12  C   UNL     1       1.454   7.985  20.740  0.00  0.00    +0.000 A 
ATOM     13  F   UNL     1       1.212   7.729  22.038  0.00  0.00    +0.000 F 
BRANCH   7  18
ATOM     14  N   UNL     1      -2.195  12.589  23.360  0.00  0.00    +0.000 N 
ATOM     15  C   UNL     1      -1.526  11.710  22.537  0.00  0.00    +0.000 A 
ATOM     16  N   UNL     1      -0.869  10.715  23.129  0.00  0.00    +0.000 NA
ATOM     17  C   UNL     1      -0.136   9.905  22.322  0.00  0.00    +0.000 A 
ATOM     18  C   UNL     1      -0.031  10.012  20.942  0.00  0.00    +0.000 A 
ATOM     19  C   UNL     1      -0.816  11.042  20.449  0.00  0.00    +0.000 A 
ATOM     20  N   UNL     1      -1.567  11.889  21.212  0.00  0.00    +0.000 NA
ATOM     21  H   UNL     1      -2.358  12.174  24.267  0.00  0.00    +0.000 HD
ATOM     22  H   UNL     1      -2.969  13.041  22.899  0.00  0.00    +0.000 HD
ENDBRANCH   7  18
ENDBRANCH   1  10
BRANCH   4  23
ATOM     23  C   UNL     1       6.974   4.368  15.862  0.00  0.00    +0.000 C 
ATOM     24  F   UNL     1       7.501   5.127  14.861  0.00  0.00    +0.000 F 
ATOM     25  F   UNL     1       8.018   4.012  16.656  0.00  0.00    +0.000 F 
ATOM     26  F   UNL     1       6.542   3.221  15.266  0.00  0.00    +0.000 F 
ENDBRANCH   4  23
BRANCH   6  27
ATOM     27  S   UNL     1       2.035   4.113  17.394  0.00  0.00    +0.000 S 
ATOM     28  O   UNL     1       0.936   5.002  17.731  0.00  0.00    +0.000 OA
ATOM     29  O   UNL     1       2.031   3.348  16.172  0.00  0.00    +0.000 OA
BRANCH  27  30
ATOM     30  N   UNL     1       2.246   2.993  18.640  0.00  0.00    +0.000 NA
ATOM     31  C   UNL     1       3.395   2.070  18.589  0.00  0.00    +0.000 C 
ATOM     32  C   UNL     1       4.432   2.425  19.658  0.00  0.00    +0.000 C 
ATOM     33  N   UNL     1       3.867   2.708  20.959  0.00  0.00    +0.000 N 
ATOM     34  C   UNL     1       2.598   3.185  21.155  0.00  0.00    +0.000 C 
ATOM     35  O   UNL     1       2.261   3.559  22.275  0.00  0.00    +0.000 OA
ATOM     36  C   UNL     1       1.636   3.178  19.974  0.00  0.00    +0.000 C 
ATOM     37  H   UNL     1       4.475   2.807  21.764  0.00  0.00    +0.000 HD
ENDBRANCH  27  30
ENDBRANCH   6  27
TORSDOF 5
ENDMDL
MODEL 6
REMARK VINA RESULT:      -8.7      1.490      1.921
REMARK  Name = 
REMARK  5 active torsions:
REMARK  status: ('A' for Active; 'I' for Inactive)
REMARK    1  A    between atoms: C_5  and  C_6
REMARK    2  A    between atoms: C_9  and  C_10
REMARK    3  A    between atoms: C_13  and  C_14
REMARK    4  A    between atoms: C_19  and  S_20
REMARK    5  A    between atoms: S_20  and  N_23
REMARK                            x       y       z     vdW  Elec       q    Type
REMARK                         _______ _______ _______ _____ _____    ______ ____
ROOT
ATOM      1  C   UNL     1       3.236   6.609  18.116  0.00  0.00    +0.000 A 
ATOM      2  C   UNL     1       4.428   7.084  17.503  0.00  0.00    +0.000 A 
ATOM      3  C   UNL     1       5.290   6.286  16.727  0.00  0.00    +0.000 A 
ATOM      4  C   UNL     1       5.043   4.929  16.554  0.00  0.00    +0.000 A 
ATOM      5  C   UNL     1       3.911   4.405  17.181  0.00  0.00    +0.000 A 
ATOM      6  C   UNL     1       2.995   5.223  17.908  0.00  0.00    +0.000 A 
ENDROOT
BRANCH   1  10
ATOM      7  C   UNL     1       0.700   9.428  20.461  0.00  0.00    +0.000 A 
ATOM      8  C   UNL     1       1.325   8.322  21.046  0.00  0.00    +0.000 A 
ATOM      9  C   UNL     1       2.183   7.466  20.292  0.00  0.00    +0.000 A 
ATOM     10  C   UNL     1       2.446   7.635  18.905  0.00  0.00    +0.000 A 
ATOM     11  C   UNL     1       1.790   8.729  18.329  0.00  0.00    +0.000 A 
ATOM     12  C   UNL     1       0.966   9.593  19.084  0.00  0.00    +0.000 A 
ATOM     13  F   UNL     1       0.375  10.607  18.427  0.00  0.00    +0.000 F 
BRANCH   7  18
ATOM     14  N   UNL     1      -2.192  13.195  23.481  0.00  0.00    +0.000 N 
ATOM     15  C   UNL     1      -1.568  12.252  22.693  0.00  0.00    +0.000 A 
ATOM     16  N   UNL     1      -1.112  11.163  23.309  0.00  0.00    +0.000 NA
ATOM     17  C   UNL     1      -0.417  10.279  22.547  0.00  0.00    +0.000 A 
ATOM     18  C   UNL     1      -0.162  10.402  21.188  0.00  0.00    +0.000 A 
ATOM     19  C   UNL     1      -0.750  11.542  20.660  0.00  0.00    +0.000 A 
ATOM     20  N   UNL     1      -1.453  12.466  21.379  0.00  0.00    +0.000 NA
ATOM     21  H   UNL     1      -2.498  12.785  24.352  0.00  0.00    +0.000 HD
ATOM     22  H   UNL     1      -2.849  13.758  22.965  0.00  0.00    +0.000 HD
ENDBRANCH   7  18
ENDBRANCH   1  10
BRANCH   4  23
ATOM     23  C   UNL     1       5.925   4.052  15.692  0.00  0.00    +0.000 C 
ATOM     24  F   UNL     1       5.678   4.181  14.358  0.00  0.00    +0.000 F 
ATOM     25  F   UNL     1       7.250   4.310  15.857  0.00  0.00    +0.000 F 
ATOM     26  F   UNL     1       5.758   2.729  15.972  0.00  0.00    +0.000 F 
ENDBRANCH   4  23
BRANCH   6  27
ATOM     27  S   UNL     1       1.510   4.337  18.379  0.00  0.00    +0.000 S 
ATOM     28  O   UNL     1       0.838   5.134  19.392  0.00  0.00    +0.000 OA
ATOM     29  O   UNL     1       0.822   3.911  17.185  0.00  0.00    +0.000 OA
BRANCH  27  30
ATOM     30  N   UNL     1       2.115   2.930  19.090  0.00  0.00    +0.000 NA
ATOM     31  C   UNL     1       2.204   1.699  18.284  0.00  0.00    +0.000 C 
ATOM     32  C   UNL     1       3.663   1.350  17.972  0.00  0.00    +0.000 C 
ATOM     33  N   UNL     1       4.552   1.465  19.108  0.00  0.00    +0.000 N 
ATOM     34  C   UNL     1       4.336   2.304  20.167  0.00  0.00    +0.000 C 
ATOM     35  O   UNL     1       5.224   2.464  21.001  0.00  0.00    +0.000 OA
ATOM     36  C   UNL     1       2.970   2.964  20.297  0.00  0.00    +0.000 C 
ATOM     37  H   UNL     1       5.502   1.116  19.042  0.00  0.00    +0.000 HD
ENDBRANCH  27  30
ENDBRANCH   6  27
TORSDOF 5
ENDMDL
MODEL 7
REMARK VINA RESULT:      -8.7      1.435      1.729
REMARK  Name = 
REMARK  5 active torsions:
REMARK  status: ('A' for Active; 'I' for Inactive)
REMARK    1  A    between atoms: C_5  and  C_6
REMARK    2  A    between atoms: C_9  and  C_10
REMARK    3  A    between atoms: C_13  and  C_14
REMARK    4  A    between atoms: C_19  and  S_20
REMARK    5  A    between atoms: S_20  and  N_23
REMARK                            x       y       z     vdW  Elec       q    Type
REMARK                         _______ _______ _______ _____ _____    ______ ____
ROOT
ATOM      1  C   UNL     1       3.144   6.650  18.265  0.00  0.00    +0.000 A 
ATOM      2  C   UNL     1       4.336   7.139  17.665  0.00  0.00    +0.000 A 
ATOM      3  C   UNL     1       5.239   6.341  16.938  0.00  0.00    +0.000 A 
ATOM      4  C   UNL     1       5.036   4.973  16.805  0.00  0.00    +0.000 A 
ATOM      5  C   UNL     1       3.906   4.437  17.424  0.00  0.00    +0.000 A 
ATOM      6  C   UNL     1       2.948   5.251  18.100  0.00  0.00    +0.000 A 
ENDROOT
BRANCH   1  10
ATOM      7  C   UNL     1       0.897   9.858  20.395  0.00  0.00    +0.000 A 
ATOM      8  C   UNL     1       1.124   9.895  19.016  0.00  0.00    +0.000 A 
ATOM      9  C   UNL     1       1.791   8.828  18.342  0.00  0.00    +0.000 A 
ATOM     10  C   UNL     1       2.304   7.678  19.000  0.00  0.00    +0.000 A 
ATOM     11  C   UNL     1       2.095   7.671  20.384  0.00  0.00    +0.000 A 
ATOM     12  C   UNL     1       1.407   8.713  21.044  0.00  0.00    +0.000 A 
ATOM     13  F   UNL     1       1.273   8.610  22.378  0.00  0.00    +0.000 F 
BRANCH   7  18
ATOM     14  N   UNL     1      -1.713  13.604  23.686  0.00  0.00    +0.000 N 
ATOM     15  C   UNL     1      -1.123  12.726  22.803  0.00  0.00    +0.000 A 
ATOM     16  N   UNL     1      -1.439  11.440  22.934  0.00  0.00    +0.000 NA
ATOM     17  C   UNL     1      -0.786  10.567  22.124  0.00  0.00    +0.000 A 
ATOM     18  C   UNL     1       0.160  10.900  21.165  0.00  0.00    +0.000 A 
ATOM     19  C   UNL     1       0.344  12.273  21.085  0.00  0.00    +0.000 A 
ATOM     20  N   UNL     1      -0.281  13.194  21.876  0.00  0.00    +0.000 NA
ATOM     21  H   UNL     1      -2.541  13.194  24.095  0.00  0.00    +0.000 HD
ATOM     22  H   UNL     1      -1.779  14.539  23.317  0.00  0.00    +0.000 HD
ENDBRANCH   7  18
ENDBRANCH   1  10
BRANCH   4  23
ATOM     23  C   UNL     1       5.965   4.094  15.995  0.00  0.00    +0.000 C 
ATOM     24  F   UNL     1       6.091   4.492  14.699  0.00  0.00    +0.000 F 
ATOM     25  F   UNL     1       7.226   4.049  16.502  0.00  0.00    +0.000 F 
ATOM     26  F   UNL     1       5.530   2.803  15.944  0.00  0.00    +0.000 F 
ENDBRANCH   4  23
BRANCH   6  27
ATOM     27  S   UNL     1       1.478   4.337  18.567  0.00  0.00    +0.000 S 
ATOM     28  O   UNL     1       0.822   5.091  19.623  0.00  0.00    +0.000 OA
ATOM     29  O   UNL     1       0.770   3.952  17.372  0.00  0.00    +0.000 OA
BRANCH  27  30
ATOM     30  N   UNL     1       2.107   2.909  19.211  0.00  0.00    +0.000 NA
ATOM     31  C   UNL     1       2.182   1.708  18.359  0.00  0.00    +0.000 C 
ATOM     32  C   UNL     1       3.634   1.378  18.001  0.00  0.00    +0.000 C 
ATOM     33  N   UNL     1       4.549   1.456  19.118  0.00  0.00    +0.000 N 
ATOM     34  C   UNL     1       4.356   2.256  20.212  0.00  0.00    +0.000 C 
ATOM     35  O   UNL     1       5.263   2.390  21.030  0.00  0.00    +0.000 OA
ATOM     36  C   UNL     1       2.990   2.904  20.398  0.00  0.00    +0.000 C 
ATOM     37  H   UNL     1       5.499   1.115  19.017  0.00  0.00    +0.000 HD
ENDBRANCH  27  30
ENDBRANCH   6  27
TORSDOF 5
ENDMDL
MODEL 8
REMARK VINA RESULT:      -8.6      1.432      1.750
REMARK  Name = 
REMARK  5 active torsions:
REMARK  status: ('A' for Active; 'I' for Inactive)
REMARK    1  A    between atoms: C_5  and  C_6
REMARK    2  A    between atoms: C_9  and  C_10
REMARK    3  A    between atoms: C_13  and  C_14
REMARK    4  A    between atoms: C_19  and  S_20
REMARK    5  A    between atoms: S_20  and  N_23
REMARK                            x       y       z     vdW  Elec       q    Type
REMARK                         _______ _______ _______ _____ _____    ______ ____
ROOT
ATOM      1  C   UNL     1       3.061   6.596  18.270  0.00  0.00    +0.000 A 
ATOM      2  C   UNL     1       4.216   7.103  17.615  0.00  0.00    +0.000 A 
ATOM      3  C   UNL     1       5.080   6.325  16.820  0.00  0.00    +0.000 A 
ATOM      4  C   UNL     1       4.872   4.959  16.668  0.00  0.00    +0.000 A 
ATOM      5  C   UNL     1       3.779   4.405  17.336  0.00  0.00    +0.000 A 
ATOM      6  C   UNL     1       2.860   5.201  18.084  0.00  0.00    +0.000 A 
ENDROOT
BRANCH   1  10
ATOM      7  C   UNL     1       0.933   9.745  20.601  0.00  0.00    +0.000 A 
ATOM      8  C   UNL     1       1.097   9.825  19.214  0.00  0.00    +0.000 A 
ATOM      9  C   UNL     1       1.727   8.777  18.478  0.00  0.00    +0.000 A 
ATOM     10  C   UNL     1       2.262   7.604  19.075  0.00  0.00    +0.000 A 
ATOM     11  C   UNL     1       2.116   7.553  20.466  0.00  0.00    +0.000 A 
ATOM     12  C   UNL     1       1.465   8.577  21.189  0.00  0.00    +0.000 A 
ATOM     13  F   UNL     1       1.390   8.432  22.524  0.00  0.00    +0.000 F 
BRANCH   7  18
ATOM     14  N   UNL     1      -1.924  13.724  23.372  0.00  0.00    +0.000 N 
ATOM     15  C   UNL     1      -1.172  12.734  22.777  0.00  0.00    +0.000 A 
ATOM     16  N   UNL     1      -0.365  13.109  21.786  0.00  0.00    +0.000 NA
ATOM     17  C   UNL     1       0.306  12.120  21.141  0.00  0.00    +0.000 A 
ATOM     18  C   UNL     1       0.238  10.765  21.436  0.00  0.00    +0.000 A 
ATOM     19  C   UNL     1      -0.581  10.521  22.528  0.00  0.00    +0.000 A 
ATOM     20  N   UNL     1      -1.282  11.475  23.210  0.00  0.00    +0.000 NA
ATOM     21  H   UNL     1      -1.522  14.633  23.192  0.00  0.00    +0.000 HD
ATOM     22  H   UNL     1      -2.182  13.498  24.320  0.00  0.00    +0.000 HD
ENDBRANCH   7  18
ENDBRANCH   1  10
BRANCH   4  23
ATOM     23  C   UNL     1       5.756   4.103  15.786  0.00  0.00    +0.000 C 
ATOM     24  F   UNL     1       5.589   2.766  15.990  0.00  0.00    +0.000 F 
ATOM     25  F   UNL     1       5.542   4.313  14.460  0.00  0.00    +0.000 F 
ATOM     26  F   UNL     1       7.080   4.346  16.002  0.00  0.00    +0.000 F 
ENDBRANCH   4  23
BRANCH   6  27
ATOM     27  S   UNL     1       1.420   4.271  18.611  0.00  0.00    +0.000 S 
ATOM     28  O   UNL     1       0.789   5.027  19.680  0.00  0.00    +0.000 OA
ATOM     29  O   UNL     1       0.677   3.862  17.445  0.00  0.00    +0.000 OA
BRANCH  27  30
ATOM     30  N   UNL     1       2.091   2.860  19.249  0.00  0.00    +0.000 NA
ATOM     31  C   UNL     1       2.183   1.659  18.399  0.00  0.00    +0.000 C 
ATOM     32  C   UNL     1       3.638   1.363  18.021  0.00  0.00    +0.000 C 
ATOM     33  N   UNL     1       4.566   1.466  19.125  0.00  0.00    +0.000 N 
ATOM     34  C   UNL     1       4.369   2.263  20.221  0.00  0.00    +0.000 C 
ATOM     35  O   UNL     1       5.283   2.420  21.026  0.00  0.00    +0.000 OA
ATOM     36  C   UNL     1       2.991   2.879  20.424  0.00  0.00    +0.000 C 
ATOM     37  H   UNL     1       5.523   1.147  19.012  0.00  0.00    +0.000 HD
ENDBRANCH  27  30
ENDBRANCH   6  27
TORSDOF 5
ENDMDL
MODEL 9
REMARK VINA RESULT:      -8.6      4.364      9.835
REMARK  Name = 
REMARK  5 active torsions:
REMARK  status: ('A' for Active; 'I' for Inactive)
REMARK    1  A    between atoms: C_5  and  C_6
REMARK    2  A    between atoms: C_9  and  C_10
REMARK    3  A    between atoms: C_13  and  C_14
REMARK    4  A    between atoms: C_19  and  S_20
REMARK    5  A    between atoms: S_20  and  N_23
REMARK                            x       y       z     vdW  Elec       q    Type
REMARK                         _______ _______ _______ _____ _____    ______ ____
ROOT
ATOM      1  C   UNL     1      -0.141  10.087  20.935  0.00  0.00    +0.000 A 
ATOM      2  C   UNL     1      -0.374   9.881  22.322  0.00  0.00    +0.000 A 
ATOM      3  C   UNL     1      -1.131  10.746  23.134  0.00  0.00    +0.000 A 
ATOM      4  C   UNL     1      -1.670  11.919  22.619  0.00  0.00    +0.000 A 
ATOM      5  C   UNL     1      -1.423  12.193  21.272  0.00  0.00    +0.000 A 
ATOM      6  C   UNL     1      -0.718  11.284  20.427  0.00  0.00    +0.000 A 
ENDROOT
BRANCH   1  10
ATOM      7  C   UNL     1       2.544   7.054  19.073  0.00  0.00    +0.000 A 
ATOM      8  C   UNL     1       2.009   6.891  20.355  0.00  0.00    +0.000 A 
ATOM      9  C   UNL     1       1.102   7.844  20.910  0.00  0.00    +0.000 A 
ATOM     10  C   UNL     1       0.698   9.031  20.241  0.00  0.00    +0.000 A 
ATOM     11  C   UNL     1       1.264   9.193  18.972  0.00  0.00    +0.000 A 
ATOM     12  C   UNL     1       2.138   8.234  18.412  0.00  0.00    +0.000 A 
ATOM     13  F   UNL     1       2.634   8.495  17.190  0.00  0.00    +0.000 F 
BRANCH   7  18
ATOM     14  N   UNL     1       5.705   3.432  16.146  0.00  0.00    +0.000 N 
ATOM     15  C   UNL     1       4.985   4.296  16.944  0.00  0.00    +0.000 A 
ATOM     16  N   UNL     1       3.703   3.997  17.145  0.00  0.00    +0.000 NA
ATOM     17  C   UNL     1       2.973   4.897  17.854  0.00  0.00    +0.000 A 
ATOM     18  C   UNL     1       3.449   6.081  18.399  0.00  0.00    +0.000 A 
ATOM     19  C   UNL     1       4.809   6.235  18.176  0.00  0.00    +0.000 A 
ATOM     20  N   UNL     1       5.590   5.366  17.467  0.00  0.00    +0.000 NA
ATOM     21  H   UNL     1       5.248   2.533  16.093  0.00  0.00    +0.000 HD
ATOM     22  H   UNL     1       6.693   3.452  16.347  0.00  0.00    +0.000 HD
ENDBRANCH   7  18
ENDBRANCH   1  10
BRANCH   4  23
ATOM     23  C   UNL     1      -2.524  12.850  23.453  0.00  0.00    +0.000 C 
ATOM     24  F   UNL     1      -3.360  12.196  24.307  0.00  0.00    +0.000 F 
ATOM     25  F   UNL     1      -1.788  13.697  24.220  0.00  0.00    +0.000 F 
ATOM     26  F   UNL     1      -3.326  13.635  22.680  0.00  0.00    +0.000 F 
ENDBRANCH   4  23
BRANCH   6  27
ATOM     27  S   UNL     1      -0.776  11.768  18.701  0.00  0.00    +0.000 S 
ATOM     28  O   UNL     1      -1.192  13.160  18.661  0.00  0.00    +0.000 OA
ATOM     29  O   UNL     1       0.435  11.330  18.053  0.00  0.00    +0.000 OA
BRANCH  27  30
ATOM     30  N   UNL     1      -2.010  10.800  18.077  0.00  0.00    +0.000 NA
ATOM     31  C   UNL     1      -3.407  11.083  18.456  0.00  0.00    +0.000 C 
ATOM     32  C   UNL     1      -4.192  11.658  17.272  0.00  0.00    +0.000 C 
ATOM     33  N   UNL     1      -3.972  10.960  16.024  0.00  0.00    +0.000 N 
ATOM     34  C   UNL     1      -2.828  10.271  15.723  0.00  0.00    +0.000 C 
ATOM     35  O   UNL     1      -2.657   9.855  14.580  0.00  0.00    +0.000 OA
ATOM     36  C   UNL     1      -1.835   9.999  16.845  0.00  0.00    +0.000 C 
ATOM     37  H   UNL     1      -4.554  11.168  15.220  0.00  0.00    +0.000 HD
ENDBRANCH  27  30
ENDBRANCH   6  27
TORSDOF 5
ENDMDL
