MODEL 1
REMARK VINA RESULT:      -8.9      0.000      0.000
REMARK  Name = 
REMARK  8 active torsions:
REMARK  status: ('A' for Active; 'I' for Inactive)
REMARK    1  A    between atoms: C_1  and  C_2
REMARK    2  A    between atoms: C_2  and  N_3
REMARK    3  A    between atoms: C_2  and  C_19
REMARK    4  A    between atoms: C_7  and  C_8
REMARK    5  A    between atoms: C_19  and  O_20
REMARK    6  A    between atoms: C_19  and  C_21
REMARK    7  A    between atoms: C_19  and  C_27
REMARK    8  A    between atoms: C_21  and  N_22
REMARK                            x       y       z     vdW  Elec       q    Type
REMARK                         _______ _______ _______ _____ _____    ______ ____
ROOT
ATOM      1  C   UNL     1       3.517   3.726  16.773  0.00  0.00    +0.000 C 
ATOM      2  C   UNL     1       4.481   4.757  17.379  0.00  0.00    +0.000 C 
ENDROOT
BRANCH   2   3
ATOM      3  N   UNL     1       3.745   5.888  17.976  0.00  0.00    +0.000 N 
ATOM      4  C   UNL     1       3.356   7.067  17.164  0.00  0.00    +0.000 C 
ATOM      5  C   UNL     1       2.584   7.840  18.166  0.00  0.00    +0.000 A 
ATOM      6  C   UNL     1       1.860   9.049  18.228  0.00  0.00    +0.000 A 
ATOM      7  C   UNL     1       1.304   9.240  19.494  0.00  0.00    +0.000 A 
ATOM      8  S   UNL     1       1.683   7.913  20.557  0.00  0.00    +0.000 S 
ATOM      9  C   UNL     1       2.536   7.162  19.345  0.00  0.00    +0.000 A 
ATOM     10  C   UNL     1       3.221   5.914  19.274  0.00  0.00    +0.000 C 
ATOM     11  O   UNL     1       3.307   5.036  20.119  0.00  0.00    +0.000 OA
BRANCH   7  12
ATOM     12  C   UNL     1       0.464  10.348  19.972  0.00  0.00    +0.000 A 
ATOM     13  C   UNL     1       0.886  11.158  21.028  0.00  0.00    +0.000 A 
ATOM     14  N   UNL     1       0.174  12.188  21.551  0.00  0.00    +0.000 NA
ATOM     15  C   UNL     1      -1.031  12.428  20.985  0.00  0.00    +0.000 A 
ATOM     16  C   UNL     1      -1.537  11.691  19.933  0.00  0.00    +0.000 A 
ATOM     17  F   UNL     1      -2.738  11.978  19.414  0.00  0.00    +0.000 F 
ATOM     18  C   UNL     1      -0.790  10.639  19.419  0.00  0.00    +0.000 A 
ENDBRANCH   7  12
ENDBRANCH   2   3
BRANCH   2  19
ATOM     19  C   UNL     1       5.661   5.198  16.422  0.00  0.00    +0.000 C 
BRANCH  19  20
ATOM     20  C   UNL     1       6.631   6.104  17.199  0.00  0.00    +0.000 A 
ATOM     21  C   UNL     1       6.804   7.452  16.819  0.00  0.00    +0.000 A 
ATOM     22  C   UNL     1       7.649   8.301  17.535  0.00  0.00    +0.000 A 
ATOM     23  C   UNL     1       8.329   7.817  18.645  0.00  0.00    +0.000 A 
ATOM     24  F   UNL     1       9.123   8.637  19.343  0.00  0.00    +0.000 F 
ATOM     25  C   UNL     1       8.186   6.499  19.046  0.00  0.00    +0.000 A 
ATOM     26  C   UNL     1       7.342   5.658  18.325  0.00  0.00    +0.000 A 
ATOM     27  F   UNL     1       7.201   4.400  18.760  0.00  0.00    +0.000 F 
ENDBRANCH  19  20
BRANCH  19  28
ATOM     28  O   UNL     1       5.031   6.035  15.409  0.00  0.00    +0.000 OA
ATOM     29  H   UNL     1       4.598   6.769  15.905  0.00  0.00    +0.000 HD
ENDBRANCH  19  28
BRANCH  19  30
ATOM     30  C   UNL     1       6.309   3.992  15.679  0.00  0.00    +0.000 C 
BRANCH  30  31
ATOM     31  N   UNL     1       6.736   4.301  14.322  0.00  0.00    +0.000 N 
ATOM     32  C   UNL     1       6.323   3.726  13.161  0.00  0.00    +0.000 A 
ATOM     33  N   UNL     1       6.976   4.264  12.153  0.00  0.00    +0.000 NA
ATOM     34  C   UNL     1       7.770   5.193  12.755  0.00  0.00    +0.000 A 
ATOM     35  N   UNL     1       7.635   5.284  14.080  0.00  0.00    +0.000 NA
ENDBRANCH  30  31
ENDBRANCH  19  30
ENDBRANCH   2  19
TORSDOF 7
ENDMDL
MODEL 2
REMARK VINA RESULT:      -8.9      0.877      1.059
REMARK  Name = 
REMARK  8 active torsions:
REMARK  status: ('A' for Active; 'I' for Inactive)
REMARK    1  A    between atoms: C_1  and  C_2
REMARK    2  A    between atoms: C_2  and  N_3
REMARK    3  A    between atoms: C_2  and  C_19
REMARK    4  A    between atoms: C_7  and  C_8
REMARK    5  A    between atoms: C_19  and  O_20
REMARK    6  A    between atoms: C_19  and  C_21
REMARK    7  A    between atoms: C_19  and  C_27
REMARK    8  A    between atoms: C_21  and  N_22
REMARK                            x       y       z     vdW  Elec       q    Type
REMARK                         _______ _______ _______ _____ _____    ______ ____
ROOT
ATOM      1  C   UNL     1       3.543   3.638  16.996  0.00  0.00    +0.000 C 
ATOM      2  C   UNL     1       4.479   4.733  17.527  0.00  0.00    +0.000 C 
ENDROOT
BRANCH   2   3
ATOM      3  N   UNL     1       3.714   5.862  18.089  0.00  0.00    +0.000 N 
ATOM      4  C   UNL     1       3.298   7.008  17.242  0.00  0.00    +0.000 C 
ATOM      5  C   UNL     1       2.504   7.789  18.220  0.00  0.00    +0.000 A 
ATOM      6  C   UNL     1       1.751   8.982  18.244  0.00  0.00    +0.000 A 
ATOM      7  C   UNL     1       1.185   9.195  19.503  0.00  0.00    +0.000 A 
ATOM      8  S   UNL     1       1.592   7.909  20.604  0.00  0.00    +0.000 S 
ATOM      9  C   UNL     1       2.468   7.144  19.417  0.00  0.00    +0.000 A 
ATOM     10  C   UNL     1       3.183   5.912  19.384  0.00  0.00    +0.000 C 
ATOM     11  O   UNL     1       3.288   5.062  20.254  0.00  0.00    +0.000 OA
BRANCH   7  12
ATOM     12  C   UNL     1       0.316  10.296  19.946  0.00  0.00    +0.000 A 
ATOM     13  C   UNL     1      -0.457  11.008  19.026  0.00  0.00    +0.000 A 
ATOM     14  N   UNL     1      -1.271  12.049  19.335  0.00  0.00    +0.000 NA
ATOM     15  C   UNL     1      -1.321  12.400  20.640  0.00  0.00    +0.000 A 
ATOM     16  C   UNL     1      -0.602  11.756  21.628  0.00  0.00    +0.000 A 
ATOM     17  F   UNL     1      -0.694  12.151  22.904  0.00  0.00    +0.000 F 
ATOM     18  C   UNL     1       0.228  10.697  21.284  0.00  0.00    +0.000 A 
ENDBRANCH   7  12
ENDBRANCH   2   3
BRANCH   2  19
ATOM     19  C   UNL     1       5.616   5.172  16.519  0.00  0.00    +0.000 C 
BRANCH  19  20
ATOM     20  C   UNL     1       6.600   6.108  17.243  0.00  0.00    +0.000 A 
ATOM     21  C   UNL     1       6.729   7.454  16.840  0.00  0.00    +0.000 A 
ATOM     22  C   UNL     1       7.586   8.329  17.509  0.00  0.00    +0.000 A 
ATOM     23  C   UNL     1       8.323   7.872  18.593  0.00  0.00    +0.000 A 
ATOM     24  F   UNL     1       9.130   8.717  19.246  0.00  0.00    +0.000 F 
ATOM     25  C   UNL     1       8.225   6.557  19.016  0.00  0.00    +0.000 A 
ATOM     26  C   UNL     1       7.368   5.691  18.342  0.00  0.00    +0.000 A 
ATOM     27  F   UNL     1       7.272   4.435  18.797  0.00  0.00    +0.000 F 
ENDBRANCH  19  20
BRANCH  19  28
ATOM     28  O   UNL     1       4.937   5.981  15.514  0.00  0.00    +0.000 OA
ATOM     29  H   UNL     1       5.208   5.603  14.645  0.00  0.00    +0.000 HD
ENDBRANCH  19  28
BRANCH  19  30
ATOM     30  C   UNL     1       6.255   3.962  15.776  0.00  0.00    +0.000 C 
BRANCH  30  31
ATOM     31  N   UNL     1       6.668   4.264  14.412  0.00  0.00    +0.000 N 
ATOM     32  C   UNL     1       6.247   3.679  13.259  0.00  0.00    +0.000 A 
ATOM     33  N   UNL     1       6.889   4.213  12.241  0.00  0.00    +0.000 NA
ATOM     34  C   UNL     1       7.683   5.150  12.829  0.00  0.00    +0.000 A 
ATOM     35  N   UNL     1       7.560   5.250  14.155  0.00  0.00    +0.000 NA
ENDBRANCH  30  31
ENDBRANCH  19  30
ENDBRANCH   2  19
TORSDOF 7
ENDMDL
MODEL 3
REMARK VINA RESULT:      -8.7      4.373      9.731
REMARK  Name = 
REMARK  8 active torsions:
REMARK  status: ('A' for Active; 'I' for Inactive)
REMARK    1  A    between atoms: C_1  and  C_2
REMARK    2  A    between atoms: C_2  and  N_3
REMARK    3  A    between atoms: C_2  and  C_19
REMARK    4  A    between atoms: C_7  and  C_8
REMARK    5  A    between atoms: C_19  and  O_20
REMARK    6  A    between atoms: C_19  and  C_21
REMARK    7  A    between atoms: C_19  and  C_27
REMARK    8  A    between atoms: C_21  and  N_22
REMARK                            x       y       z     vdW  Elec       q    Type
REMARK                         _______ _______ _______ _____ _____    ______ ____
ROOT
ATOM      1  C   UNL     1       1.882  12.064  18.450  0.00  0.00    +0.000 C 
ATOM      2  C   UNL     1       1.096  11.281  19.511  0.00  0.00    +0.000 C 
ENDROOT
BRANCH   2   3
ATOM      3  N   UNL     1       1.360   9.833  19.409  0.00  0.00    +0.000 N 
ATOM      4  C   UNL     1       1.854   9.228  18.147  0.00  0.00    +0.000 C 
ATOM      5  C   UNL     1       2.046   7.824  18.580  0.00  0.00    +0.000 A 
ATOM      6  C   UNL     1       2.497   6.607  18.025  0.00  0.00    +0.000 A 
ATOM      7  C   UNL     1       2.477   5.583  18.973  0.00  0.00    +0.000 A 
ATOM      8  S   UNL     1       1.917   6.162  20.517  0.00  0.00    +0.000 S 
ATOM      9  C   UNL     1       1.730   7.692  19.897  0.00  0.00    +0.000 A 
ATOM     10  C   UNL     1       1.324   8.929  20.477  0.00  0.00    +0.000 C 
ATOM     11  O   UNL     1       1.047   9.176  21.641  0.00  0.00    +0.000 OA
BRANCH   7  12
ATOM     12  C   UNL     1       2.886   4.179  18.819  0.00  0.00    +0.000 A 
ATOM     13  C   UNL     1       2.382   3.401  17.774  0.00  0.00    +0.000 A 
ATOM     14  N   UNL     1       2.683   2.095  17.562  0.00  0.00    +0.000 NA
ATOM     15  C   UNL     1       3.542   1.530  18.441  0.00  0.00    +0.000 A 
ATOM     16  C   UNL     1       4.101   2.214  19.503  0.00  0.00    +0.000 A 
ATOM     17  F   UNL     1       4.946   1.598  20.340  0.00  0.00    +0.000 F 
ATOM     18  C   UNL     1       3.773   3.548  19.701  0.00  0.00    +0.000 A 
ENDBRANCH   7  12
ENDBRANCH   2   3
BRANCH   2  19
ATOM     19  C   UNL     1      -0.441  11.645  19.594  0.00  0.00    +0.000 C 
BRANCH  19  20
ATOM     20  C   UNL     1      -0.711  12.408  20.902  0.00  0.00    +0.000 A 
ATOM     21  C   UNL     1      -1.390  11.778  21.967  0.00  0.00    +0.000 A 
ATOM     22  C   UNL     1      -1.608  12.441  23.176  0.00  0.00    +0.000 A 
ATOM     23  C   UNL     1      -1.148  13.740  23.339  0.00  0.00    +0.000 A 
ATOM     24  F   UNL     1      -1.341  14.367  24.506  0.00  0.00    +0.000 F 
ATOM     25  C   UNL     1      -0.480  14.392  22.316  0.00  0.00    +0.000 A 
ATOM     26  C   UNL     1      -0.267  13.724  21.113  0.00  0.00    +0.000 A 
ATOM     27  F   UNL     1       0.411  14.370  20.156  0.00  0.00    +0.000 F 
ENDBRANCH  19  20
BRANCH  19  28
ATOM     28  O   UNL     1      -1.125  10.363  19.713  0.00  0.00    +0.000 OA
ATOM     29  H   UNL     1      -0.549   9.712  19.248  0.00  0.00    +0.000 HD
ENDBRANCH  19  28
BRANCH  19  30
ATOM     30  C   UNL     1      -0.965  12.323  18.294  0.00  0.00    +0.000 C 
BRANCH  30  31
ATOM     31  N   UNL     1      -2.204  11.745  17.790  0.00  0.00    +0.000 N 
ATOM     32  C   UNL     1      -2.415  11.115  16.604  0.00  0.00    +0.000 A 
ATOM     33  N   UNL     1      -3.682  10.772  16.513  0.00  0.00    +0.000 NA
ATOM     34  C   UNL     1      -4.207  11.197  17.696  0.00  0.00    +0.000 A 
ATOM     35  N   UNL     1      -3.336  11.767  18.533  0.00  0.00    +0.000 NA
ENDBRANCH  30  31
ENDBRANCH  19  30
ENDBRANCH   2  19
TORSDOF 7
ENDMDL
MODEL 4
REMARK VINA RESULT:      -8.4      1.054      1.120
REMARK  Name = 
REMARK  8 active torsions:
REMARK  status: ('A' for Active; 'I' for Inactive)
REMARK    1  A    between atoms: C_1  and  C_2
REMARK    2  A    between atoms: C_2  and  N_3
REMARK    3  A    between atoms: C_2  and  C_19
REMARK    4  A    between atoms: C_7  and  C_8
REMARK    5  A    between atoms: C_19  and  O_20
REMARK    6  A    between atoms: C_19  and  C_21
REMARK    7  A    between atoms: C_19  and  C_27
REMARK    8  A    between atoms: C_21  and  N_22
REMARK                            x       y       z     vdW  Elec       q    Type
REMARK                         _______ _______ _______ _____ _____    ______ ____
ROOT
ATOM      1  C   UNL     1       3.391   3.935  17.134  0.00  0.00    +0.000 C 
ATOM      2  C   UNL     1       4.342   5.047  17.600  0.00  0.00    +0.000 C 
ENDROOT
BRANCH   2   3
ATOM      3  N   UNL     1       3.594   6.247  18.021  0.00  0.00    +0.000 N 
ATOM      4  C   UNL     1       3.314   7.352  17.071  0.00  0.00    +0.000 C 
ATOM      5  C   UNL     1       2.483   8.235  17.924  0.00  0.00    +0.000 A 
ATOM      6  C   UNL     1       1.797   9.462  17.807  0.00  0.00    +0.000 A 
ATOM      7  C   UNL     1       1.139   9.786  18.995  0.00  0.00    +0.000 A 
ATOM      8  S   UNL     1       1.382   8.559  20.206  0.00  0.00    +0.000 S 
ATOM      9  C   UNL     1       2.312   7.675  19.152  0.00  0.00    +0.000 A 
ATOM     10  C   UNL     1       2.960   6.410  19.259  0.00  0.00    +0.000 C 
ATOM     11  O   UNL     1       2.945   5.616  20.187  0.00  0.00    +0.000 OA
BRANCH   7  12
ATOM     12  C   UNL     1       0.297  10.955  19.290  0.00  0.00    +0.000 A 
ATOM     13  C   UNL     1      -0.936  10.801  19.929  0.00  0.00    +0.000 A 
ATOM     14  N   UNL     1      -1.791  11.813  20.224  0.00  0.00    +0.000 NA
ATOM     15  C   UNL     1      -1.392  13.055  19.864  0.00  0.00    +0.000 A 
ATOM     16  C   UNL     1      -0.190  13.314  19.236  0.00  0.00    +0.000 A 
ATOM     17  F   UNL     1       0.149  14.567  18.905  0.00  0.00    +0.000 F 
ATOM     18  C   UNL     1       0.664  12.260  18.940  0.00  0.00    +0.000 A 
ENDBRANCH   7  12
ENDBRANCH   2   3
BRANCH   2  19
ATOM     19  C   UNL     1       5.534   5.354  16.606  0.00  0.00    +0.000 C 
BRANCH  19  20
ATOM     20  C   UNL     1       6.568   6.244  17.315  0.00  0.00    +0.000 A 
ATOM     21  C   UNL     1       6.778   7.572  16.885  0.00  0.00    +0.000 A 
ATOM     22  C   UNL     1       7.682   8.409  17.540  0.00  0.00    +0.000 A 
ATOM     23  C   UNL     1       8.387   7.932  18.638  0.00  0.00    +0.000 A 
ATOM     24  F   UNL     1       9.239   8.742  19.278  0.00  0.00    +0.000 F 
ATOM     25  C   UNL     1       8.209   6.634  19.087  0.00  0.00    +0.000 A 
ATOM     26  C   UNL     1       7.305   5.806  18.427  0.00  0.00    +0.000 A 
ATOM     27  F   UNL     1       7.133   4.568  18.908  0.00  0.00    +0.000 F 
ENDBRANCH  19  20
BRANCH  19  28
ATOM     28  O   UNL     1       4.942   6.165  15.549  0.00  0.00    +0.000 OA
ATOM     29  H   UNL     1       5.028   7.099  15.854  0.00  0.00    +0.000 HD
ENDBRANCH  19  28
BRANCH  19  30
ATOM     30  C   UNL     1       6.096   4.067  15.933  0.00  0.00    +0.000 C 
BRANCH  30  31
ATOM     31  N   UNL     1       6.580   4.279  14.576  0.00  0.00    +0.000 N 
ATOM     32  C   UNL     1       6.176   3.662  13.435  0.00  0.00    +0.000 A 
ATOM     33  N   UNL     1       6.887   4.110  12.422  0.00  0.00    +0.000 NA
ATOM     34  C   UNL     1       7.707   5.031  13.000  0.00  0.00    +0.000 A 
ATOM     35  N   UNL     1       7.535   5.203  14.313  0.00  0.00    +0.000 NA
ENDBRANCH  30  31
ENDBRANCH  19  30
ENDBRANCH   2  19
TORSDOF 7
ENDMDL
MODEL 5
REMARK VINA RESULT:      -8.1      2.669      4.292
REMARK  Name = 
REMARK  8 active torsions:
REMARK  status: ('A' for Active; 'I' for Inactive)
REMARK    1  A    between atoms: C_1  and  C_2
REMARK    2  A    between atoms: C_2  and  N_3
REMARK    3  A    between atoms: C_2  and  C_19
REMARK    4  A    between atoms: C_7  and  C_8
REMARK    5  A    between atoms: C_19  and  O_20
REMARK    6  A    between atoms: C_19  and  C_21
REMARK    7  A    between atoms: C_19  and  C_27
REMARK    8  A    between atoms: C_21  and  N_22
REMARK                            x       y       z     vdW  Elec       q    Type
REMARK                         _______ _______ _______ _____ _____    ______ ____
ROOT
ATOM      1  C   UNL     1       5.926   5.644  19.409  0.00  0.00    +0.000 C 
ATOM      2  C   UNL     1       4.833   5.610  18.331  0.00  0.00    +0.000 C 
ENDROOT
BRANCH   2   3
ATOM      3  N   UNL     1       3.735   6.540  18.657  0.00  0.00    +0.000 N 
ATOM      4  C   UNL     1       3.141   6.583  20.017  0.00  0.00    +0.000 C 
ATOM      5  C   UNL     1       2.185   7.705  19.856  0.00  0.00    +0.000 A 
ATOM      6  C   UNL     1       1.251   8.407  20.646  0.00  0.00    +0.000 A 
ATOM      7  C   UNL     1       0.643   9.432  19.917  0.00  0.00    +0.000 A 
ATOM      8  S   UNL     1       1.259   9.498  18.289  0.00  0.00    +0.000 S 
ATOM      9  C   UNL     1       2.270   8.217  18.599  0.00  0.00    +0.000 A 
ATOM     10  C   UNL     1       3.251   7.546  17.812  0.00  0.00    +0.000 C 
ATOM     11  O   UNL     1       3.629   7.798  16.678  0.00  0.00    +0.000 OA
BRANCH   7  12
ATOM     12  C   UNL     1      -0.361  10.408  20.364  0.00  0.00    +0.000 A 
ATOM     13  C   UNL     1      -1.205  11.034  19.444  0.00  0.00    +0.000 A 
ATOM     14  N   UNL     1      -2.145  11.961  19.757  0.00  0.00    +0.000 NA
ATOM     15  C   UNL     1      -2.254  12.282  21.067  0.00  0.00    +0.000 A 
ATOM     16  C   UNL     1      -1.473  11.716  22.055  0.00  0.00    +0.000 A 
ATOM     17  F   UNL     1      -1.629  12.075  23.336  0.00  0.00    +0.000 F 
ATOM     18  C   UNL     1      -0.514  10.773  21.707  0.00  0.00    +0.000 A 
ENDBRANCH   7  12
ENDBRANCH   2   3
BRANCH   2  19
ATOM     19  C   UNL     1       4.343   4.159  17.935  0.00  0.00    +0.000 C 
BRANCH  19  20
ATOM     20  C   UNL     1       3.277   3.692  18.940  0.00  0.00    +0.000 A 
ATOM     21  C   UNL     1       3.660   3.055  20.139  0.00  0.00    +0.000 A 
ATOM     22  C   UNL     1       2.710   2.660  21.082  0.00  0.00    +0.000 A 
ATOM     23  C   UNL     1       1.364   2.900  20.842  0.00  0.00    +0.000 A 
ATOM     24  F   UNL     1       0.455   2.539  21.756  0.00  0.00    +0.000 F 
ATOM     25  C   UNL     1       0.950   3.521  19.675  0.00  0.00    +0.000 A 
ATOM     26  C   UNL     1       1.904   3.910  18.739  0.00  0.00    +0.000 A 
ATOM     27  F   UNL     1       1.473   4.537  17.637  0.00  0.00    +0.000 F 
ENDBRANCH  19  20
BRANCH  19  28
ATOM     28  O   UNL     1       5.506   3.302  18.134  0.00  0.00    +0.000 OA
ATOM     29  H   UNL     1       6.253   3.914  18.332  0.00  0.00    +0.000 HD
ENDBRANCH  19  28
BRANCH  19  30
ATOM     30  C   UNL     1       3.950   4.052  16.431  0.00  0.00    +0.000 C 
BRANCH  30  31
ATOM     31  N   UNL     1       5.044   4.349  15.517  0.00  0.00    +0.000 N 
ATOM     32  C   UNL     1       5.449   5.563  15.058  0.00  0.00    +0.000 A 
ATOM     33  N   UNL     1       6.450   5.399  14.220  0.00  0.00    +0.000 NA
ATOM     34  C   UNL     1       6.640   4.051  14.219  0.00  0.00    +0.000 A 
ATOM     35  N   UNL     1       5.830   3.361  15.026  0.00  0.00    +0.000 NA
ENDBRANCH  30  31
ENDBRANCH  19  30
ENDBRANCH   2  19
TORSDOF 7
ENDMDL
MODEL 6
REMARK VINA RESULT:      -8.0      3.345     10.102
REMARK  Name = 
REMARK  8 active torsions:
REMARK  status: ('A' for Active; 'I' for Inactive)
REMARK    1  A    between atoms: C_1  and  C_2
REMARK    2  A    between atoms: C_2  and  N_3
REMARK    3  A    between atoms: C_2  and  C_19
REMARK    4  A    between atoms: C_7  and  C_8
REMARK    5  A    between atoms: C_19  and  O_20
REMARK    6  A    between atoms: C_19  and  C_21
REMARK    7  A    between atoms: C_19  and  C_27
REMARK    8  A    between atoms: C_21  and  N_22
REMARK                            x       y       z     vdW  Elec       q    Type
REMARK                         _______ _______ _______ _____ _____    ______ ____
ROOT
ATOM      1  C   UNL     1       1.068  12.842  20.309  0.00  0.00    +0.000 C 
ATOM      2  C   UNL     1       0.164  11.623  20.544  0.00  0.00    +0.000 C 
ENDROOT
BRANCH   2   3
ATOM      3  N   UNL     1       0.770  10.396  19.993  0.00  0.00    +0.000 N 
ATOM      4  C   UNL     1       1.295  10.354  18.605  0.00  0.00    +0.000 C 
ATOM      5  C   UNL     1       1.864   8.985  18.576  0.00  0.00    +0.000 A 
ATOM      6  C   UNL     1       2.556   8.156  17.667  0.00  0.00    +0.000 A 
ATOM      7  C   UNL     1       2.868   6.924  18.246  0.00  0.00    +0.000 A 
ATOM      8  S   UNL     1       2.308   6.841  19.893  0.00  0.00    +0.000 S 
ATOM      9  C   UNL     1       1.698   8.382  19.784  0.00  0.00    +0.000 A 
ATOM     10  C   UNL     1       1.046   9.234  20.723  0.00  0.00    +0.000 C 
ATOM     11  O   UNL     1       0.812   9.035  21.905  0.00  0.00    +0.000 OA
BRANCH   7  12
ATOM     12  C   UNL     1       3.598   5.792  17.659  0.00  0.00    +0.000 A 
ATOM     13  C   UNL     1       4.720   6.007  16.854  0.00  0.00    +0.000 A 
ATOM     14  N   UNL     1       5.445   5.030  16.253  0.00  0.00    +0.000 NA
ATOM     15  C   UNL     1       5.030   3.760  16.469  0.00  0.00    +0.000 A 
ATOM     16  C   UNL     1       3.939   3.441  17.253  0.00  0.00    +0.000 A 
ATOM     17  F   UNL     1       3.578   2.163  17.429  0.00  0.00    +0.000 F 
ATOM     18  C   UNL     1       3.211   4.460  17.853  0.00  0.00    +0.000 A 
ENDBRANCH   7  12
ENDBRANCH   2   3
BRANCH   2  19
ATOM     19  C   UNL     1      -1.346  11.832  20.126  0.00  0.00    +0.000 C 
BRANCH  19  20
ATOM     20  C   UNL     1      -2.092  12.554  21.261  0.00  0.00    +0.000 A 
ATOM     21  C   UNL     1      -2.757  13.773  21.013  0.00  0.00    +0.000 A 
ATOM     22  C   UNL     1      -3.473  14.422  22.020  0.00  0.00    +0.000 A 
ATOM     23  C   UNL     1      -3.538  13.860  23.288  0.00  0.00    +0.000 A 
ATOM     24  F   UNL     1      -4.241  14.473  24.248  0.00  0.00    +0.000 F 
ATOM     25  C   UNL     1      -2.895  12.666  23.570  0.00  0.00    +0.000 A 
ATOM     26  C   UNL     1      -2.182  12.026  22.559  0.00  0.00    +0.000 A 
ATOM     27  F   UNL     1      -1.601  10.856  22.856  0.00  0.00    +0.000 F 
ENDBRANCH  19  20
BRANCH  19  28
ATOM     28  O   UNL     1      -1.905  10.488  20.050  0.00  0.00    +0.000 OA
ATOM     29  H   UNL     1      -2.131  10.243  20.978  0.00  0.00    +0.000 HD
ENDBRANCH  19  28
BRANCH  19  30
ATOM     30  C   UNL     1      -1.491  12.467  18.711  0.00  0.00    +0.000 C 
BRANCH  30  31
ATOM     31  N   UNL     1      -2.439  11.772  17.851  0.00  0.00    +0.000 N 
ATOM     32  C   UNL     1      -2.189  11.094  16.700  0.00  0.00    +0.000 A 
ATOM     33  N   UNL     1      -3.321  10.642  16.206  0.00  0.00    +0.000 NA
ATOM     34  C   UNL     1      -4.246  11.054  17.117  0.00  0.00    +0.000 A 
ATOM     35  N   UNL     1      -3.756  11.718  18.166  0.00  0.00    +0.000 NA
ENDBRANCH  30  31
ENDBRANCH  19  30
ENDBRANCH   2  19
TORSDOF 7
ENDMDL
MODEL 7
REMARK VINA RESULT:      -8.0      2.804      4.453
REMARK  Name = 
REMARK  8 active torsions:
REMARK  status: ('A' for Active; 'I' for Inactive)
REMARK    1  A    between atoms: C_1  and  C_2
REMARK    2  A    between atoms: C_2  and  N_3
REMARK    3  A    between atoms: C_2  and  C_19
REMARK    4  A    between atoms: C_7  and  C_8
REMARK    5  A    between atoms: C_19  and  O_20
REMARK    6  A    between atoms: C_19  and  C_21
REMARK    7  A    between atoms: C_19  and  C_27
REMARK    8  A    between atoms: C_21  and  N_22
REMARK                            x       y       z     vdW  Elec       q    Type
REMARK                         _______ _______ _______ _____ _____    ______ ____
ROOT
ATOM      1  C   UNL     1       5.648   4.864  19.368  0.00  0.00    +0.000 C 
ATOM      2  C   UNL     1       4.910   5.354  18.113  0.00  0.00    +0.000 C 
ENDROOT
BRANCH   2   3
ATOM      3  N   UNL     1       3.848   6.316  18.462  0.00  0.00    +0.000 N 
ATOM      4  C   UNL     1       3.209   6.305  19.801  0.00  0.00    +0.000 C 
ATOM      5  C   UNL     1       2.316   7.483  19.682  0.00  0.00    +0.000 A 
ATOM      6  C   UNL     1       1.389   8.182  20.484  0.00  0.00    +0.000 A 
ATOM      7  C   UNL     1       0.859   9.279  19.802  0.00  0.00    +0.000 A 
ATOM      8  S   UNL     1       1.534   9.414  18.202  0.00  0.00    +0.000 S 
ATOM      9  C   UNL     1       2.470   8.067  18.462  0.00  0.00    +0.000 A 
ATOM     10  C   UNL     1       3.444   7.396  17.666  0.00  0.00    +0.000 C 
ATOM     11  O   UNL     1       3.874   7.698  16.564  0.00  0.00    +0.000 OA
BRANCH   7  12
ATOM     12  C   UNL     1      -0.112  10.276  20.277  0.00  0.00    +0.000 A 
ATOM     13  C   UNL     1      -0.938  10.952  19.377  0.00  0.00    +0.000 A 
ATOM     14  N   UNL     1      -1.847  11.901  19.716  0.00  0.00    +0.000 NA
ATOM     15  C   UNL     1      -1.941  12.191  21.034  0.00  0.00    +0.000 A 
ATOM     16  C   UNL     1      -1.176  11.575  22.005  0.00  0.00    +0.000 A 
ATOM     17  F   UNL     1      -1.316  11.906  23.295  0.00  0.00    +0.000 F 
ATOM     18  C   UNL     1      -0.250  10.611  21.630  0.00  0.00    +0.000 A 
ENDBRANCH   7  12
ENDBRANCH   2   3
BRANCH   2  19
ATOM     19  C   UNL     1       4.434   4.204  17.137  0.00  0.00    +0.000 C 
BRANCH  19  20
ATOM     20  C   UNL     1       5.272   4.253  15.849  0.00  0.00    +0.000 A 
ATOM     21  C   UNL     1       4.683   3.940  14.605  0.00  0.00    +0.000 A 
ATOM     22  C   UNL     1       5.417   4.018  13.420  0.00  0.00    +0.000 A 
ATOM     23  C   UNL     1       6.746   4.415  13.460  0.00  0.00    +0.000 A 
ATOM     24  F   UNL     1       7.443   4.508  12.321  0.00  0.00    +0.000 F 
ATOM     25  C   UNL     1       7.359   4.727  14.663  0.00  0.00    +0.000 A 
ATOM     26  C   UNL     1       6.620   4.645  15.840  0.00  0.00    +0.000 A 
ATOM     27  F   UNL     1       7.233   4.987  16.981  0.00  0.00    +0.000 F 
ENDBRANCH  19  20
BRANCH  19  28
ATOM     28  O   UNL     1       3.073   4.569  16.762  0.00  0.00    +0.000 OA
ATOM     29  H   UNL     1       2.486   3.990  17.303  0.00  0.00    +0.000 HD
ENDBRANCH  19  28
BRANCH  19  30
ATOM     30  C   UNL     1       4.356   2.817  17.842  0.00  0.00    +0.000 C 
BRANCH  30  31
ATOM     31  N   UNL     1       3.088   2.572  18.515  0.00  0.00    +0.000 N 
ATOM     32  C   UNL     1       2.814   2.651  19.844  0.00  0.00    +0.000 A 
ATOM     33  N   UNL     1       1.558   2.318  20.050  0.00  0.00    +0.000 NA
ATOM     34  C   UNL     1       1.092   2.065  18.796  0.00  0.00    +0.000 A 
ATOM     35  N   UNL     1       1.978   2.242  17.813  0.00  0.00    +0.000 NA
ENDBRANCH  30  31
ENDBRANCH  19  30
ENDBRANCH   2  19
TORSDOF 7
ENDMDL
MODEL 8
REMARK VINA RESULT:      -8.0      2.699      4.339
REMARK  Name = 
REMARK  8 active torsions:
REMARK  status: ('A' for Active; 'I' for Inactive)
REMARK    1  A    between atoms: C_1  and  C_2
REMARK    2  A    between atoms: C_2  and  N_3
REMARK    3  A    between atoms: C_2  and  C_19
REMARK    4  A    between atoms: C_7  and  C_8
REMARK    5  A    between atoms: C_19  and  O_20
REMARK    6  A    between atoms: C_19  and  C_21
REMARK    7  A    between atoms: C_19  and  C_27
REMARK    8  A    between atoms: C_21  and  N_22
REMARK                            x       y       z     vdW  Elec       q    Type
REMARK                         _______ _______ _______ _____ _____    ______ ____
ROOT
ATOM      1  C   UNL     1       5.586   5.048  19.545  0.00  0.00    +0.000 C 
ATOM      2  C   UNL     1       4.886   5.465  18.243  0.00  0.00    +0.000 C 
ENDROOT
BRANCH   2   3
ATOM      3  N   UNL     1       3.804   6.432  18.506  0.00  0.00    +0.000 N 
ATOM      4  C   UNL     1       3.107   6.470  19.816  0.00  0.00    +0.000 C 
ATOM      5  C   UNL     1       2.213   7.635  19.611  0.00  0.00    +0.000 A 
ATOM      6  C   UNL     1       1.248   8.358  20.343  0.00  0.00    +0.000 A 
ATOM      7  C   UNL     1       0.741   9.422  19.595  0.00  0.00    +0.000 A 
ATOM      8  S   UNL     1       1.485   9.499  18.021  0.00  0.00    +0.000 S 
ATOM      9  C   UNL     1       2.417   8.170  18.376  0.00  0.00    +0.000 A 
ATOM     10  C   UNL     1       3.428   7.476  17.651  0.00  0.00    +0.000 C 
ATOM     11  O   UNL     1       3.904   7.737  16.557  0.00  0.00    +0.000 OA
BRANCH   7  12
ATOM     12  C   UNL     1      -0.255  10.430  19.987  0.00  0.00    +0.000 A 
ATOM     13  C   UNL     1      -0.236  10.991  21.266  0.00  0.00    +0.000 A 
ATOM     14  N   UNL     1      -1.123  11.909  21.727  0.00  0.00    +0.000 NA
ATOM     15  C   UNL     1      -2.086  12.295  20.859  0.00  0.00    +0.000 A 
ATOM     16  C   UNL     1      -2.188  11.807  19.571  0.00  0.00    +0.000 A 
ATOM     17  F   UNL     1      -3.165  12.230  18.758  0.00  0.00    +0.000 F 
ATOM     18  C   UNL     1      -1.271  10.864  19.126  0.00  0.00    +0.000 A 
ENDBRANCH   7  12
ENDBRANCH   2   3
BRANCH   2  19
ATOM     19  C   UNL     1       4.453   4.261  17.313  0.00  0.00    +0.000 C 
BRANCH  19  20
ATOM     20  C   UNL     1       5.283   4.296  16.019  0.00  0.00    +0.000 A 
ATOM     21  C   UNL     1       4.658   4.110  14.768  0.00  0.00    +0.000 A 
ATOM     22  C   UNL     1       5.387   4.179  13.580  0.00  0.00    +0.000 A 
ATOM     23  C   UNL     1       6.750   4.439  13.625  0.00  0.00    +0.000 A 
ATOM     24  F   UNL     1       7.445   4.524  12.483  0.00  0.00    +0.000 F 
ATOM     25  C   UNL     1       7.398   4.625  14.834  0.00  0.00    +0.000 A 
ATOM     26  C   UNL     1       6.664   4.553  16.015  0.00  0.00    +0.000 A 
ATOM     27  F   UNL     1       7.315   4.771  17.165  0.00  0.00    +0.000 F 
ENDBRANCH  19  20
BRANCH  19  28
ATOM     28  O   UNL     1       3.077   4.556  16.932  0.00  0.00    +0.000 OA
ATOM     29  H   UNL     1       2.613   4.782  17.773  0.00  0.00    +0.000 HD
ENDBRANCH  19  28
BRANCH  19  30
ATOM     30  C   UNL     1       4.435   2.899  18.070  0.00  0.00    +0.000 C 
BRANCH  30  31
ATOM     31  N   UNL     1       3.178   2.623  18.750  0.00  0.00    +0.000 N 
ATOM     32  C   UNL     1       2.890   2.760  20.071  0.00  0.00    +0.000 A 
ATOM     33  N   UNL     1       1.652   2.371  20.290  0.00  0.00    +0.000 NA
ATOM     34  C   UNL     1       1.210   2.025  19.050  0.00  0.00    +0.000 A 
ATOM     35  N   UNL     1       2.092   2.195  18.062  0.00  0.00    +0.000 NA
ENDBRANCH  30  31
ENDBRANCH  19  30
ENDBRANCH   2  19
TORSDOF 7
ENDMDL
MODEL 9
REMARK VINA RESULT:      -7.9      4.377      9.842
REMARK  Name = 
REMARK  8 active torsions:
REMARK  status: ('A' for Active; 'I' for Inactive)
REMARK    1  A    between atoms: C_1  and  C_2
REMARK    2  A    between atoms: C_2  and  N_3
REMARK    3  A    between atoms: C_2  and  C_19
REMARK    4  A    between atoms: C_7  and  C_8
REMARK    5  A    between atoms: C_19  and  O_20
REMARK    6  A    between atoms: C_19  and  C_21
REMARK    7  A    between atoms: C_19  and  C_27
REMARK    8  A    between atoms: C_21  and  N_22
REMARK                            x       y       z     vdW  Elec       q    Type
REMARK                         _______ _______ _______ _____ _____    ______ ____
ROOT
ATOM      1  C   UNL     1       1.629  12.292  19.450  0.00  0.00    +0.000 C 
ATOM      2  C   UNL     1       0.734  11.221  20.090  0.00  0.00    +0.000 C 
ENDROOT
BRANCH   2   3
ATOM      3  N   UNL     1       1.258   9.866  19.831  0.00  0.00    +0.000 N 
ATOM      4  C   UNL     1       1.239   8.820  20.883  0.00  0.00    +0.000 C 
ATOM      5  C   UNL     1       1.762   7.662  20.119  0.00  0.00    +0.000 A 
ATOM      6  C   UNL     1       2.041   6.297  20.344  0.00  0.00    +0.000 A 
ATOM      7  C   UNL     1       2.513   5.682  19.183  0.00  0.00    +0.000 A 
ATOM      8  S   UNL     1       2.581   6.807  17.855  0.00  0.00    +0.000 S 
ATOM      9  C   UNL     1       2.003   8.021  18.829  0.00  0.00    +0.000 A 
ATOM     10  C   UNL     1       1.674   9.386  18.583  0.00  0.00    +0.000 C 
ATOM     11  O   UNL     1       1.698  10.003  17.529  0.00  0.00    +0.000 OA
BRANCH   7  12
ATOM     12  C   UNL     1       2.894   4.277  18.977  0.00  0.00    +0.000 A 
ATOM     13  C   UNL     1       2.364   3.543  17.913  0.00  0.00    +0.000 A 
ATOM     14  N   UNL     1       2.638   2.240  17.654  0.00  0.00    +0.000 NA
ATOM     15  C   UNL     1       3.496   1.630  18.504  0.00  0.00    +0.000 A 
ATOM     16  C   UNL     1       4.080   2.267  19.581  0.00  0.00    +0.000 A 
ATOM     17  F   UNL     1       4.922   1.609  20.387  0.00  0.00    +0.000 F 
ATOM     18  C   UNL     1       3.778   3.600  19.827  0.00  0.00    +0.000 A 
ENDBRANCH   7  12
ENDBRANCH   2   3
BRANCH   2  19
ATOM     19  C   UNL     1      -0.808  11.378  19.778  0.00  0.00    +0.000 C 
BRANCH  19  20
ATOM     20  C   UNL     1      -1.488  12.116  20.944  0.00  0.00    +0.000 A 
ATOM     21  C   UNL     1      -2.158  13.337  20.718  0.00  0.00    +0.000 A 
ATOM     22  C   UNL     1      -2.816  14.002  21.755  0.00  0.00    +0.000 A 
ATOM     23  C   UNL     1      -2.817  13.453  23.030  0.00  0.00    +0.000 A 
ATOM     24  F   UNL     1      -3.464  14.081  24.019  0.00  0.00    +0.000 F 
ATOM     25  C   UNL     1      -2.167  12.258  23.290  0.00  0.00    +0.000 A 
ATOM     26  C   UNL     1      -1.513  11.602  22.250  0.00  0.00    +0.000 A 
ATOM     27  F   UNL     1      -0.924  10.432  22.528  0.00  0.00    +0.000 F 
ENDBRANCH  19  20
BRANCH  19  28
ATOM     28  O   UNL     1      -1.334  10.019  19.784  0.00  0.00    +0.000 OA
ATOM     29  H   UNL     1      -0.594   9.448  19.470  0.00  0.00    +0.000 HD
ENDBRANCH  19  28
BRANCH  19  30
ATOM     30  C   UNL     1      -1.074  11.964  18.360  0.00  0.00    +0.000 C 
BRANCH  30  31
ATOM     31  N   UNL     1      -2.148  11.293  17.641  0.00  0.00    +0.000 N 
ATOM     32  C   UNL     1      -2.047  10.349  16.668  0.00  0.00    +0.000 A 
ATOM     33  N   UNL     1      -3.251  10.025  16.250  0.00  0.00    +0.000 NA
ATOM     34  C   UNL     1      -4.069  10.789  17.025  0.00  0.00    +0.000 A 
ATOM     35  N   UNL     1      -3.447  11.558  17.922  0.00  0.00    +0.000 NA
ENDBRANCH  30  31
ENDBRANCH  19  30
ENDBRANCH   2  19
TORSDOF 7
ENDMDL
