MODEL 1
REMARK VINA RESULT:      -8.3      0.000      0.000
REMARK  Name = 
REMARK  2 active torsions:
REMARK  status: ('A' for Active; 'I' for Inactive)
REMARK    1  A    between atoms: S_1  and  C_2
REMARK    2  A    between atoms: C_9  and  C_10
REMARK                            x       y       z     vdW  Elec       q    Type
REMARK                         _______ _______ _______ _____ _____    ______ ____
ROOT
ATOM      1  C   UNL     1       2.905   3.741  19.616  0.00  0.00    +0.000 A 
ATOM      2  N   UNL     1       2.644   3.831  20.902  0.00  0.00    +0.000 NA
ATOM      3  N   UNL     1       2.361   5.158  21.151  0.00  0.00    +0.000 NA
ATOM      4  C   UNL     1       2.570   5.798  20.033  0.00  0.00    +0.000 A 
ATOM      5  C   UNL     1       2.208   7.131  19.620  0.00  0.00    +0.000 A 
ATOM      6  C   UNL     1       2.743   7.524  18.428  0.00  0.00    +0.000 A 
ATOM      7  N   UNL     1       3.574   6.793  17.619  0.00  0.00    +0.000 NA
ATOM      8  C   UNL     1       3.822   5.533  17.963  0.00  0.00    +0.000 A 
ATOM      9  N   UNL     1       3.203   4.995  19.113  0.00  0.00    +0.000 N 
ATOM     10  S   UNL     1       2.295   9.150  18.124  0.00  0.00    +0.000 S 
ATOM     11  C   UNL     1       1.289   9.218  19.545  0.00  0.00    +0.000 A 
ATOM     12  C   UNL     1       0.517  10.291  20.025  0.00  0.00    +0.000 A 
ATOM     13  C   UNL     1      -0.323  10.076  21.132  0.00  0.00    +0.000 A 
ATOM     14  C   UNL     1      -0.405   8.831  21.738  0.00  0.00    +0.000 A 
ATOM     15  C   UNL     1       0.410   7.794  21.304  0.00  0.00    +0.000 A 
ATOM     16  C   UNL     1       1.284   7.997  20.216  0.00  0.00    +0.000 A 
ENDROOT
BRANCH   8  17
ATOM     17  C   UNL     1       4.898   4.865  17.168  0.00  0.00    +0.000 A 
ATOM     18  C   UNL     1       4.606   4.526  15.833  0.00  0.00    +0.000 A 
ATOM     19  C   UNL     1       5.625   4.243  14.925  0.00  0.00    +0.000 A 
ATOM     20  C   UNL     1       6.956   4.293  15.336  0.00  0.00    +0.000 A 
ATOM     21  C   UNL     1       7.260   4.594  16.664  0.00  0.00    +0.000 A 
ATOM     22  C   UNL     1       6.243   4.888  17.578  0.00  0.00    +0.000 A 
ATOM     23 CL   UNL     1       6.767   5.405  19.139  0.00  0.00    +0.000 Cl
ENDBRANCH   8  17
BRANCH   1  24
ATOM     24  S   UNL     1       2.070   2.550  18.661  0.00  0.00    +0.000 S 
ATOM     25  H   UNL     1       3.162   1.756  18.570  0.00  0.00    +0.000 HD
ENDBRANCH   1  24
TORSDOF 2
ENDMDL
MODEL 2
REMARK VINA RESULT:      -7.1      4.998      7.258
REMARK  Name = 
REMARK  2 active torsions:
REMARK  status: ('A' for Active; 'I' for Inactive)
REMARK    1  A    between atoms: S_1  and  C_2
REMARK    2  A    between atoms: C_9  and  C_10
REMARK                            x       y       z     vdW  Elec       q    Type
REMARK                         _______ _______ _______ _____ _____    ______ ____
ROOT
ATOM      1  C   UNL     1      -1.606  11.056  18.695  0.00  0.00    +0.000 A 
ATOM      2  N   UNL     1      -2.390  11.909  19.319  0.00  0.00    +0.000 NA
ATOM      3  N   UNL     1      -1.636  13.044  19.537  0.00  0.00    +0.000 NA
ATOM      4  C   UNL     1      -0.426  12.770  19.132  0.00  0.00    +0.000 A 
ATOM      5  C   UNL     1       0.708  13.624  18.879  0.00  0.00    +0.000 A 
ATOM      6  C   UNL     1       1.873  12.964  18.622  0.00  0.00    +0.000 A 
ATOM      7  N   UNL     1       2.060  11.606  18.593  0.00  0.00    +0.000 NA
ATOM      8  C   UNL     1       0.990  10.831  18.732  0.00  0.00    +0.000 A 
ATOM      9  N   UNL     1      -0.284  11.428  18.869  0.00  0.00    +0.000 N 
ATOM     10  S   UNL     1       3.134  14.110  18.434  0.00  0.00    +0.000 S 
ATOM     11  C   UNL     1       2.035  15.455  18.574  0.00  0.00    +0.000 A 
ATOM     12  C   UNL     1       2.318  16.830  18.514  0.00  0.00    +0.000 A 
ATOM     13  C   UNL     1       1.247  17.741  18.525  0.00  0.00    +0.000 A 
ATOM     14  C   UNL     1      -0.068  17.301  18.581  0.00  0.00    +0.000 A 
ATOM     15  C   UNL     1      -0.339  15.944  18.710  0.00  0.00    +0.000 A 
ATOM     16  C   UNL     1       0.722  15.016  18.734  0.00  0.00    +0.000 A 
ENDROOT
BRANCH   8  17
ATOM     17  C   UNL     1       1.286   9.376  18.909  0.00  0.00    +0.000 A 
ATOM     18  C   UNL     1       1.944   8.713  17.856  0.00  0.00    +0.000 A 
ATOM     19  C   UNL     1       2.574   7.486  18.062  0.00  0.00    +0.000 A 
ATOM     20  C   UNL     1       2.556   6.901  19.326  0.00  0.00    +0.000 A 
ATOM     21  C   UNL     1       1.879   7.528  20.371  0.00  0.00    +0.000 A 
ATOM     22  C   UNL     1       1.253   8.763  20.174  0.00  0.00    +0.000 A 
ATOM     23 CL   UNL     1       0.599   9.505  21.588  0.00  0.00    +0.000 Cl
ENDBRANCH   8  17
BRANCH   1  24
ATOM     24  S   UNL     1      -2.159  10.312  17.223  0.00  0.00    +0.000 S 
ATOM     25  H   UNL     1      -1.456  11.168  16.445  0.00  0.00    +0.000 HD
ENDBRANCH   1  24
TORSDOF 2
ENDMDL
MODEL 3
REMARK VINA RESULT:      -7.1      2.958      4.657
REMARK  Name = 
REMARK  2 active torsions:
REMARK  status: ('A' for Active; 'I' for Inactive)
REMARK    1  A    between atoms: S_1  and  C_2
REMARK    2  A    between atoms: C_9  and  C_10
REMARK                            x       y       z     vdW  Elec       q    Type
REMARK                         _______ _______ _______ _____ _____    ______ ____
ROOT
ATOM      1  C   UNL     1       3.446   6.979  17.810  0.00  0.00    +0.000 A 
ATOM      2  N   UNL     1       3.154   7.783  16.810  0.00  0.00    +0.000 NA
ATOM      3  N   UNL     1       2.290   8.733  17.314  0.00  0.00    +0.000 NA
ATOM      4  C   UNL     1       2.033   8.385  18.546  0.00  0.00    +0.000 A 
ATOM      5  C   UNL     1       1.413   9.109  19.628  0.00  0.00    +0.000 A 
ATOM      6  C   UNL     1       1.157   8.364  20.740  0.00  0.00    +0.000 A 
ATOM      7  N   UNL     1       1.417   7.029  20.913  0.00  0.00    +0.000 NA
ATOM      8  C   UNL     1       2.076   6.396  19.947  0.00  0.00    +0.000 A 
ATOM      9  N   UNL     1       2.502   7.121  18.812  0.00  0.00    +0.000 N 
ATOM     10  S   UNL     1       0.344   9.339  21.891  0.00  0.00    +0.000 S 
ATOM     11  C   UNL     1       0.487  10.763  20.898  0.00  0.00    +0.000 A 
ATOM     12  C   UNL     1       0.040  12.069  21.165  0.00  0.00    +0.000 A 
ATOM     13  C   UNL     1       0.381  13.096  20.267  0.00  0.00    +0.000 A 
ATOM     14  C   UNL     1       1.154  12.839  19.144  0.00  0.00    +0.000 A 
ATOM     15  C   UNL     1       1.534  11.536  18.848  0.00  0.00    +0.000 A 
ATOM     16  C   UNL     1       1.175  10.486  19.718  0.00  0.00    +0.000 A 
ENDROOT
BRANCH   8  17
ATOM     17  C   UNL     1       2.136   4.909  20.097  0.00  0.00    +0.000 A 
ATOM     18  C   UNL     1       2.361   4.394  21.388  0.00  0.00    +0.000 A 
ATOM     19  C   UNL     1       2.079   3.062  21.689  0.00  0.00    +0.000 A 
ATOM     20  C   UNL     1       1.566   2.222  20.702  0.00  0.00    +0.000 A 
ATOM     21  C   UNL     1       1.370   2.708  19.410  0.00  0.00    +0.000 A 
ATOM     22  C   UNL     1       1.642   4.045  19.104  0.00  0.00    +0.000 A 
ATOM     23 CL   UNL     1       1.196   4.555  17.516  0.00  0.00    +0.000 Cl
ENDBRANCH   8  17
BRANCH   1  24
ATOM     24  S   UNL     1       5.115   6.641  18.169  0.00  0.00    +0.000 S 
ATOM     25  H   UNL     1       4.902   5.306  18.234  0.00  0.00    +0.000 HD
ENDBRANCH   1  24
TORSDOF 2
ENDMDL
MODEL 4
REMARK VINA RESULT:      -6.3      2.174      6.540
REMARK  Name = 
REMARK  2 active torsions:
REMARK  status: ('A' for Active; 'I' for Inactive)
REMARK    1  A    between atoms: S_1  and  C_2
REMARK    2  A    between atoms: C_9  and  C_10
REMARK                            x       y       z     vdW  Elec       q    Type
REMARK                         _______ _______ _______ _____ _____    ______ ____
ROOT
ATOM      1  C   UNL     1       1.515   4.612  19.539  0.00  0.00    +0.000 A 
ATOM      2  N   UNL     1       1.272   3.664  18.660  0.00  0.00    +0.000 NA
ATOM      3  N   UNL     1       2.130   3.883  17.603  0.00  0.00    +0.000 NA
ATOM      4  C   UNL     1       2.755   5.000  17.857  0.00  0.00    +0.000 A 
ATOM      5  C   UNL     1       3.925   5.592  17.256  0.00  0.00    +0.000 A 
ATOM      6  C   UNL     1       4.200   6.861  17.673  0.00  0.00    +0.000 A 
ATOM      7  N   UNL     1       3.483   7.604  18.575  0.00  0.00    +0.000 NA
ATOM      8  C   UNL     1       2.465   7.013  19.193  0.00  0.00    +0.000 A 
ATOM      9  N   UNL     1       2.187   5.654  18.924  0.00  0.00    +0.000 N 
ATOM     10  S   UNL     1       5.555   7.452  16.806  0.00  0.00    +0.000 S 
ATOM     11  C   UNL     1       5.800   5.927  15.999  0.00  0.00    +0.000 A 
ATOM     12  C   UNL     1       6.788   5.577  15.064  0.00  0.00    +0.000 A 
ATOM     13  C   UNL     1       6.870   4.240  14.637  0.00  0.00    +0.000 A 
ATOM     14  C   UNL     1       6.006   3.275  15.133  0.00  0.00    +0.000 A 
ATOM     15  C   UNL     1       4.987   3.639  16.004  0.00  0.00    +0.000 A 
ATOM     16  C   UNL     1       4.866   4.982  16.419  0.00  0.00    +0.000 A 
ENDROOT
BRANCH   8  17
ATOM     17  C   UNL     1       1.597   7.932  19.993  0.00  0.00    +0.000 A 
ATOM     18  C   UNL     1       1.682   7.850  21.395  0.00  0.00    +0.000 A 
ATOM     19  C   UNL     1       1.204   8.880  22.205  0.00  0.00    +0.000 A 
ATOM     20  C   UNL     1       0.631  10.010  21.625  0.00  0.00    +0.000 A 
ATOM     21  C   UNL     1       0.508  10.090  20.238  0.00  0.00    +0.000 A 
ATOM     22  C   UNL     1       0.994   9.065  19.419  0.00  0.00    +0.000 A 
ATOM     23 CL   UNL     1       0.929   9.369  17.722  0.00  0.00    +0.000 Cl
ENDBRANCH   8  17
BRANCH   1  24
ATOM     24  S   UNL     1       1.825   4.178  21.195  0.00  0.00    +0.000 S 
ATOM     25  H   UNL     1       0.536   3.829  21.417  0.00  0.00    +0.000 HD
ENDBRANCH   1  24
TORSDOF 2
ENDMDL
MODEL 5
REMARK VINA RESULT:      -6.3      8.060      9.975
REMARK  Name = 
REMARK  2 active torsions:
REMARK  status: ('A' for Active; 'I' for Inactive)
REMARK    1  A    between atoms: S_1  and  C_2
REMARK    2  A    between atoms: C_9  and  C_10
REMARK                            x       y       z     vdW  Elec       q    Type
REMARK                         _______ _______ _______ _____ _____    ______ ____
ROOT
ATOM      1  C   UNL     1      -6.006  11.965  20.150  0.00  0.00    +0.000 A 
ATOM      2  N   UNL     1      -6.506  11.830  21.359  0.00  0.00    +0.000 NA
ATOM      3  N   UNL     1      -5.610  12.427  22.221  0.00  0.00    +0.000 NA
ATOM      4  C   UNL     1      -4.584  12.788  21.500  0.00  0.00    +0.000 A 
ATOM      5  C   UNL     1      -3.476  13.662  21.793  0.00  0.00    +0.000 A 
ATOM      6  C   UNL     1      -2.493  13.676  20.848  0.00  0.00    +0.000 A 
ATOM      7  N   UNL     1      -2.460  12.948  19.686  0.00  0.00    +0.000 NA
ATOM      8  C   UNL     1      -3.530  12.221  19.381  0.00  0.00    +0.000 A 
ATOM      9  N   UNL     1      -4.654  12.251  20.236  0.00  0.00    +0.000 N 
ATOM     10  S   UNL     1      -1.217  14.686  21.384  0.00  0.00    +0.000 S 
ATOM     11  C   UNL     1      -2.096  15.171  22.808  0.00  0.00    +0.000 A 
ATOM     12  C   UNL     1      -1.700  16.054  23.827  0.00  0.00    +0.000 A 
ATOM     13  C   UNL     1      -2.632  16.398  24.822  0.00  0.00    +0.000 A 
ATOM     14  C   UNL     1      -3.923  15.890  24.801  0.00  0.00    +0.000 A 
ATOM     15  C   UNL     1      -4.288  14.964  23.832  0.00  0.00    +0.000 A 
ATOM     16  C   UNL     1      -3.358  14.581  22.843  0.00  0.00    +0.000 A 
ENDROOT
BRANCH   8  17
ATOM     17  C   UNL     1      -3.347  11.290  18.225  0.00  0.00    +0.000 A 
ATOM     18  C   UNL     1      -4.124  11.522  17.074  0.00  0.00    +0.000 A 
ATOM     19  C   UNL     1      -3.778  10.955  15.848  0.00  0.00    +0.000 A 
ATOM     20  C   UNL     1      -2.647  10.145  15.752  0.00  0.00    +0.000 A 
ATOM     21  C   UNL     1      -1.887   9.878  16.890  0.00  0.00    +0.000 A 
ATOM     22  C   UNL     1      -2.223  10.450  18.121  0.00  0.00    +0.000 A 
ATOM     23 CL   UNL     1      -1.105  10.173  19.406  0.00  0.00    +0.000 Cl
ENDBRANCH   8  17
BRANCH   1  24
ATOM     24  S   UNL     1      -7.000  12.632  18.888  0.00  0.00    +0.000 S 
ATOM     25  H   UNL     1      -7.920  13.099  19.764  0.00  0.00    +0.000 HD
ENDBRANCH   1  24
TORSDOF 2
ENDMDL
MODEL 6
REMARK VINA RESULT:      -6.2      5.026      9.617
REMARK  Name = 
REMARK  2 active torsions:
REMARK  status: ('A' for Active; 'I' for Inactive)
REMARK    1  A    between atoms: S_1  and  C_2
REMARK    2  A    between atoms: C_9  and  C_10
REMARK                            x       y       z     vdW  Elec       q    Type
REMARK                         _______ _______ _______ _____ _____    ______ ____
ROOT
ATOM      1  C   UNL     1      -2.217  12.607  19.353  0.00  0.00    +0.000 A 
ATOM      2  N   UNL     1      -1.473  12.771  18.280  0.00  0.00    +0.000 NA
ATOM      3  N   UNL     1      -0.392  11.926  18.421  0.00  0.00    +0.000 NA
ATOM      4  C   UNL     1      -0.493  11.389  19.606  0.00  0.00    +0.000 A 
ATOM      5  C   UNL     1       0.186  10.264  20.201  0.00  0.00    +0.000 A 
ATOM      6  C   UNL     1      -0.057  10.089  21.531  0.00  0.00    +0.000 A 
ATOM      7  N   UNL     1      -0.854  10.866  22.330  0.00  0.00    +0.000 NA
ATOM      8  C   UNL     1      -1.549  11.840  21.752  0.00  0.00    +0.000 A 
ATOM      9  N   UNL     1      -1.465  12.012  20.352  0.00  0.00    +0.000 N 
ATOM     10  S   UNL     1       0.886   8.777  22.103  0.00  0.00    +0.000 S 
ATOM     11  C   UNL     1       1.483   8.412  20.507  0.00  0.00    +0.000 A 
ATOM     12  C   UNL     1       2.368   7.393  20.112  0.00  0.00    +0.000 A 
ATOM     13  C   UNL     1       2.613   7.207  18.740  0.00  0.00    +0.000 A 
ATOM     14  C   UNL     1       1.989   7.999  17.786  0.00  0.00    +0.000 A 
ATOM     15  C   UNL     1       1.171   9.049  18.185  0.00  0.00    +0.000 A 
ATOM     16  C   UNL     1       0.938   9.274  19.557  0.00  0.00    +0.000 A 
ENDROOT
BRANCH   8  17
ATOM     17  C   UNL     1      -2.223  12.781  22.699  0.00  0.00    +0.000 A 
ATOM     18  C   UNL     1      -3.379  12.323  23.359  0.00  0.00    +0.000 A 
ATOM     19  C   UNL     1      -3.857  12.965  24.500  0.00  0.00    +0.000 A 
ATOM     20  C   UNL     1      -3.186  14.079  25.002  0.00  0.00    +0.000 A 
ATOM     21  C   UNL     1      -2.059  14.566  24.340  0.00  0.00    +0.000 A 
ATOM     22  C   UNL     1      -1.569  13.921  23.200  0.00  0.00    +0.000 A 
ATOM     23 CL   UNL     1      -0.076  14.526  22.581  0.00  0.00    +0.000 Cl
ENDBRANCH   8  17
BRANCH   1  24
ATOM     24  S   UNL     1      -3.915  12.276  19.168  0.00  0.00    +0.000 S 
ATOM     25  H   UNL     1      -3.687  11.121  18.500  0.00  0.00    +0.000 HD
ENDBRANCH   1  24
TORSDOF 2
ENDMDL
MODEL 7
REMARK VINA RESULT:      -6.1      7.459     10.523
REMARK  Name = 
REMARK  2 active torsions:
REMARK  status: ('A' for Active; 'I' for Inactive)
REMARK    1  A    between atoms: S_1  and  C_2
REMARK    2  A    between atoms: C_9  and  C_10
REMARK                            x       y       z     vdW  Elec       q    Type
REMARK                         _______ _______ _______ _____ _____    ______ ____
ROOT
ATOM      1  C   UNL     1      -3.822  12.446  21.697  0.00  0.00    +0.000 A 
ATOM      2  N   UNL     1      -5.026  12.619  22.199  0.00  0.00    +0.000 NA
ATOM      3  N   UNL     1      -4.904  13.576  23.184  0.00  0.00    +0.000 NA
ATOM      4  C   UNL     1      -3.630  13.841  23.289  0.00  0.00    +0.000 A 
ATOM      5  C   UNL     1      -2.935  14.915  23.954  0.00  0.00    +0.000 A 
ATOM      6  C   UNL     1      -1.579  14.779  23.993  0.00  0.00    +0.000 A 
ATOM      7  N   UNL     1      -0.842  13.741  23.483  0.00  0.00    +0.000 NA
ATOM      8  C   UNL     1      -1.485  12.808  22.789  0.00  0.00    +0.000 A 
ATOM      9  N   UNL     1      -2.876  12.937  22.580  0.00  0.00    +0.000 N 
ATOM     10  S   UNL     1      -0.912  16.079  24.889  0.00  0.00    +0.000 S 
ATOM     11  C   UNL     1      -2.465  16.846  25.075  0.00  0.00    +0.000 A 
ATOM     12  C   UNL     1      -2.778  18.049  25.733  0.00  0.00    +0.000 A 
ATOM     13  C   UNL     1      -4.091  18.543  25.647  0.00  0.00    +0.000 A 
ATOM     14  C   UNL     1      -5.064  17.872  24.920  0.00  0.00    +0.000 A 
ATOM     15  C   UNL     1      -4.767  16.650  24.330  0.00  0.00    +0.000 A 
ATOM     16  C   UNL     1      -3.465  16.119  24.432  0.00  0.00    +0.000 A 
ENDROOT
BRANCH   8  17
ATOM     17  C   UNL     1      -0.667  11.602  22.449  0.00  0.00    +0.000 A 
ATOM     18  C   UNL     1      -0.901  10.428  23.188  0.00  0.00    +0.000 A 
ATOM     19  C   UNL     1      -0.468   9.187  22.722  0.00  0.00    +0.000 A 
ATOM     20  C   UNL     1       0.209   9.101  21.507  0.00  0.00    +0.000 A 
ATOM     21  C   UNL     1       0.479  10.259  20.780  0.00  0.00    +0.000 A 
ATOM     22  C   UNL     1       0.039  11.506  21.237  0.00  0.00    +0.000 A 
ATOM     23 CL   UNL     1       0.292  12.830  20.160  0.00  0.00    +0.000 Cl
ENDBRANCH   8  17
BRANCH   1  24
ATOM     24  S   UNL     1      -3.598  12.539  19.974  0.00  0.00    +0.000 S 
ATOM     25  H   UNL     1      -4.865  12.140  19.718  0.00  0.00    +0.000 HD
ENDBRANCH   1  24
TORSDOF 2
ENDMDL
MODEL 8
REMARK VINA RESULT:      -6.0      7.308     10.276
REMARK  Name = 
REMARK  2 active torsions:
REMARK  status: ('A' for Active; 'I' for Inactive)
REMARK    1  A    between atoms: S_1  and  C_2
REMARK    2  A    between atoms: C_9  and  C_10
REMARK                            x       y       z     vdW  Elec       q    Type
REMARK                         _______ _______ _______ _____ _____    ______ ____
ROOT
ATOM      1  C   UNL     1      -0.831  10.494  21.389  0.00  0.00    +0.000 A 
ATOM      2  N   UNL     1      -0.245   9.959  20.340  0.00  0.00    +0.000 NA
ATOM      3  N   UNL     1       0.205  11.009  19.567  0.00  0.00    +0.000 NA
ATOM      4  C   UNL     1      -0.226  12.101  20.136  0.00  0.00    +0.000 A 
ATOM      5  C   UNL     1       0.131  13.484  19.934  0.00  0.00    +0.000 A 
ATOM      6  C   UNL     1      -0.653  14.379  20.599  0.00  0.00    +0.000 A 
ATOM      7  N   UNL     1      -1.723  14.094  21.408  0.00  0.00    +0.000 NA
ATOM      8  C   UNL     1      -1.982  12.815  21.663  0.00  0.00    +0.000 A 
ATOM      9  N   UNL     1      -1.138  11.818  21.125  0.00  0.00    +0.000 N 
ATOM     10  S   UNL     1      -0.160  15.968  20.186  0.00  0.00    +0.000 S 
ATOM     11  C   UNL     1       1.177  15.387  19.232  0.00  0.00    +0.000 A 
ATOM     12  C   UNL     1       2.134  16.128  18.517  0.00  0.00    +0.000 A 
ATOM     13  C   UNL     1       3.207  15.444  17.918  0.00  0.00    +0.000 A 
ATOM     14  C   UNL     1       3.334  14.068  18.034  0.00  0.00    +0.000 A 
ATOM     15  C   UNL     1       2.349  13.333  18.682  0.00  0.00    +0.000 A 
ATOM     16  C   UNL     1       1.248  13.995  19.262  0.00  0.00    +0.000 A 
ENDROOT
BRANCH   8  17
ATOM     17  C   UNL     1      -3.278  12.565  22.365  0.00  0.00    +0.000 A 
ATOM     18  C   UNL     1      -3.248  12.458  23.769  0.00  0.00    +0.000 A 
ATOM     19  C   UNL     1      -4.412  12.588  24.524  0.00  0.00    +0.000 A 
ATOM     20  C   UNL     1      -5.629  12.826  23.888  0.00  0.00    +0.000 A 
ATOM     21  C   UNL     1      -5.681  12.900  22.497  0.00  0.00    +0.000 A 
ATOM     22  C   UNL     1      -4.516  12.780  21.733  0.00  0.00    +0.000 A 
ATOM     23 CL   UNL     1      -4.698  13.058  20.040  0.00  0.00    +0.000 Cl
ENDBRANCH   8  17
BRANCH   1  24
ATOM     24  S   UNL     1      -0.372   9.964  22.982  0.00  0.00    +0.000 S 
ATOM     25  H   UNL     1       0.949  10.092  22.719  0.00  0.00    +0.000 HD
ENDBRANCH   1  24
TORSDOF 2
ENDMDL
MODEL 9
REMARK VINA RESULT:      -5.9      9.150     11.418
REMARK  Name = 
REMARK  2 active torsions:
REMARK  status: ('A' for Active; 'I' for Inactive)
REMARK    1  A    between atoms: S_1  and  C_2
REMARK    2  A    between atoms: C_9  and  C_10
REMARK                            x       y       z     vdW  Elec       q    Type
REMARK                         _______ _______ _______ _____ _____    ______ ____
ROOT
ATOM      1  C   UNL     1       6.859  15.433  21.747  0.00  0.00    +0.000 A 
ATOM      2  N   UNL     1       7.509  16.462  21.247  0.00  0.00    +0.000 NA
ATOM      3  N   UNL     1       8.617  15.949  20.605  0.00  0.00    +0.000 NA
ATOM      4  C   UNL     1       8.626  14.667  20.846  0.00  0.00    +0.000 A 
ATOM      5  C   UNL     1       9.377  13.592  20.246  0.00  0.00    +0.000 A 
ATOM      6  C   UNL     1       9.248  12.387  20.871  0.00  0.00    +0.000 A 
ATOM      7  N   UNL     1       8.500  12.116  21.988  0.00  0.00    +0.000 NA
ATOM      8  C   UNL     1       7.737  13.090  22.474  0.00  0.00    +0.000 A 
ATOM      9  N   UNL     1       7.703  14.338  21.811  0.00  0.00    +0.000 N 
ATOM     10  S   UNL     1      10.265  11.245  20.098  0.00  0.00    +0.000 S 
ATOM     11  C   UNL     1      10.738  12.386  18.869  0.00  0.00    +0.000 A 
ATOM     12  C   UNL     1      11.611  12.196  17.784  0.00  0.00    +0.000 A 
ATOM     13  C   UNL     1      11.748  13.228  16.838  0.00  0.00    +0.000 A 
ATOM     14  C   UNL     1      11.031  14.410  16.959  0.00  0.00    +0.000 A 
ATOM     15  C   UNL     1      10.223  14.619  18.069  0.00  0.00    +0.000 A 
ATOM     16  C   UNL     1      10.097  13.610  19.046  0.00  0.00    +0.000 A 
ENDROOT
BRANCH   8  17
ATOM     17  C   UNL     1       7.121  12.802  23.806  0.00  0.00    +0.000 A 
ATOM     18  C   UNL     1       6.226  11.719  23.887  0.00  0.00    +0.000 A 
ATOM     19  C   UNL     1       5.890  11.155  25.118  0.00  0.00    +0.000 A 
ATOM     20  C   UNL     1       6.445  11.667  26.289  0.00  0.00    +0.000 A 
ATOM     21  C   UNL     1       7.307  12.761  26.228  0.00  0.00    +0.000 A 
ATOM     22  C   UNL     1       7.655  13.325  24.997  0.00  0.00    +0.000 A 
ATOM     23 CL   UNL     1       8.858  14.562  25.053  0.00  0.00    +0.000 Cl
ENDBRANCH   8  17
BRANCH   1  24
ATOM     24  S   UNL     1       5.160  15.258  21.416  0.00  0.00    +0.000 S 
ATOM     25  H   UNL     1       4.821  16.252  22.269  0.00  0.00    +0.000 HD
ENDBRANCH   1  24
TORSDOF 2
ENDMDL
