MODEL 1
REMARK VINA RESULT:      -6.5      0.000      0.000
REMARK  Name = 
REMARK  4 active torsions:
REMARK  status: ('A' for Active; 'I' for Inactive)
REMARK    1  A    between atoms: C_1  and  C_2
REMARK    2  A    between atoms: C_2  and  C_3
REMARK    3  A    between atoms: C_2  and  C_4
REMARK    4  A    between atoms: C_2  and  C_12
REMARK                            x       y       z     vdW  Elec       q    Type
REMARK                         _______ _______ _______ _____ _____    ______ ____
ROOT
ATOM      1  C   UNL     1       3.537   3.850  19.152  0.00  0.00    +0.000 C 
ATOM      2  O   UNL     1       4.139   3.048  19.861  0.00  0.00    +0.000 OA
ATOM      3  N   UNL     1       4.112   4.918  18.485  0.00  0.00    +0.000 N 
ATOM      4  C   UNL     1       5.466   5.158  18.555  0.00  0.00    +0.000 A 
ATOM      5  N   UNL     1       6.401   4.516  19.216  0.00  0.00    +0.000 NA
ATOM      6  N   UNL     1       7.610   5.126  18.968  0.00  0.00    +0.000 NA
ATOM      7  C   UNL     1       7.383   6.133  18.162  0.00  0.00    +0.000 A 
ATOM      8  N   UNL     1       6.054   6.191  17.874  0.00  0.00    +0.000 N 
ATOM      9  H   UNL     1       3.545   5.497  17.878  0.00  0.00    +0.000 HD
ATOM     10  H   UNL     1       5.600   6.863  17.278  0.00  0.00    +0.000 HD
ENDROOT
BRANCH   1  12
ATOM     11  C   UNL     1       1.262   4.146  20.194  0.00  0.00    +0.000 C 
ATOM     12  C   UNL     1       2.025   3.700  18.932  0.00  0.00    +0.000 C 
ATOM     13  C   UNL     1       1.560   4.559  17.748  0.00  0.00    +0.000 C 
BRANCH  12  14
ATOM     14  C   UNL     1       1.743   2.223  18.688  0.00  0.00    +0.000 C 
ATOM     15  F   UNL     1       0.406   2.015  18.564  0.00  0.00    +0.000 F 
ATOM     16  F   UNL     1       2.289   1.843  17.497  0.00  0.00    +0.000 F 
ENDBRANCH  12  14
ENDBRANCH   1  12
TORSDOF 2
ENDMDL
MODEL 2
REMARK VINA RESULT:      -6.5      1.298      1.814
REMARK  Name = 
REMARK  4 active torsions:
REMARK  status: ('A' for Active; 'I' for Inactive)
REMARK    1  A    between atoms: C_1  and  C_2
REMARK    2  A    between atoms: C_2  and  C_3
REMARK    3  A    between atoms: C_2  and  C_4
REMARK    4  A    between atoms: C_2  and  C_12
REMARK                            x       y       z     vdW  Elec       q    Type
REMARK                         _______ _______ _______ _____ _____    ______ ____
ROOT
ATOM      1  C   UNL     1       3.441   4.091  19.014  0.00  0.00    +0.000 C 
ATOM      2  O   UNL     1       3.579   4.605  20.121  0.00  0.00    +0.000 OA
ATOM      3  N   UNL     1       4.441   3.950  18.067  0.00  0.00    +0.000 N 
ATOM      4  C   UNL     1       5.725   4.376  18.316  0.00  0.00    +0.000 A 
ATOM      5  N   UNL     1       6.225   4.969  19.376  0.00  0.00    +0.000 NA
ATOM      6  N   UNL     1       7.565   5.195  19.161  0.00  0.00    +0.000 NA
ATOM      7  C   UNL     1       7.854   4.738  17.968  0.00  0.00    +0.000 A 
ATOM      8  N   UNL     1       6.733   4.213  17.401  0.00  0.00    +0.000 N 
ATOM      9  H   UNL     1       4.248   3.462  17.201  0.00  0.00    +0.000 HD
ATOM     10  H   UNL     1       6.664   3.791  16.490  0.00  0.00    +0.000 HD
ENDROOT
BRANCH   1  12
ATOM     11  C   UNL     1       1.365   4.508  17.648  0.00  0.00    +0.000 C 
ATOM     12  C   UNL     1       2.078   3.522  18.593  0.00  0.00    +0.000 C 
ATOM     13  C   UNL     1       2.250   2.182  17.865  0.00  0.00    +0.000 C 
BRANCH  12  14
ATOM     14  C   UNL     1       1.241   3.362  19.855  0.00  0.00    +0.000 C 
ATOM     15  F   UNL     1       0.653   4.543  20.180  0.00  0.00    +0.000 F 
ATOM     16  F   UNL     1       0.218   2.492  19.620  0.00  0.00    +0.000 F 
ENDBRANCH  12  14
ENDBRANCH   1  12
TORSDOF 2
ENDMDL
MODEL 3
REMARK VINA RESULT:      -6.4      1.363      1.889
REMARK  Name = 
REMARK  4 active torsions:
REMARK  status: ('A' for Active; 'I' for Inactive)
REMARK    1  A    between atoms: C_1  and  C_2
REMARK    2  A    between atoms: C_2  and  C_3
REMARK    3  A    between atoms: C_2  and  C_4
REMARK    4  A    between atoms: C_2  and  C_12
REMARK                            x       y       z     vdW  Elec       q    Type
REMARK                         _______ _______ _______ _____ _____    ______ ____
ROOT
ATOM      1  C   UNL     1       3.426   3.807  19.224  0.00  0.00    +0.000 C 
ATOM      2  O   UNL     1       4.028   3.012  19.941  0.00  0.00    +0.000 OA
ATOM      3  N   UNL     1       4.002   4.870  18.549  0.00  0.00    +0.000 N 
ATOM      4  C   UNL     1       5.355   5.111  18.619  0.00  0.00    +0.000 A 
ATOM      5  N   UNL     1       6.290   4.476  19.286  0.00  0.00    +0.000 NA
ATOM      6  N   UNL     1       7.499   5.084  19.035  0.00  0.00    +0.000 NA
ATOM      7  C   UNL     1       7.272   6.084  18.220  0.00  0.00    +0.000 A 
ATOM      8  N   UNL     1       5.943   6.139  17.930  0.00  0.00    +0.000 N 
ATOM      9  H   UNL     1       3.435   5.443  17.936  0.00  0.00    +0.000 HD
ATOM     10  H   UNL     1       5.489   6.806  17.327  0.00  0.00    +0.000 HD
ENDROOT
BRANCH   1  12
ATOM     11  C   UNL     1       1.481   4.442  17.753  0.00  0.00    +0.000 C 
ATOM     12  C   UNL     1       1.914   3.654  19.004  0.00  0.00    +0.000 C 
ATOM     13  C   UNL     1       1.542   2.178  18.807  0.00  0.00    +0.000 C 
BRANCH  12  14
ATOM     14  C   UNL     1       1.213   4.244  20.220  0.00  0.00    +0.000 C 
ATOM     15  F   UNL     1       0.898   3.260  21.103  0.00  0.00    +0.000 F 
ATOM     16  F   UNL     1       2.066   5.077  20.882  0.00  0.00    +0.000 F 
ENDBRANCH  12  14
ENDBRANCH   1  12
TORSDOF 2
ENDMDL
MODEL 4
REMARK VINA RESULT:      -6.3      1.708      2.119
REMARK  Name = 
REMARK  4 active torsions:
REMARK  status: ('A' for Active; 'I' for Inactive)
REMARK    1  A    between atoms: C_1  and  C_2
REMARK    2  A    between atoms: C_2  and  C_3
REMARK    3  A    between atoms: C_2  and  C_4
REMARK    4  A    between atoms: C_2  and  C_12
REMARK                            x       y       z     vdW  Elec       q    Type
REMARK                         _______ _______ _______ _____ _____    ______ ____
ROOT
ATOM      1  C   UNL     1       3.815   3.418  19.677  0.00  0.00    +0.000 C 
ATOM      2  O   UNL     1       4.651   2.586  20.018  0.00  0.00    +0.000 OA
ATOM      3  N   UNL     1       4.085   4.595  19.002  0.00  0.00    +0.000 N 
ATOM      4  C   UNL     1       5.368   4.926  18.629  0.00  0.00    +0.000 A 
ATOM      5  N   UNL     1       6.495   4.283  18.831  0.00  0.00    +0.000 NA
ATOM      6  N   UNL     1       7.520   5.006  18.263  0.00  0.00    +0.000 NA
ATOM      7  C   UNL     1       6.993   6.079  17.729  0.00  0.00    +0.000 A 
ATOM      8  N   UNL     1       5.647   6.072  17.931  0.00  0.00    +0.000 N 
ATOM      9  H   UNL     1       3.323   5.196  18.712  0.00  0.00    +0.000 HD
ATOM     10  H   UNL     1       4.992   6.772  17.625  0.00  0.00    +0.000 HD
ENDROOT
BRANCH   1  12
ATOM     11  C   UNL     1       1.519   4.458  19.676  0.00  0.00    +0.000 C 
ATOM     12  C   UNL     1       2.327   3.181  19.978  0.00  0.00    +0.000 C 
ATOM     13  C   UNL     1       1.775   2.036  19.117  0.00  0.00    +0.000 C 
BRANCH  12  14
ATOM     14  C   UNL     1       2.206   2.866  21.462  0.00  0.00    +0.000 C 
ATOM     15  F   UNL     1       2.443   3.982  22.200  0.00  0.00    +0.000 F 
ATOM     16  F   UNL     1       0.925   2.497  21.750  0.00  0.00    +0.000 F 
ENDBRANCH  12  14
ENDBRANCH   1  12
TORSDOF 2
ENDMDL
MODEL 5
REMARK VINA RESULT:      -6.3      1.437      1.905
REMARK  Name = 
REMARK  4 active torsions:
REMARK  status: ('A' for Active; 'I' for Inactive)
REMARK    1  A    between atoms: C_1  and  C_2
REMARK    2  A    between atoms: C_2  and  C_3
REMARK    3  A    between atoms: C_2  and  C_4
REMARK    4  A    between atoms: C_2  and  C_12
REMARK                            x       y       z     vdW  Elec       q    Type
REMARK                         _______ _______ _______ _____ _____    ______ ____
ROOT
ATOM      1  C   UNL     1       3.365   4.222  19.401  0.00  0.00    +0.000 C 
ATOM      2  O   UNL     1       3.453   4.998  20.349  0.00  0.00    +0.000 OA
ATOM      3  N   UNL     1       4.396   3.893  18.538  0.00  0.00    +0.000 N 
ATOM      4  C   UNL     1       5.657   4.420  18.697  0.00  0.00    +0.000 A 
ATOM      5  N   UNL     1       6.105   5.276  19.588  0.00  0.00    +0.000 NA
ATOM      6  N   UNL     1       7.442   5.497  19.349  0.00  0.00    +0.000 NA
ATOM      7  C   UNL     1       7.780   4.772  18.312  0.00  0.00    +0.000 A 
ATOM      8  N   UNL     1       6.695   4.079  17.871  0.00  0.00    +0.000 N 
ATOM      9  H   UNL     1       4.245   3.200  17.815  0.00  0.00    +0.000 HD
ATOM     10  H   UNL     1       6.667   3.442  17.092  0.00  0.00    +0.000 HD
ENDROOT
BRANCH   1  12
ATOM     11  C   UNL     1       2.274   2.000  18.926  0.00  0.00    +0.000 C 
ATOM     12  C   UNL     1       2.036   3.511  19.108  0.00  0.00    +0.000 C 
ATOM     13  C   UNL     1       1.045   3.715  20.263  0.00  0.00    +0.000 C 
BRANCH  12  14
ATOM     14  C   UNL     1       1.491   4.081  17.805  0.00  0.00    +0.000 C 
ATOM     15  F   UNL     1       1.786   5.403  17.712  0.00  0.00    +0.000 F 
ATOM     16  F   UNL     1       2.114   3.486  16.748  0.00  0.00    +0.000 F 
ENDBRANCH  12  14
ENDBRANCH   1  12
TORSDOF 2
ENDMDL
MODEL 6
REMARK VINA RESULT:      -6.3      1.171      1.230
REMARK  Name = 
REMARK  4 active torsions:
REMARK  status: ('A' for Active; 'I' for Inactive)
REMARK    1  A    between atoms: C_1  and  C_2
REMARK    2  A    between atoms: C_2  and  C_3
REMARK    3  A    between atoms: C_2  and  C_4
REMARK    4  A    between atoms: C_2  and  C_12
REMARK                            x       y       z     vdW  Elec       q    Type
REMARK                         _______ _______ _______ _____ _____    ______ ____
ROOT
ATOM      1  C   UNL     1       3.409   4.411  19.281  0.00  0.00    +0.000 C 
ATOM      2  O   UNL     1       3.698   5.075  20.273  0.00  0.00    +0.000 OA
ATOM      3  N   UNL     1       4.287   4.059  18.270  0.00  0.00    +0.000 N 
ATOM      4  C   UNL     1       5.612   4.426  18.315  0.00  0.00    +0.000 A 
ATOM      5  N   UNL     1       6.259   5.134  19.212  0.00  0.00    +0.000 NA
ATOM      6  N   UNL     1       7.577   5.229  18.828  0.00  0.00    +0.000 NA
ATOM      7  C   UNL     1       7.704   4.579  17.698  0.00  0.00    +0.000 A 
ATOM      8  N   UNL     1       6.500   4.056  17.339  0.00  0.00    +0.000 N 
ATOM      9  H   UNL     1       3.971   3.462  17.516  0.00  0.00    +0.000 HD
ATOM     10  H   UNL     1       6.306   3.507  16.518  0.00  0.00    +0.000 HD
ENDROOT
BRANCH   1  12
ATOM     11  C   UNL     1       1.066   4.437  20.209  0.00  0.00    +0.000 C 
ATOM     12  C   UNL     1       1.978   3.884  19.097  0.00  0.00    +0.000 C 
ATOM     13  C   UNL     1       1.411   4.316  17.737  0.00  0.00    +0.000 C 
BRANCH  12  14
ATOM     14  C   UNL     1       2.031   2.367  19.218  0.00  0.00    +0.000 C 
ATOM     15  F   UNL     1       1.475   1.971  20.393  0.00  0.00    +0.000 F 
ATOM     16  F   UNL     1       1.270   1.802  18.238  0.00  0.00    +0.000 F 
ENDBRANCH  12  14
ENDBRANCH   1  12
TORSDOF 2
ENDMDL
MODEL 7
REMARK VINA RESULT:      -6.3      1.192      1.430
REMARK  Name = 
REMARK  4 active torsions:
REMARK  status: ('A' for Active; 'I' for Inactive)
REMARK    1  A    between atoms: C_1  and  C_2
REMARK    2  A    between atoms: C_2  and  C_3
REMARK    3  A    between atoms: C_2  and  C_4
REMARK    4  A    between atoms: C_2  and  C_12
REMARK                            x       y       z     vdW  Elec       q    Type
REMARK                         _______ _______ _______ _____ _____    ______ ____
ROOT
ATOM      1  C   UNL     1       3.992   3.844  19.599  0.00  0.00    +0.000 C 
ATOM      2  O   UNL     1       4.731   2.879  19.776  0.00  0.00    +0.000 OA
ATOM      3  N   UNL     1       4.339   5.007  18.934  0.00  0.00    +0.000 N 
ATOM      4  C   UNL     1       5.588   5.168  18.381  0.00  0.00    +0.000 A 
ATOM      5  N   UNL     1       6.620   4.356  18.383  0.00  0.00    +0.000 NA
ATOM      6  N   UNL     1       7.649   4.953  17.691  0.00  0.00    +0.000 NA
ATOM      7  C   UNL     1       7.222   6.122  17.285  0.00  0.00    +0.000 A 
ATOM      8  N   UNL     1       5.935   6.300  17.691  0.00  0.00    +0.000 N 
ATOM      9  H   UNL     1       3.644   5.729  18.789  0.00  0.00    +0.000 HD
ATOM     10  H   UNL     1       5.357   7.106  17.517  0.00  0.00    +0.000 HD
ENDROOT
BRANCH   1  12
ATOM     11  C   UNL     1       2.448   2.887  21.346  0.00  0.00    +0.000 C 
ATOM     12  C   UNL     1       2.546   3.810  20.116  0.00  0.00    +0.000 C 
ATOM     13  C   UNL     1       2.082   5.217  20.520  0.00  0.00    +0.000 C 
BRANCH  12  14
ATOM     14  C   UNL     1       1.676   3.238  19.005  0.00  0.00    +0.000 C 
ATOM     15  F   UNL     1       0.549   2.688  19.529  0.00  0.00    +0.000 F 
ATOM     16  F   UNL     1       1.252   4.245  18.190  0.00  0.00    +0.000 F 
ENDBRANCH  12  14
ENDBRANCH   1  12
TORSDOF 2
ENDMDL
MODEL 8
REMARK VINA RESULT:      -6.3      2.186      2.634
REMARK  Name = 
REMARK  4 active torsions:
REMARK  status: ('A' for Active; 'I' for Inactive)
REMARK    1  A    between atoms: C_1  and  C_2
REMARK    2  A    between atoms: C_2  and  C_3
REMARK    3  A    between atoms: C_2  and  C_4
REMARK    4  A    between atoms: C_2  and  C_12
REMARK                            x       y       z     vdW  Elec       q    Type
REMARK                         _______ _______ _______ _____ _____    ______ ____
ROOT
ATOM      1  C   UNL     1       4.283   3.691  18.459  0.00  0.00    +0.000 C 
ATOM      2  O   UNL     1       5.221   3.768  19.249  0.00  0.00    +0.000 OA
ATOM      3  N   UNL     1       4.360   3.938  17.099  0.00  0.00    +0.000 N 
ATOM      4  C   UNL     1       5.551   4.284  16.502  0.00  0.00    +0.000 A 
ATOM      5  N   UNL     1       6.738   4.462  17.034  0.00  0.00    +0.000 NA
ATOM      6  N   UNL     1       7.622   4.793  16.032  0.00  0.00    +0.000 NA
ATOM      7  C   UNL     1       6.951   4.814  14.908  0.00  0.00    +0.000 A 
ATOM      8  N   UNL     1       5.649   4.499  15.152  0.00  0.00    +0.000 N 
ATOM      9  H   UNL     1       3.545   3.797  16.515  0.00  0.00    +0.000 HD
ATOM     10  H   UNL     1       4.910   4.438  14.472  0.00  0.00    +0.000 HD
ENDROOT
BRANCH   1  12
ATOM     11  C   UNL     1       2.318   2.168  18.048  0.00  0.00    +0.000 C 
ATOM     12  C   UNL     1       2.891   3.274  18.955  0.00  0.00    +0.000 C 
ATOM     13  C   UNL     1       2.964   2.741  20.393  0.00  0.00    +0.000 C 
BRANCH  12  14
ATOM     14  C   UNL     1       1.988   4.497  18.863  0.00  0.00    +0.000 C 
ATOM     15  F   UNL     1       1.239   4.443  17.731  0.00  0.00    +0.000 F 
ATOM     16  F   UNL     1       1.098   4.488  19.896  0.00  0.00    +0.000 F 
ENDBRANCH  12  14
ENDBRANCH   1  12
TORSDOF 2
ENDMDL
MODEL 9
REMARK VINA RESULT:      -6.3      1.430      2.067
REMARK  Name = 
REMARK  4 active torsions:
REMARK  status: ('A' for Active; 'I' for Inactive)
REMARK    1  A    between atoms: C_1  and  C_2
REMARK    2  A    between atoms: C_2  and  C_3
REMARK    3  A    between atoms: C_2  and  C_4
REMARK    4  A    between atoms: C_2  and  C_12
REMARK                            x       y       z     vdW  Elec       q    Type
REMARK                         _______ _______ _______ _____ _____    ______ ____
ROOT
ATOM      1  C   UNL     1       4.082   3.471  19.506  0.00  0.00    +0.000 C 
ATOM      2  O   UNL     1       4.955   2.684  19.862  0.00  0.00    +0.000 OA
ATOM      3  N   UNL     1       4.290   4.611  18.749  0.00  0.00    +0.000 N 
ATOM      4  C   UNL     1       5.547   4.950  18.302  0.00  0.00    +0.000 A 
ATOM      5  N   UNL     1       6.699   4.351  18.495  0.00  0.00    +0.000 NA
ATOM      6  N   UNL     1       7.679   5.063  17.840  0.00  0.00    +0.000 NA
ATOM      7  C   UNL     1       7.100   6.087  17.265  0.00  0.00    +0.000 A 
ATOM      8  N   UNL     1       5.764   6.057  17.524  0.00  0.00    +0.000 N 
ATOM      9  H   UNL     1       3.500   5.172  18.457  0.00  0.00    +0.000 HD
ATOM     10  H   UNL     1       5.077   6.720  17.204  0.00  0.00    +0.000 HD
ENDROOT
BRANCH   1  12
ATOM     11  C   UNL     1       2.062   2.026  19.077  0.00  0.00    +0.000 C 
ATOM     12  C   UNL     1       2.615   3.215  19.885  0.00  0.00    +0.000 C 
ATOM     13  C   UNL     1       2.489   2.894  21.381  0.00  0.00    +0.000 C 
BRANCH  12  14
ATOM     14  C   UNL     1       1.824   4.464  19.519  0.00  0.00    +0.000 C 
ATOM     15  F   UNL     1       1.129   4.259  18.370  0.00  0.00    +0.000 F 
ATOM     16  F   UNL     1       0.888   4.712  20.479  0.00  0.00    +0.000 F 
ENDBRANCH  12  14
ENDBRANCH   1  12
TORSDOF 2
ENDMDL
