MODEL 1
REMARK VINA RESULT:      -5.8      0.000      0.000
REMARK  Name = 
REMARK  16 active torsions:
REMARK  status: ('A' for Active; 'I' for Inactive)
REMARK    1  A    between atoms: C_1  and  C_2
REMARK    2  A    between atoms: C_2  and  N_3
REMARK    3  A    between atoms: N_3  and  C_4
REMARK    4  A    between atoms: C_4  and  C_5
REMARK    5  A    between atoms: C_4  and  P_16
REMARK    6  A    between atoms: C_5  and  C_6
REMARK    7  A    between atoms: C_6  and  C_7
REMARK    8  A    between atoms: C_7  and  C_8
REMARK    9  A    between atoms: C_8  and  N_9
REMARK   10  A    between atoms: C_8  and  P_12
REMARK   11  A    between atoms: N_9  and  C_10
REMARK   12  A    between atoms: C_10  and  C_11
REMARK   13  A    between atoms: P_12  and  O_14
REMARK   14  A    between atoms: P_12  and  O_15
REMARK   15  A    between atoms: P_16  and  O_18
REMARK   16  A    between atoms: P_16  and  O_19
REMARK                            x       y       z     vdW  Elec       q    Type
REMARK                         _______ _______ _______ _____ _____    ______ ____
ROOT
ATOM      1  C   UNL     1       4.082   5.936  17.305  0.00  0.00    +0.000 C 
ENDROOT
BRANCH   1   2
ATOM      2  C   UNL     1       3.634   4.489  17.457  0.00  0.00    +0.000 C 
BRANCH   2   3
ATOM      3  C   UNL     1       2.961   4.285  18.822  0.00  0.00    +0.000 C 
BRANCH   3   4
ATOM      4  N   UNL     1       3.306   5.368  19.782  0.00  0.00    +0.000 NA
ATOM      5  H   UNL     1       3.864   4.929  20.529  0.00  0.00    +0.000 HD
BRANCH   4   7
ATOM      6  C   UNL     1       2.011   7.463  20.041  0.00  0.00    +0.000 C 
ATOM      7  C   UNL     1       2.107   5.979  20.366  0.00  0.00    +0.000 C 
ENDBRANCH   4   7
ENDBRANCH   3   4
BRANCH   3   8
ATOM      8  P   UNL     1       3.431   2.703  19.641  0.00  0.00    +0.000 P 
ATOM      9  O   UNL     1       3.043   2.552  21.075  0.00  0.00    +0.000 OA
BRANCH   8  10
ATOM     10  O   UNL     1       2.907   1.517  18.689  0.00  0.00    +0.000 OA
ATOM     11  H   UNL     1       3.602   0.987  18.262  0.00  0.00    +0.000 HD
ENDBRANCH   8  10
BRANCH   8  12
ATOM     12  O   UNL     1       5.015   2.575  19.417  0.00  0.00    +0.000 OA
ATOM     13  H   UNL     1       5.374   1.901  20.022  0.00  0.00    +0.000 HD
ENDBRANCH   8  12
ENDBRANCH   3   8
ENDBRANCH   2   3
ENDBRANCH   1   2
BRANCH   1  14
ATOM     14  C   UNL     1       5.569   6.125  17.084  0.00  0.00    +0.000 C 
BRANCH  14  15
ATOM     15  C   UNL     1       6.530   4.918  17.297  0.00  0.00    +0.000 C 
BRANCH  15  16
ATOM     16  N   UNL     1       7.443   4.694  16.145  0.00  0.00    +0.000 NA
ATOM     17  H   UNL     1       7.644   3.682  16.131  0.00  0.00    +0.000 HD
BRANCH  16  18
ATOM     18  C   UNL     1       6.810   5.072  14.872  0.00  0.00    +0.000 C 
ATOM     19  C   UNL     1       6.183   3.869  14.185  0.00  0.00    +0.000 C 
ENDBRANCH  16  18
ENDBRANCH  15  16
BRANCH  15  20
ATOM     20  P   UNL     1       7.592   5.211  18.759  0.00  0.00    +0.000 P 
ATOM     21  O   UNL     1       7.797   6.691  18.413  0.00  0.00    +0.000 OA
BRANCH  20  22
ATOM     22  O   UNL     1       6.331   5.165  19.800  0.00  0.00    +0.000 OA
ATOM     23  H   UNL     1       5.593   4.648  19.423  0.00  0.00    +0.000 HD
ENDBRANCH  20  22
BRANCH  20  24
ATOM     24  O   UNL     1       8.596   5.486  20.141  0.00  0.00    +0.000 OA
ATOM     25  H   UNL     1       8.828   6.436  20.086  0.00  0.00    +0.000 HD
ENDBRANCH  20  24
ENDBRANCH  15  20
ENDBRANCH  14  15
ENDBRANCH   1  14
TORSDOF 14
ENDMDL
MODEL 2
REMARK VINA RESULT:      -5.8      2.427      5.709
REMARK  Name = 
REMARK  16 active torsions:
REMARK  status: ('A' for Active; 'I' for Inactive)
REMARK    1  A    between atoms: C_1  and  C_2
REMARK    2  A    between atoms: C_2  and  N_3
REMARK    3  A    between atoms: N_3  and  C_4
REMARK    4  A    between atoms: C_4  and  C_5
REMARK    5  A    between atoms: C_4  and  P_16
REMARK    6  A    between atoms: C_5  and  C_6
REMARK    7  A    between atoms: C_6  and  C_7
REMARK    8  A    between atoms: C_7  and  C_8
REMARK    9  A    between atoms: C_8  and  N_9
REMARK   10  A    between atoms: C_8  and  P_12
REMARK   11  A    between atoms: N_9  and  C_10
REMARK   12  A    between atoms: C_10  and  C_11
REMARK   13  A    between atoms: P_12  and  O_14
REMARK   14  A    between atoms: P_12  and  O_15
REMARK   15  A    between atoms: P_16  and  O_18
REMARK   16  A    between atoms: P_16  and  O_19
REMARK                            x       y       z     vdW  Elec       q    Type
REMARK                         _______ _______ _______ _____ _____    ______ ____
ROOT
ATOM      1  C   UNL     1       3.683   6.389  17.815  0.00  0.00    +0.000 C 
ENDROOT
BRANCH   1   2
ATOM      2  C   UNL     1       4.567   6.212  16.588  0.00  0.00    +0.000 C 
BRANCH   2   3
ATOM      3  C   UNL     1       6.024   5.985  17.016  0.00  0.00    +0.000 C 
BRANCH   3   4
ATOM      4  N   UNL     1       6.867   7.189  16.785  0.00  0.00    +0.000 NA
ATOM      5  H   UNL     1       7.434   6.992  15.947  0.00  0.00    +0.000 HD
BRANCH   4   7
ATOM      6  C   UNL     1       8.227   8.902  17.947  0.00  0.00    +0.000 C 
ATOM      7  C   UNL     1       7.756   7.455  17.922  0.00  0.00    +0.000 C 
ENDBRANCH   4   7
ENDBRANCH   3   4
BRANCH   3   8
ATOM      8  P   UNL     1       6.844   4.603  16.114  0.00  0.00    +0.000 P 
ATOM      9  O   UNL     1       5.973   3.461  15.708  0.00  0.00    +0.000 OA
BRANCH   8  10
ATOM     10  O   UNL     1       7.667   5.267  14.902  0.00  0.00    +0.000 OA
ATOM     11  H   UNL     1       8.629   5.135  14.929  0.00  0.00    +0.000 HD
ENDBRANCH   8  10
BRANCH   8  12
ATOM     12  O   UNL     1       8.053   4.146  17.066  0.00  0.00    +0.000 OA
ATOM     13  H   UNL     1       8.134   4.771  17.809  0.00  0.00    +0.000 HD
ENDBRANCH   8  12
ENDBRANCH   3   8
ENDBRANCH   2   3
ENDBRANCH   1   2
BRANCH   1  14
ATOM     14  C   UNL     1       2.562   5.379  17.945  0.00  0.00    +0.000 C 
BRANCH  14  15
ATOM     15  C   UNL     1       2.700   4.216  18.971  0.00  0.00    +0.000 C 
BRANCH  15  16
ATOM     16  N   UNL     1       1.389   3.738  19.487  0.00  0.00    +0.000 NA
ATOM     17  H   UNL     1       1.336   2.736  19.251  0.00  0.00    +0.000 HD
BRANCH  16  18
ATOM     18  C   UNL     1       1.296   3.890  20.947  0.00  0.00    +0.000 C 
ATOM     19  C   UNL     1       1.497   2.560  21.658  0.00  0.00    +0.000 C 
ENDBRANCH  16  18
ENDBRANCH  15  16
BRANCH  15  20
ATOM     20  P   UNL     1       3.509   2.775  18.184  0.00  0.00    +0.000 P 
ATOM     21  O   UNL     1       4.239   2.379  19.474  0.00  0.00    +0.000 OA
BRANCH  20  22
ATOM     22  O   UNL     1       2.130   1.895  18.163  0.00  0.00    +0.000 OA
ATOM     23  H   UNL     1       1.838   1.693  19.073  0.00  0.00    +0.000 HD
ENDBRANCH  20  22
BRANCH  20  24
ATOM     24  O   UNL     1       4.274   1.413  17.440  0.00  0.00    +0.000 OA
ATOM     25  H   UNL     1       4.714   0.948  18.181  0.00  0.00    +0.000 HD
ENDBRANCH  20  24
ENDBRANCH  15  20
ENDBRANCH  14  15
ENDBRANCH   1  14
TORSDOF 14
ENDMDL
MODEL 3
REMARK VINA RESULT:      -5.8      0.885      1.110
REMARK  Name = 
REMARK  16 active torsions:
REMARK  status: ('A' for Active; 'I' for Inactive)
REMARK    1  A    between atoms: C_1  and  C_2
REMARK    2  A    between atoms: C_2  and  N_3
REMARK    3  A    between atoms: N_3  and  C_4
REMARK    4  A    between atoms: C_4  and  C_5
REMARK    5  A    between atoms: C_4  and  P_16
REMARK    6  A    between atoms: C_5  and  C_6
REMARK    7  A    between atoms: C_6  and  C_7
REMARK    8  A    between atoms: C_7  and  C_8
REMARK    9  A    between atoms: C_8  and  N_9
REMARK   10  A    between atoms: C_8  and  P_12
REMARK   11  A    between atoms: N_9  and  C_10
REMARK   12  A    between atoms: C_10  and  C_11
REMARK   13  A    between atoms: P_12  and  O_14
REMARK   14  A    between atoms: P_12  and  O_15
REMARK   15  A    between atoms: P_16  and  O_18
REMARK   16  A    between atoms: P_16  and  O_19
REMARK                            x       y       z     vdW  Elec       q    Type
REMARK                         _______ _______ _______ _____ _____    ______ ____
ROOT
ATOM      1  C   UNL     1       4.179   6.275  17.830  0.00  0.00    +0.000 C 
ENDROOT
BRANCH   1   2
ATOM      2  C   UNL     1       3.432   5.007  17.440  0.00  0.00    +0.000 C 
BRANCH   2   3
ATOM      3  C   UNL     1       3.019   4.230  18.698  0.00  0.00    +0.000 C 
BRANCH   3   4
ATOM      4  N   UNL     1       3.341   4.975  19.945  0.00  0.00    +0.000 NA
ATOM      5  H   UNL     1       4.108   4.461  20.403  0.00  0.00    +0.000 HD
BRANCH   4   7
ATOM      6  C   UNL     1       0.987   4.289  20.296  0.00  0.00    +0.000 C 
ATOM      7  C   UNL     1       2.190   5.039  20.852  0.00  0.00    +0.000 C 
ENDBRANCH   4   7
ENDBRANCH   3   4
BRANCH   3   8
ATOM      8  P   UNL     1       3.847   2.591  18.851  0.00  0.00    +0.000 P 
ATOM      9  O   UNL     1       4.811   2.433  19.980  0.00  0.00    +0.000 OA
BRANCH   8  10
ATOM     10  O   UNL     1       2.683   1.480  18.819  0.00  0.00    +0.000 OA
ATOM     11  H   UNL     1       2.923   0.637  18.400  0.00  0.00    +0.000 HD
ENDBRANCH   8  10
BRANCH   8  12
ATOM     12  O   UNL     1       4.528   2.336  17.421  0.00  0.00    +0.000 OA
ATOM     13  H   UNL     1       4.829   3.185  17.049  0.00  0.00    +0.000 HD
ENDBRANCH   8  12
ENDBRANCH   3   8
ENDBRANCH   2   3
ENDBRANCH   1   2
BRANCH   1  14
ATOM     14  C   UNL     1       5.567   6.405  17.239  0.00  0.00    +0.000 C 
BRANCH  14  15
ATOM     15  C   UNL     1       6.531   5.183  17.279  0.00  0.00    +0.000 C 
BRANCH  15  16
ATOM     16  N   UNL     1       7.442   5.123  16.106  0.00  0.00    +0.000 NA
ATOM     17  H   UNL     1       7.948   4.227  16.181  0.00  0.00    +0.000 HD
BRANCH  16  18
ATOM     18  C   UNL     1       6.694   5.145  14.839  0.00  0.00    +0.000 C 
ATOM     19  C   UNL     1       5.965   3.831  14.602  0.00  0.00    +0.000 C 
ENDBRANCH  16  18
ENDBRANCH  15  16
BRANCH  15  20
ATOM     20  P   UNL     1       7.595   5.270  18.766  0.00  0.00    +0.000 P 
ATOM     21  O   UNL     1       7.840   6.775  18.600  0.00  0.00    +0.000 OA
BRANCH  20  22
ATOM     22  O   UNL     1       6.329   5.134  19.793  0.00  0.00    +0.000 OA
ATOM     23  H   UNL     1       5.486   5.258  19.317  0.00  0.00    +0.000 HD
ENDBRANCH  20  22
BRANCH  20  24
ATOM     24  O   UNL     1       8.601   5.352  20.171  0.00  0.00    +0.000 OA
ATOM     25  H   UNL     1       7.996   5.149  20.914  0.00  0.00    +0.000 HD
ENDBRANCH  20  24
ENDBRANCH  15  20
ENDBRANCH  14  15
ENDBRANCH   1  14
TORSDOF 14
ENDMDL
MODEL 4
REMARK VINA RESULT:      -5.7      1.553      5.883
REMARK  Name = 
REMARK  16 active torsions:
REMARK  status: ('A' for Active; 'I' for Inactive)
REMARK    1  A    between atoms: C_1  and  C_2
REMARK    2  A    between atoms: C_2  and  N_3
REMARK    3  A    between atoms: N_3  and  C_4
REMARK    4  A    between atoms: C_4  and  C_5
REMARK    5  A    between atoms: C_4  and  P_16
REMARK    6  A    between atoms: C_5  and  C_6
REMARK    7  A    between atoms: C_6  and  C_7
REMARK    8  A    between atoms: C_7  and  C_8
REMARK    9  A    between atoms: C_8  and  N_9
REMARK   10  A    between atoms: C_8  and  P_12
REMARK   11  A    between atoms: N_9  and  C_10
REMARK   12  A    between atoms: C_10  and  C_11
REMARK   13  A    between atoms: P_12  and  O_14
REMARK   14  A    between atoms: P_12  and  O_15
REMARK   15  A    between atoms: P_16  and  O_18
REMARK   16  A    between atoms: P_16  and  O_19
REMARK                            x       y       z     vdW  Elec       q    Type
REMARK                         _______ _______ _______ _____ _____    ______ ____
ROOT
ATOM      1  C   UNL     1       4.059   4.665  16.812  0.00  0.00    +0.000 C 
ENDROOT
BRANCH   1   2
ATOM      2  C   UNL     1       4.919   5.891  16.536  0.00  0.00    +0.000 C 
BRANCH   2   3
ATOM      3  C   UNL     1       6.397   5.487  16.435  0.00  0.00    +0.000 C 
BRANCH   3   4
ATOM      4  N   UNL     1       6.587   4.272  15.597  0.00  0.00    +0.000 NA
ATOM      5  H   UNL     1       7.426   3.795  15.960  0.00  0.00    +0.000 HD
BRANCH   4   7
ATOM      6  C   UNL     1       6.034   3.678  13.257  0.00  0.00    +0.000 C 
ATOM      7  C   UNL     1       6.796   4.614  14.186  0.00  0.00    +0.000 C 
ENDBRANCH   4   7
ENDBRANCH   3   4
BRANCH   3   8
ATOM      8  P   UNL     1       7.166   5.110  18.067  0.00  0.00    +0.000 P 
ATOM      9  O   UNL     1       6.241   4.679  19.157  0.00  0.00    +0.000 OA
BRANCH   8  10
ATOM     10  O   UNL     1       8.372   4.085  17.783  0.00  0.00    +0.000 OA
ATOM     11  H   UNL     1       8.317   3.599  16.943  0.00  0.00    +0.000 HD
ENDBRANCH   8  10
BRANCH   8  12
ATOM     12  O   UNL     1       7.994   6.430  18.450  0.00  0.00    +0.000 OA
ATOM     13  H   UNL     1       8.943   6.216  18.492  0.00  0.00    +0.000 HD
ENDBRANCH   8  12
ENDBRANCH   3   8
ENDBRANCH   2   3
ENDBRANCH   1   2
BRANCH   1  14
ATOM     14  C   UNL     1       2.972   4.868  17.848  0.00  0.00    +0.000 C 
BRANCH  14  15
ATOM     15  C   UNL     1       2.729   3.768  18.923  0.00  0.00    +0.000 C 
BRANCH  15  16
ATOM     16  N   UNL     1       1.287   3.467  19.128  0.00  0.00    +0.000 NA
ATOM     17  H   UNL     1       1.199   2.440  19.082  0.00  0.00    +0.000 HD
BRANCH  16  18
ATOM     18  C   UNL     1       0.822   3.927  20.446  0.00  0.00    +0.000 C 
ATOM     19  C   UNL     1       1.560   3.221  21.573  0.00  0.00    +0.000 C 
ENDBRANCH  16  18
ENDBRANCH  15  16
BRANCH  15  20
ATOM     20  P   UNL     1       3.523   2.201  18.410  0.00  0.00    +0.000 P 
ATOM     21  O   UNL     1       4.274   2.054  19.739  0.00  0.00    +0.000 OA
BRANCH  20  22
ATOM     22  O   UNL     1       2.142   1.339  18.579  0.00  0.00    +0.000 OA
ATOM     23  H   UNL     1       1.487   1.604  17.906  0.00  0.00    +0.000 HD
ENDBRANCH  20  22
BRANCH  20  24
ATOM     24  O   UNL     1       4.273   0.719  17.925  0.00  0.00    +0.000 OA
ATOM     25  H   UNL     1       3.654   0.024  18.230  0.00  0.00    +0.000 HD
ENDBRANCH  20  24
ENDBRANCH  15  20
ENDBRANCH  14  15
ENDBRANCH   1  14
TORSDOF 14
ENDMDL
MODEL 5
REMARK VINA RESULT:      -5.6      0.714      1.414
REMARK  Name = 
REMARK  16 active torsions:
REMARK  status: ('A' for Active; 'I' for Inactive)
REMARK    1  A    between atoms: C_1  and  C_2
REMARK    2  A    between atoms: C_2  and  N_3
REMARK    3  A    between atoms: N_3  and  C_4
REMARK    4  A    between atoms: C_4  and  C_5
REMARK    5  A    between atoms: C_4  and  P_16
REMARK    6  A    between atoms: C_5  and  C_6
REMARK    7  A    between atoms: C_6  and  C_7
REMARK    8  A    between atoms: C_7  and  C_8
REMARK    9  A    between atoms: C_8  and  N_9
REMARK   10  A    between atoms: C_8  and  P_12
REMARK   11  A    between atoms: N_9  and  C_10
REMARK   12  A    between atoms: C_10  and  C_11
REMARK   13  A    between atoms: P_12  and  O_14
REMARK   14  A    between atoms: P_12  and  O_15
REMARK   15  A    between atoms: P_16  and  O_18
REMARK   16  A    between atoms: P_16  and  O_19
REMARK                            x       y       z     vdW  Elec       q    Type
REMARK                         _______ _______ _______ _____ _____    ______ ____
ROOT
ATOM      1  C   UNL     1       3.792   6.387  17.564  0.00  0.00    +0.000 C 
ENDROOT
BRANCH   1   2
ATOM      2  C   UNL     1       3.476   4.898  17.520  0.00  0.00    +0.000 C 
BRANCH   2   3
ATOM      3  C   UNL     1       2.861   4.450  18.853  0.00  0.00    +0.000 C 
BRANCH   3   4
ATOM      4  N   UNL     1       3.178   5.394  19.959  0.00  0.00    +0.000 NA
ATOM      5  H   UNL     1       3.740   4.865  20.643  0.00  0.00    +0.000 HD
BRANCH   4   7
ATOM      6  C   UNL     1       1.782   7.390  20.405  0.00  0.00    +0.000 C 
ATOM      7  C   UNL     1       1.963   5.893  20.612  0.00  0.00    +0.000 C 
ENDBRANCH   4   7
ENDBRANCH   3   4
BRANCH   3   8
ATOM      8  P   UNL     1       3.446   2.793  19.409  0.00  0.00    +0.000 P 
ATOM      9  O   UNL     1       2.915   1.613  18.664  0.00  0.00    +0.000 OA
BRANCH   8  10
ATOM     10  O   UNL     1       5.052   2.866  19.466  0.00  0.00    +0.000 OA
ATOM     11  H   UNL     1       5.424   3.754  19.602  0.00  0.00    +0.000 HD
ENDBRANCH   8  10
BRANCH   8  12
ATOM     12  O   UNL     1       3.104   2.736  20.975  0.00  0.00    +0.000 OA
ATOM     13  H   UNL     1       2.185   3.029  21.117  0.00  0.00    +0.000 HD
ENDBRANCH   8  12
ENDBRANCH   3   8
ENDBRANCH   2   3
ENDBRANCH   1   2
BRANCH   1  14
ATOM     14  C   UNL     1       5.228   6.744  17.236  0.00  0.00    +0.000 C 
BRANCH  14  15
ATOM     15  C   UNL     1       6.307   5.622  17.215  0.00  0.00    +0.000 C 
BRANCH  15  16
ATOM     16  N   UNL     1       7.320   5.812  16.144  0.00  0.00    +0.000 NA
ATOM     17  H   UNL     1       8.186   5.367  16.486  0.00  0.00    +0.000 HD
BRANCH  16  18
ATOM     18  C   UNL     1       6.911   5.157  14.891  0.00  0.00    +0.000 C 
ATOM     19  C   UNL     1       6.249   3.814  15.157  0.00  0.00    +0.000 C 
ENDBRANCH  16  18
ENDBRANCH  15  16
BRANCH  15  20
ATOM     20  P   UNL     1       7.220   5.597  18.801  0.00  0.00    +0.000 P 
ATOM     21  O   UNL     1       8.103   4.421  18.366  0.00  0.00    +0.000 OA
BRANCH  20  22
ATOM     22  O   UNL     1       8.067   6.950  18.441  0.00  0.00    +0.000 OA
ATOM     23  H   UNL     1       8.114   7.077  17.474  0.00  0.00    +0.000 HD
ENDBRANCH  20  22
BRANCH  20  24
ATOM     24  O   UNL     1       8.083   5.574  20.301  0.00  0.00    +0.000 OA
ATOM     25  H   UNL     1       8.510   6.454  20.347  0.00  0.00    +0.000 HD
ENDBRANCH  20  24
ENDBRANCH  15  20
ENDBRANCH  14  15
ENDBRANCH   1  14
TORSDOF 14
ENDMDL
MODEL 6
REMARK VINA RESULT:      -5.6      2.323      5.425
REMARK  Name = 
REMARK  16 active torsions:
REMARK  status: ('A' for Active; 'I' for Inactive)
REMARK    1  A    between atoms: C_1  and  C_2
REMARK    2  A    between atoms: C_2  and  N_3
REMARK    3  A    between atoms: N_3  and  C_4
REMARK    4  A    between atoms: C_4  and  C_5
REMARK    5  A    between atoms: C_4  and  P_16
REMARK    6  A    between atoms: C_5  and  C_6
REMARK    7  A    between atoms: C_6  and  C_7
REMARK    8  A    between atoms: C_7  and  C_8
REMARK    9  A    between atoms: C_8  and  N_9
REMARK   10  A    between atoms: C_8  and  P_12
REMARK   11  A    between atoms: N_9  and  C_10
REMARK   12  A    between atoms: C_10  and  C_11
REMARK   13  A    between atoms: P_12  and  O_14
REMARK   14  A    between atoms: P_12  and  O_15
REMARK   15  A    between atoms: P_16  and  O_18
REMARK   16  A    between atoms: P_16  and  O_19
REMARK                            x       y       z     vdW  Elec       q    Type
REMARK                         _______ _______ _______ _____ _____    ______ ____
ROOT
ATOM      1  C   UNL     1       3.834   6.485  17.394  0.00  0.00    +0.000 C 
ENDROOT
BRANCH   1   2
ATOM      2  C   UNL     1       4.904   6.821  16.365  0.00  0.00    +0.000 C 
BRANCH   2   3
ATOM      3  C   UNL     1       6.176   6.004  16.639  0.00  0.00    +0.000 C 
BRANCH   3   4
ATOM      4  N   UNL     1       7.398   6.853  16.624  0.00  0.00    +0.000 NA
ATOM      5  H   UNL     1       8.160   6.262  16.260  0.00  0.00    +0.000 HD
BRANCH   4   7
ATOM      6  C   UNL     1       7.866   6.172  18.959  0.00  0.00    +0.000 C 
ATOM      7  C   UNL     1       7.749   7.322  17.969  0.00  0.00    +0.000 C 
ENDBRANCH   4   7
ENDBRANCH   3   4
BRANCH   3   8
ATOM      8  P   UNL     1       6.465   4.665  15.407  0.00  0.00    +0.000 P 
ATOM      9  O   UNL     1       7.779   4.683  14.697  0.00  0.00    +0.000 OA
BRANCH   8  10
ATOM     10  O   UNL     1       6.139   3.276  16.150  0.00  0.00    +0.000 OA
ATOM     11  H   UNL     1       6.189   3.300  17.120  0.00  0.00    +0.000 HD
ENDBRANCH   8  10
BRANCH   8  12
ATOM     12  O   UNL     1       5.220   4.752  14.399  0.00  0.00    +0.000 OA
ATOM     13  H   UNL     1       5.307   4.063  13.716  0.00  0.00    +0.000 HD
ENDBRANCH   8  12
ENDBRANCH   3   8
ENDBRANCH   2   3
ENDBRANCH   1   2
BRANCH   1  14
ATOM     14  C   UNL     1       3.602   5.004  17.614  0.00  0.00    +0.000 C 
BRANCH  14  15
ATOM     15  C   UNL     1       3.269   4.488  19.045  0.00  0.00    +0.000 C 
BRANCH  15  16
ATOM     16  N   UNL     1       1.825   4.187  19.232  0.00  0.00    +0.000 NA
ATOM     17  H   UNL     1       1.732   3.163  19.144  0.00  0.00    +0.000 HD
BRANCH  16  18
ATOM     18  C   UNL     1       1.356   4.596  20.565  0.00  0.00    +0.000 C 
ATOM     19  C   UNL     1       1.578   6.081  20.801  0.00  0.00    +0.000 C 
ENDBRANCH  16  18
ENDBRANCH  15  16
BRANCH  15  20
ATOM     20  P   UNL     1       4.177   2.935  19.381  0.00  0.00    +0.000 P 
ATOM     21  O   UNL     1       3.733   2.296  18.059  0.00  0.00    +0.000 OA
BRANCH  20  22
ATOM     22  O   UNL     1       5.635   3.614  19.081  0.00  0.00    +0.000 OA
ATOM     23  H   UNL     1       5.530   4.445  18.580  0.00  0.00    +0.000 HD
ENDBRANCH  20  22
BRANCH  20  24
ATOM     24  O   UNL     1       5.035   1.467  19.699  0.00  0.00    +0.000 OA
ATOM     25  H   UNL     1       5.679   1.399  18.964  0.00  0.00    +0.000 HD
ENDBRANCH  20  24
ENDBRANCH  15  20
ENDBRANCH  14  15
ENDBRANCH   1  14
TORSDOF 14
ENDMDL
MODEL 7
REMARK VINA RESULT:      -5.6      3.015      3.886
REMARK  Name = 
REMARK  16 active torsions:
REMARK  status: ('A' for Active; 'I' for Inactive)
REMARK    1  A    between atoms: C_1  and  C_2
REMARK    2  A    between atoms: C_2  and  N_3
REMARK    3  A    between atoms: N_3  and  C_4
REMARK    4  A    between atoms: C_4  and  C_5
REMARK    5  A    between atoms: C_4  and  P_16
REMARK    6  A    between atoms: C_5  and  C_6
REMARK    7  A    between atoms: C_6  and  C_7
REMARK    8  A    between atoms: C_7  and  C_8
REMARK    9  A    between atoms: C_8  and  N_9
REMARK   10  A    between atoms: C_8  and  P_12
REMARK   11  A    between atoms: N_9  and  C_10
REMARK   12  A    between atoms: C_10  and  C_11
REMARK   13  A    between atoms: P_12  and  O_14
REMARK   14  A    between atoms: P_12  and  O_15
REMARK   15  A    between atoms: P_16  and  O_18
REMARK   16  A    between atoms: P_16  and  O_19
REMARK                            x       y       z     vdW  Elec       q    Type
REMARK                         _______ _______ _______ _____ _____    ______ ____
ROOT
ATOM      1  C   UNL     1       3.498   2.828  17.512  0.00  0.00    +0.000 C 
ENDROOT
BRANCH   1   2
ATOM      2  C   UNL     1       2.273   3.683  17.803  0.00  0.00    +0.000 C 
BRANCH   2   3
ATOM      3  C   UNL     1       2.308   4.179  19.256  0.00  0.00    +0.000 C 
BRANCH   3   4
ATOM      4  N   UNL     1       1.003   3.985  19.943  0.00  0.00    +0.000 NA
ATOM      5  H   UNL     1       0.814   4.855  20.464  0.00  0.00    +0.000 HD
BRANCH   4   7
ATOM      6  C   UNL     1       2.306   2.877  21.734  0.00  0.00    +0.000 C 
ATOM      7  C   UNL     1       1.045   2.858  20.881  0.00  0.00    +0.000 C 
ENDBRANCH   4   7
ENDBRANCH   3   4
BRANCH   3   8
ATOM      8  P   UNL     1       2.707   5.972  19.408  0.00  0.00    +0.000 P 
ATOM      9  O   UNL     1       2.411   6.824  18.218  0.00  0.00    +0.000 OA
BRANCH   8  10
ATOM     10  O   UNL     1       2.021   6.484  20.770  0.00  0.00    +0.000 OA
ATOM     11  H   UNL     1       2.500   6.264  21.586  0.00  0.00    +0.000 HD
ENDBRANCH   8  10
BRANCH   8  12
ATOM     12  O   UNL     1       4.254   6.018  19.828  0.00  0.00    +0.000 OA
ATOM     13  H   UNL     1       4.327   6.265  20.768  0.00  0.00    +0.000 HD
ENDBRANCH   8  12
ENDBRANCH   3   8
ENDBRANCH   2   3
ENDBRANCH   1   2
BRANCH   1  14
ATOM     14  C   UNL     1       4.478   3.431  16.526  0.00  0.00    +0.000 C 
BRANCH  14  15
ATOM     15  C   UNL     1       5.435   4.564  16.999  0.00  0.00    +0.000 C 
BRANCH  15  16
ATOM     16  N   UNL     1       6.254   4.177  18.178  0.00  0.00    +0.000 NA
ATOM     17  H   UNL     1       6.335   3.149  18.147  0.00  0.00    +0.000 HD
BRANCH  16  18
ATOM     18  C   UNL     1       7.602   4.764  18.117  0.00  0.00    +0.000 C 
ATOM     19  C   UNL     1       7.820   5.774  19.232  0.00  0.00    +0.000 C 
ENDBRANCH  16  18
ENDBRANCH  15  16
BRANCH  15  20
ATOM     20  P   UNL     1       6.611   4.992  15.663  0.00  0.00    +0.000 P 
ATOM     21  O   UNL     1       6.238   3.759  14.831  0.00  0.00    +0.000 OA
BRANCH  20  22
ATOM     22  O   UNL     1       5.672   6.210  15.103  0.00  0.00    +0.000 OA
ATOM     23  H   UNL     1       5.202   6.647  15.838  0.00  0.00    +0.000 HD
ENDBRANCH  20  22
BRANCH  20  24
ATOM     24  O   UNL     1       7.722   5.399  14.400  0.00  0.00    +0.000 OA
ATOM     25  H   UNL     1       7.176   5.878  13.743  0.00  0.00    +0.000 HD
ENDBRANCH  20  24
ENDBRANCH  15  20
ENDBRANCH  14  15
ENDBRANCH   1  14
TORSDOF 14
ENDMDL
MODEL 8
REMARK VINA RESULT:      -5.6      1.870      2.851
REMARK  Name = 
REMARK  16 active torsions:
REMARK  status: ('A' for Active; 'I' for Inactive)
REMARK    1  A    between atoms: C_1  and  C_2
REMARK    2  A    between atoms: C_2  and  N_3
REMARK    3  A    between atoms: N_3  and  C_4
REMARK    4  A    between atoms: C_4  and  C_5
REMARK    5  A    between atoms: C_4  and  P_16
REMARK    6  A    between atoms: C_5  and  C_6
REMARK    7  A    between atoms: C_6  and  C_7
REMARK    8  A    between atoms: C_7  and  C_8
REMARK    9  A    between atoms: C_8  and  N_9
REMARK   10  A    between atoms: C_8  and  P_12
REMARK   11  A    between atoms: N_9  and  C_10
REMARK   12  A    between atoms: C_10  and  C_11
REMARK   13  A    between atoms: P_12  and  O_14
REMARK   14  A    between atoms: P_12  and  O_15
REMARK   15  A    between atoms: P_16  and  O_18
REMARK   16  A    between atoms: P_16  and  O_19
REMARK                            x       y       z     vdW  Elec       q    Type
REMARK                         _______ _______ _______ _____ _____    ______ ____
ROOT
ATOM      1  C   UNL     1       3.788   6.417  17.939  0.00  0.00    +0.000 C 
ENDROOT
BRANCH   1   2
ATOM      2  C   UNL     1       2.387   5.842  18.091  0.00  0.00    +0.000 C 
BRANCH   2   3
ATOM      3  C   UNL     1       2.460   4.417  18.660  0.00  0.00    +0.000 C 
BRANCH   3   4
ATOM      4  N   UNL     1       1.556   3.482  17.938  0.00  0.00    +0.000 NA
ATOM      5  H   UNL     1       0.629   3.573  18.379  0.00  0.00    +0.000 HD
BRANCH   4   7
ATOM      6  C   UNL     1       3.521   1.976  17.885  0.00  0.00    +0.000 C 
ATOM      7  C   UNL     1       2.012   2.092  18.049  0.00  0.00    +0.000 C 
ENDBRANCH   4   7
ENDBRANCH   3   4
BRANCH   3   8
ATOM      8  P   UNL     1       1.992   4.315  20.439  0.00  0.00    +0.000 P 
ATOM      9  O   UNL     1       2.727   3.313  21.266  0.00  0.00    +0.000 OA
BRANCH   8  10
ATOM     10  O   UNL     1       2.048   5.815  21.018  0.00  0.00    +0.000 OA
ATOM     11  H   UNL     1       1.563   5.960  21.848  0.00  0.00    +0.000 HD
ENDBRANCH   8  10
BRANCH   8  12
ATOM     12  O   UNL     1       0.407   4.066  20.437  0.00  0.00    +0.000 OA
ATOM     13  H   UNL     1       0.105   3.892  21.346  0.00  0.00    +0.000 HD
ENDBRANCH   8  12
ENDBRANCH   3   8
ENDBRANCH   2   3
ENDBRANCH   1   2
BRANCH   1  14
ATOM     14  C   UNL     1       4.686   5.665  16.978  0.00  0.00    +0.000 C 
BRANCH  14  15
ATOM     15  C   UNL     1       5.859   4.810  17.541  0.00  0.00    +0.000 C 
BRANCH  15  16
ATOM     16  N   UNL     1       6.525   3.982  16.501  0.00  0.00    +0.000 NA
ATOM     17  H   UNL     1       6.613   3.035  16.900  0.00  0.00    +0.000 HD
BRANCH  16  18
ATOM     18  C   UNL     1       5.721   3.909  15.271  0.00  0.00    +0.000 C 
ATOM     19  C   UNL     1       6.531   4.324  14.052  0.00  0.00    +0.000 C 
ENDBRANCH  16  18
ENDBRANCH  15  16
BRANCH  15  20
ATOM     20  P   UNL     1       7.148   5.899  18.250  0.00  0.00    +0.000 P 
ATOM     21  O   UNL     1       8.099   4.727  18.525  0.00  0.00    +0.000 OA
BRANCH  20  22
ATOM     22  O   UNL     1       7.581   6.492  16.788  0.00  0.00    +0.000 OA
ATOM     23  H   UNL     1       8.234   5.905  16.359  0.00  0.00    +0.000 HD
ENDBRANCH  20  22
BRANCH  20  24
ATOM     24  O   UNL     1       8.367   6.929  18.919  0.00  0.00    +0.000 OA
ATOM     25  H   UNL     1       8.436   6.646  19.854  0.00  0.00    +0.000 HD
ENDBRANCH  20  24
ENDBRANCH  15  20
ENDBRANCH  14  15
ENDBRANCH   1  14
TORSDOF 14
ENDMDL
MODEL 9
REMARK VINA RESULT:      -5.5      2.567      5.250
REMARK  Name = 
REMARK  16 active torsions:
REMARK  status: ('A' for Active; 'I' for Inactive)
REMARK    1  A    between atoms: C_1  and  C_2
REMARK    2  A    between atoms: C_2  and  N_3
REMARK    3  A    between atoms: N_3  and  C_4
REMARK    4  A    between atoms: C_4  and  C_5
REMARK    5  A    between atoms: C_4  and  P_16
REMARK    6  A    between atoms: C_5  and  C_6
REMARK    7  A    between atoms: C_6  and  C_7
REMARK    8  A    between atoms: C_7  and  C_8
REMARK    9  A    between atoms: C_8  and  N_9
REMARK   10  A    between atoms: C_8  and  P_12
REMARK   11  A    between atoms: N_9  and  C_10
REMARK   12  A    between atoms: C_10  and  C_11
REMARK   13  A    between atoms: P_12  and  O_14
REMARK   14  A    between atoms: P_12  and  O_15
REMARK   15  A    between atoms: P_16  and  O_18
REMARK   16  A    between atoms: P_16  and  O_19
REMARK                            x       y       z     vdW  Elec       q    Type
REMARK                         _______ _______ _______ _____ _____    ______ ____
ROOT
ATOM      1  C   UNL     1       3.816   6.295  18.316  0.00  0.00    +0.000 C 
ENDROOT
BRANCH   1   2
ATOM      2  C   UNL     1       4.992   6.564  17.387  0.00  0.00    +0.000 C 
BRANCH   2   3
ATOM      3  C   UNL     1       6.235   5.808  17.877  0.00  0.00    +0.000 C 
BRANCH   3   4
ATOM      4  N   UNL     1       7.307   6.733  18.332  0.00  0.00    +0.000 NA
ATOM      5  H   UNL     1       7.046   7.039  19.281  0.00  0.00    +0.000 HD
BRANCH   4   7
ATOM      6  C   UNL     1       8.273   9.001  18.084  0.00  0.00    +0.000 C 
ATOM      7  C   UNL     1       7.419   7.906  17.458  0.00  0.00    +0.000 C 
ENDBRANCH   4   7
ENDBRANCH   3   4
BRANCH   3   8
ATOM      8  P   UNL     1       6.996   4.736  16.585  0.00  0.00    +0.000 P 
ATOM      9  O   UNL     1       7.316   5.389  15.280  0.00  0.00    +0.000 OA
BRANCH   8  10
ATOM     10  O   UNL     1       8.248   3.999  17.275  0.00  0.00    +0.000 OA
ATOM     11  H   UNL     1       8.837   3.520  16.668  0.00  0.00    +0.000 HD
ENDBRANCH   8  10
BRANCH   8  12
ATOM     12  O   UNL     1       5.986   3.501  16.423  0.00  0.00    +0.000 OA
ATOM     13  H   UNL     1       5.071   3.833  16.385  0.00  0.00    +0.000 HD
ENDBRANCH   8  12
ENDBRANCH   3   8
ENDBRANCH   2   3
ENDBRANCH   1   2
BRANCH   1  14
ATOM     14  C   UNL     1       4.069   5.246  19.379  0.00  0.00    +0.000 C 
BRANCH  14  15
ATOM     15  C   UNL     1       3.367   3.860  19.265  0.00  0.00    +0.000 C 
BRANCH  15  16
ATOM     16  N   UNL     1       4.312   2.756  18.951  0.00  0.00    +0.000 NA
ATOM     17  H   UNL     1       4.613   2.368  19.859  0.00  0.00    +0.000 HD
BRANCH  16  18
ATOM     18  C   UNL     1       3.660   1.692  18.172  0.00  0.00    +0.000 C 
ATOM     19  C   UNL     1       2.646   2.263  17.193  0.00  0.00    +0.000 C 
ENDBRANCH  16  18
ENDBRANCH  15  16
BRANCH  15  20
ATOM     20  P   UNL     1       2.565   3.429  20.852  0.00  0.00    +0.000 P 
ATOM     21  O   UNL     1       2.379   4.899  21.249  0.00  0.00    +0.000 OA
BRANCH  20  22
ATOM     22  O   UNL     1       1.167   2.981  20.129  0.00  0.00    +0.000 OA
ATOM     23  H   UNL     1       0.989   2.033  20.284  0.00  0.00    +0.000 HD
ENDBRANCH  20  22
BRANCH  20  24
ATOM     24  O   UNL     1       1.806   3.020  22.352  0.00  0.00    +0.000 OA
ATOM     25  H   UNL     1       2.232   2.179  22.618  0.00  0.00    +0.000 HD
ENDBRANCH  20  24
ENDBRANCH  15  20
ENDBRANCH  14  15
ENDBRANCH   1  14
TORSDOF 14
ENDMDL
