MODEL 1
REMARK VINA RESULT:      -7.9      0.000      0.000
REMARK  Name = 
REMARK  5 active torsions:
REMARK  status: ('A' for Active; 'I' for Inactive)
REMARK    1  A    between atoms: C_1  and  C_2
REMARK    2  A    between atoms: N_5  and  C_6
REMARK    3  A    between atoms: C_6  and  C_7
REMARK    4  A    between atoms: C_9  and  C_10
REMARK    5  A    between atoms: C_20  and  C_21
REMARK                            x       y       z     vdW  Elec       q    Type
REMARK                         _______ _______ _______ _____ _____    ______ ____
ROOT
ATOM      1  C   UNL     1       6.502   5.242  17.899  0.00  0.00    +0.000 A 
ATOM      2  C   UNL     1       5.898   5.363  16.630  0.00  0.00    +0.000 A 
ATOM      3  C   UNL     1       6.801   4.808  15.758  0.00  0.00    +0.000 A 
ATOM      4  O   UNL     1       7.912   4.439  16.458  0.00  0.00    +0.000 OA
ATOM      5  N   UNL     1       7.731   4.715  17.806  0.00  0.00    +0.000 NA
ENDROOT
BRANCH   3   6
ATOM      6  C   UNL     1       6.790   4.535  14.325  0.00  0.00    +0.000 A 
ATOM      7  C   UNL     1       7.687   5.205  13.477  0.00  0.00    +0.000 A 
ATOM      8  C   UNL     1       7.702   4.953  12.103  0.00  0.00    +0.000 A 
ATOM      9  C   UNL     1       6.816   4.028  11.556  0.00  0.00    +0.000 A 
ATOM     10  C   UNL     1       5.910   3.365  12.380  0.00  0.00    +0.000 A 
ATOM     11  C   UNL     1       5.895   3.617  13.755  0.00  0.00    +0.000 A 
ENDBRANCH   3   6
BRANCH   1  12
ATOM     12  C   UNL     1       5.903   5.576  19.222  0.00  0.00    +0.000 C 
BRANCH  12  17
ATOM     13  C   UNL     1       1.518   2.083  19.963  0.00  0.00    +0.000 C 
ATOM     14  C   UNL     1       2.606   3.104  19.760  0.00  0.00    +0.000 A 
ATOM     15  N   UNL     1       3.826   2.573  19.427  0.00  0.00    +0.000 NA
ATOM     16  C   UNL     1       4.811   3.393  19.286  0.00  0.00    +0.000 A 
ATOM     17  N   UNL     1       4.728   4.749  19.438  0.00  0.00    +0.000 N 
ATOM     18  C   UNL     1       3.509   5.348  19.657  0.00  0.00    +0.000 A 
ATOM     19  O   UNL     1       3.345   6.567  19.654  0.00  0.00    +0.000 OA
ATOM     20  C   UNL     1       2.372   4.422  19.899  0.00  0.00    +0.000 A 
ATOM     21  C   UNL     1       1.057   5.017  20.301  0.00  0.00    +0.000 C 
ENDBRANCH  12  17
ENDBRANCH   1  12
TORSDOF 3
ENDMDL
MODEL 2
REMARK VINA RESULT:      -7.9      0.152      1.061
REMARK  Name = 
REMARK  5 active torsions:
REMARK  status: ('A' for Active; 'I' for Inactive)
REMARK    1  A    between atoms: C_1  and  C_2
REMARK    2  A    between atoms: N_5  and  C_6
REMARK    3  A    between atoms: C_6  and  C_7
REMARK    4  A    between atoms: C_9  and  C_10
REMARK    5  A    between atoms: C_20  and  C_21
REMARK                            x       y       z     vdW  Elec       q    Type
REMARK                         _______ _______ _______ _____ _____    ______ ____
ROOT
ATOM      1  C   UNL     1       6.425   5.218  17.965  0.00  0.00    +0.000 A 
ATOM      2  C   UNL     1       5.919   5.452  16.669  0.00  0.00    +0.000 A 
ATOM      3  C   UNL     1       6.812   4.834  15.829  0.00  0.00    +0.000 A 
ATOM      4  O   UNL     1       7.830   4.319  16.577  0.00  0.00    +0.000 OA
ATOM      5  N   UNL     1       7.593   4.563  17.922  0.00  0.00    +0.000 NA
ENDROOT
BRANCH   3   6
ATOM      6  C   UNL     1       6.864   4.618  14.388  0.00  0.00    +0.000 A 
ATOM      7  C   UNL     1       6.050   3.638  13.796  0.00  0.00    +0.000 A 
ATOM      8  C   UNL     1       6.075   3.420  12.417  0.00  0.00    +0.000 A 
ATOM      9  C   UNL     1       6.918   4.177  11.608  0.00  0.00    +0.000 A 
ATOM     10  C   UNL     1       7.742   5.144  12.179  0.00  0.00    +0.000 A 
ATOM     11  C   UNL     1       7.717   5.363  13.560  0.00  0.00    +0.000 A 
ENDBRANCH   3   6
BRANCH   1  12
ATOM     12  C   UNL     1       5.781   5.566  19.264  0.00  0.00    +0.000 C 
BRANCH  12  17
ATOM     13  C   UNL     1       1.431   2.013  19.920  0.00  0.00    +0.000 C 
ATOM     14  C   UNL     1       2.509   3.050  19.745  0.00  0.00    +0.000 A 
ATOM     15  N   UNL     1       3.726   2.543  19.367  0.00  0.00    +0.000 NA
ATOM     16  C   UNL     1       4.704   3.375  19.247  0.00  0.00    +0.000 A 
ATOM     17  N   UNL     1       4.616   4.722  19.463  0.00  0.00    +0.000 N 
ATOM     18  C   UNL     1       3.397   5.302  19.729  0.00  0.00    +0.000 A 
ATOM     19  O   UNL     1       3.225   6.519  19.784  0.00  0.00    +0.000 OA
ATOM     20  C   UNL     1       2.269   4.359  19.948  0.00  0.00    +0.000 A 
ATOM     21  C   UNL     1       0.959   4.926  20.399  0.00  0.00    +0.000 C 
ENDBRANCH  12  17
ENDBRANCH   1  12
TORSDOF 3
ENDMDL
MODEL 3
REMARK VINA RESULT:      -7.9      1.219      1.731
REMARK  Name = 
REMARK  5 active torsions:
REMARK  status: ('A' for Active; 'I' for Inactive)
REMARK    1  A    between atoms: C_1  and  C_2
REMARK    2  A    between atoms: N_5  and  C_6
REMARK    3  A    between atoms: C_6  and  C_7
REMARK    4  A    between atoms: C_9  and  C_10
REMARK    5  A    between atoms: C_20  and  C_21
REMARK                            x       y       z     vdW  Elec       q    Type
REMARK                         _______ _______ _______ _____ _____    ______ ____
ROOT
ATOM      1  C   UNL     1       6.507   5.164  18.082  0.00  0.00    +0.000 A 
ATOM      2  C   UNL     1       5.932   5.345  16.807  0.00  0.00    +0.000 A 
ATOM      3  C   UNL     1       6.839   4.799  15.933  0.00  0.00    +0.000 A 
ATOM      4  O   UNL     1       7.926   4.378  16.641  0.00  0.00    +0.000 OA
ATOM      5  N   UNL     1       7.724   4.610  17.994  0.00  0.00    +0.000 NA
ENDROOT
BRANCH   3   6
ATOM      6  C   UNL     1       6.851   4.577  14.492  0.00  0.00    +0.000 A 
ATOM      7  C   UNL     1       7.722   5.317  13.676  0.00  0.00    +0.000 A 
ATOM      8  C   UNL     1       7.758   5.116  12.294  0.00  0.00    +0.000 A 
ATOM      9  C   UNL     1       6.919   4.173  11.707  0.00  0.00    +0.000 A 
ATOM     10  C   UNL     1       6.038   3.440  12.499  0.00  0.00    +0.000 A 
ATOM     11  C   UNL     1       6.002   3.642  13.882  0.00  0.00    +0.000 A 
ENDBRANCH   3   6
BRANCH   1  12
ATOM     12  C   UNL     1       5.890   5.466  19.405  0.00  0.00    +0.000 C 
BRANCH  12  17
ATOM     13  C   UNL     1       0.541   3.641  19.604  0.00  0.00    +0.000 C 
ATOM     14  C   UNL     1       2.000   4.013  19.576  0.00  0.00    +0.000 A 
ATOM     15  N   UNL     1       2.240   5.363  19.611  0.00  0.00    +0.000 NA
ATOM     16  C   UNL     1       3.469   5.749  19.541  0.00  0.00    +0.000 A 
ATOM     17  N   UNL     1       4.546   4.914  19.443  0.00  0.00    +0.000 N 
ATOM     18  C   UNL     1       4.376   3.551  19.521  0.00  0.00    +0.000 A 
ATOM     19  O   UNL     1       5.311   2.755  19.590  0.00  0.00    +0.000 OA
ATOM     20  C   UNL     1       2.967   3.078  19.525  0.00  0.00    +0.000 A 
ATOM     21  C   UNL     1       2.722   1.603  19.447  0.00  0.00    +0.000 C 
ENDBRANCH  12  17
ENDBRANCH   1  12
TORSDOF 3
ENDMDL
MODEL 4
REMARK VINA RESULT:      -7.8      1.731      2.210
REMARK  Name = 
REMARK  5 active torsions:
REMARK  status: ('A' for Active; 'I' for Inactive)
REMARK    1  A    between atoms: C_1  and  C_2
REMARK    2  A    between atoms: N_5  and  C_6
REMARK    3  A    between atoms: C_6  and  C_7
REMARK    4  A    between atoms: C_9  and  C_10
REMARK    5  A    between atoms: C_20  and  C_21
REMARK                            x       y       z     vdW  Elec       q    Type
REMARK                         _______ _______ _______ _____ _____    ______ ____
ROOT
ATOM      1  C   UNL     1       6.175   5.970  16.390  0.00  0.00    +0.000 A 
ATOM      2  C   UNL     1       5.355   5.320  15.444  0.00  0.00    +0.000 A 
ATOM      3  C   UNL     1       6.228   4.827  14.505  0.00  0.00    +0.000 A 
ATOM      4  O   UNL     1       7.491   5.221  14.837  0.00  0.00    +0.000 OA
ATOM      5  N   UNL     1       7.462   5.944  16.020  0.00  0.00    +0.000 NA
ENDROOT
BRANCH   3   6
ATOM      6  C   UNL     1       6.074   4.000  13.314  0.00  0.00    +0.000 A 
ATOM      7  C   UNL     1       7.211   3.529  12.636  0.00  0.00    +0.000 A 
ATOM      8  C   UNL     1       7.088   2.727  11.499  0.00  0.00    +0.000 A 
ATOM      9  C   UNL     1       5.826   2.387  11.020  0.00  0.00    +0.000 A 
ATOM     10  C   UNL     1       4.688   2.857  11.672  0.00  0.00    +0.000 A 
ATOM     11  C   UNL     1       4.810   3.660  12.810  0.00  0.00    +0.000 A 
ENDBRANCH   3   6
BRANCH   1  12
ATOM     12  C   UNL     1       5.755   6.578  17.685  0.00  0.00    +0.000 C 
BRANCH  12  17
ATOM     13  C   UNL     1       1.302   3.813  19.809  0.00  0.00    +0.000 C 
ATOM     14  C   UNL     1       2.559   4.475  19.308  0.00  0.00    +0.000 A 
ATOM     15  N   UNL     1       2.355   5.685  18.695  0.00  0.00    +0.000 NA
ATOM     16  C   UNL     1       3.387   6.280  18.201  0.00  0.00    +0.000 A 
ATOM     17  N   UNL     1       4.666   5.799  18.249  0.00  0.00    +0.000 N 
ATOM     18  C   UNL     1       4.947   4.650  18.951  0.00  0.00    +0.000 A 
ATOM     19  O   UNL     1       6.091   4.247  19.158  0.00  0.00    +0.000 OA
ATOM     20  C   UNL     1       3.768   3.904  19.464  0.00  0.00    +0.000 A 
ATOM     21  C   UNL     1       4.005   2.567  20.095  0.00  0.00    +0.000 C 
ENDBRANCH  12  17
ENDBRANCH   1  12
TORSDOF 3
ENDMDL
MODEL 5
REMARK VINA RESULT:      -7.7      1.726      2.393
REMARK  Name = 
REMARK  5 active torsions:
REMARK  status: ('A' for Active; 'I' for Inactive)
REMARK    1  A    between atoms: C_1  and  C_2
REMARK    2  A    between atoms: N_5  and  C_6
REMARK    3  A    between atoms: C_6  and  C_7
REMARK    4  A    between atoms: C_9  and  C_10
REMARK    5  A    between atoms: C_20  and  C_21
REMARK                            x       y       z     vdW  Elec       q    Type
REMARK                         _______ _______ _______ _____ _____    ______ ____
ROOT
ATOM      1  C   UNL     1       6.162   5.960  16.355  0.00  0.00    +0.000 A 
ATOM      2  C   UNL     1       5.361   5.302  15.398  0.00  0.00    +0.000 A 
ATOM      3  C   UNL     1       6.250   4.813  14.474  0.00  0.00    +0.000 A 
ATOM      4  O   UNL     1       7.506   5.216  14.822  0.00  0.00    +0.000 OA
ATOM      5  N   UNL     1       7.455   5.943  16.003  0.00  0.00    +0.000 NA
ENDROOT
BRANCH   3   6
ATOM      6  C   UNL     1       6.119   3.982  13.282  0.00  0.00    +0.000 A 
ATOM      7  C   UNL     1       4.844   3.615  12.820  0.00  0.00    +0.000 A 
ATOM      8  C   UNL     1       4.693   2.829  11.676  0.00  0.00    +0.000 A 
ATOM      9  C   UNL     1       5.817   2.392  10.979  0.00  0.00    +0.000 A 
ATOM     10  C   UNL     1       7.089   2.734  11.431  0.00  0.00    +0.000 A 
ATOM     11  C   UNL     1       7.240   3.522  12.576  0.00  0.00    +0.000 A 
ENDBRANCH   3   6
BRANCH   1  12
ATOM     12  C   UNL     1       5.720   6.568  17.641  0.00  0.00    +0.000 C 
BRANCH  12  17
ATOM     13  C   UNL     1       1.334   3.709  19.778  0.00  0.00    +0.000 C 
ATOM     14  C   UNL     1       2.574   4.396  19.272  0.00  0.00    +0.000 A 
ATOM     15  N   UNL     1       2.345   5.609  18.674  0.00  0.00    +0.000 NA
ATOM     16  C   UNL     1       3.362   6.227  18.177  0.00  0.00    +0.000 A 
ATOM     17  N   UNL     1       4.649   5.766  18.208  0.00  0.00    +0.000 N 
ATOM     18  C   UNL     1       4.956   4.614  18.895  0.00  0.00    +0.000 A 
ATOM     19  O   UNL     1       6.108   4.229  19.087  0.00  0.00    +0.000 OA
ATOM     20  C   UNL     1       3.794   3.844  19.411  0.00  0.00    +0.000 A 
ATOM     21  C   UNL     1       4.059   2.504  20.025  0.00  0.00    +0.000 C 
ENDBRANCH  12  17
ENDBRANCH   1  12
TORSDOF 3
ENDMDL
MODEL 6
REMARK VINA RESULT:      -7.7      1.209      2.023
REMARK  Name = 
REMARK  5 active torsions:
REMARK  status: ('A' for Active; 'I' for Inactive)
REMARK    1  A    between atoms: C_1  and  C_2
REMARK    2  A    between atoms: N_5  and  C_6
REMARK    3  A    between atoms: C_6  and  C_7
REMARK    4  A    between atoms: C_9  and  C_10
REMARK    5  A    between atoms: C_20  and  C_21
REMARK                            x       y       z     vdW  Elec       q    Type
REMARK                         _______ _______ _______ _____ _____    ______ ____
ROOT
ATOM      1  C   UNL     1       6.534   5.217  17.980  0.00  0.00    +0.000 A 
ATOM      2  C   UNL     1       5.919   5.340  16.716  0.00  0.00    +0.000 A 
ATOM      3  C   UNL     1       6.835   4.827  15.831  0.00  0.00    +0.000 A 
ATOM      4  O   UNL     1       7.960   4.482  16.519  0.00  0.00    +0.000 OA
ATOM      5  N   UNL     1       7.777   4.730  17.872  0.00  0.00    +0.000 NA
ENDROOT
BRANCH   3   6
ATOM      6  C   UNL     1       6.824   4.578  14.394  0.00  0.00    +0.000 A 
ATOM      7  C   UNL     1       5.937   3.634  13.852  0.00  0.00    +0.000 A 
ATOM      8  C   UNL     1       5.901   3.385  12.478  0.00  0.00    +0.000 A 
ATOM      9  C   UNL     1       6.758   4.075  11.625  0.00  0.00    +0.000 A 
ATOM     10  C   UNL     1       7.656   5.005  12.146  0.00  0.00    +0.000 A 
ATOM     11  C   UNL     1       7.691   5.254  13.521  0.00  0.00    +0.000 A 
ENDBRANCH   3   6
BRANCH   1  12
ATOM     12  C   UNL     1       5.932   5.510  19.311  0.00  0.00    +0.000 C 
BRANCH  12  17
ATOM     13  C   UNL     1       0.602   3.639  19.587  0.00  0.00    +0.000 C 
ATOM     14  C   UNL     1       2.057   4.023  19.536  0.00  0.00    +0.000 A 
ATOM     15  N   UNL     1       2.288   5.374  19.597  0.00  0.00    +0.000 NA
ATOM     16  C   UNL     1       3.512   5.771  19.509  0.00  0.00    +0.000 A 
ATOM     17  N   UNL     1       4.594   4.947  19.367  0.00  0.00    +0.000 N 
ATOM     18  C   UNL     1       4.435   3.581  19.416  0.00  0.00    +0.000 A 
ATOM     19  O   UNL     1       5.378   2.792  19.445  0.00  0.00    +0.000 OA
ATOM     20  C   UNL     1       3.030   3.097  19.440  0.00  0.00    +0.000 A 
ATOM     21  C   UNL     1       2.794   1.622  19.332  0.00  0.00    +0.000 C 
ENDBRANCH  12  17
ENDBRANCH   1  12
TORSDOF 3
ENDMDL
MODEL 7
REMARK VINA RESULT:      -7.6      3.965      5.687
REMARK  Name = 
REMARK  5 active torsions:
REMARK  status: ('A' for Active; 'I' for Inactive)
REMARK    1  A    between atoms: C_1  and  C_2
REMARK    2  A    between atoms: N_5  and  C_6
REMARK    3  A    between atoms: C_6  and  C_7
REMARK    4  A    between atoms: C_9  and  C_10
REMARK    5  A    between atoms: C_20  and  C_21
REMARK                            x       y       z     vdW  Elec       q    Type
REMARK                         _______ _______ _______ _____ _____    ______ ____
ROOT
ATOM      1  C   UNL     1       7.384   6.425  17.691  0.00  0.00    +0.000 A 
ATOM      2  C   UNL     1       8.253   7.226  18.462  0.00  0.00    +0.000 A 
ATOM      3  C   UNL     1       8.075   8.499  17.979  0.00  0.00    +0.000 A 
ATOM      4  O   UNL     1       7.201   8.450  16.934  0.00  0.00    +0.000 OA
ATOM      5  N   UNL     1       6.767   7.145  16.745  0.00  0.00    +0.000 NA
ENDROOT
BRANCH   3   6
ATOM      6  C   UNL     1       8.590   9.809  18.361  0.00  0.00    +0.000 A 
ATOM      7  C   UNL     1       9.344   9.949  19.538  0.00  0.00    +0.000 A 
ATOM      8  C   UNL     1       9.857  11.191  19.919  0.00  0.00    +0.000 A 
ATOM      9  C   UNL     1       9.620  12.313  19.130  0.00  0.00    +0.000 A 
ATOM     10  C   UNL     1       8.862  12.195  17.967  0.00  0.00    +0.000 A 
ATOM     11  C   UNL     1       8.349  10.952  17.585  0.00  0.00    +0.000 A 
ENDBRANCH   3   6
BRANCH   1  12
ATOM     12  C   UNL     1       7.088   4.976  17.876  0.00  0.00    +0.000 C 
BRANCH  12  17
ATOM     13  C   UNL     1       1.723   4.495  19.597  0.00  0.00    +0.000 C 
ATOM     14  C   UNL     1       3.128   4.537  19.057  0.00  0.00    +0.000 A 
ATOM     15  N   UNL     1       4.022   5.201  19.856  0.00  0.00    +0.000 NA
ATOM     16  C   UNL     1       5.233   5.314  19.426  0.00  0.00    +0.000 A 
ATOM     17  N   UNL     1       5.690   4.815  18.239  0.00  0.00    +0.000 N 
ATOM     18  C   UNL     1       4.870   4.040  17.451  0.00  0.00    +0.000 A 
ATOM     19  O   UNL     1       5.263   3.440  16.452  0.00  0.00    +0.000 OA
ATOM     20  C   UNL     1       3.451   3.958  17.885  0.00  0.00    +0.000 A 
ATOM     21  C   UNL     1       2.481   3.264  16.980  0.00  0.00    +0.000 C 
ENDBRANCH  12  17
ENDBRANCH   1  12
TORSDOF 3
ENDMDL
MODEL 8
REMARK VINA RESULT:      -7.6      3.898      5.613
REMARK  Name = 
REMARK  5 active torsions:
REMARK  status: ('A' for Active; 'I' for Inactive)
REMARK    1  A    between atoms: C_1  and  C_2
REMARK    2  A    between atoms: N_5  and  C_6
REMARK    3  A    between atoms: C_6  and  C_7
REMARK    4  A    between atoms: C_9  and  C_10
REMARK    5  A    between atoms: C_20  and  C_21
REMARK                            x       y       z     vdW  Elec       q    Type
REMARK                         _______ _______ _______ _____ _____    ______ ____
ROOT
ATOM      1  C   UNL     1       7.395   6.303  17.730  0.00  0.00    +0.000 A 
ATOM      2  C   UNL     1       8.172   7.138  18.560  0.00  0.00    +0.000 A 
ATOM      3  C   UNL     1       8.079   8.383  17.989  0.00  0.00    +0.000 A 
ATOM      4  O   UNL     1       7.345   8.283  16.844  0.00  0.00    +0.000 OA
ATOM      5  N   UNL     1       6.916   6.975  16.674  0.00  0.00    +0.000 NA
ENDROOT
BRANCH   3   6
ATOM      6  C   UNL     1       8.565   9.707  18.362  0.00  0.00    +0.000 A 
ATOM      7  C   UNL     1       8.294  10.810  17.537  0.00  0.00    +0.000 A 
ATOM      8  C   UNL     1       8.740  12.089  17.878  0.00  0.00    +0.000 A 
ATOM      9  C   UNL     1       9.468  12.283  19.049  0.00  0.00    +0.000 A 
ATOM     10  C   UNL     1       9.759  11.197  19.871  0.00  0.00    +0.000 A 
ATOM     11  C   UNL     1       9.312   9.917  19.530  0.00  0.00    +0.000 A 
ENDBRANCH   3   6
BRANCH   1  12
ATOM     12  C   UNL     1       7.052   4.870  17.954  0.00  0.00    +0.000 C 
BRANCH  12  17
ATOM     13  C   UNL     1       1.655   4.595  19.618  0.00  0.00    +0.000 C 
ATOM     14  C   UNL     1       3.066   4.582  19.093  0.00  0.00    +0.000 A 
ATOM     15  N   UNL     1       3.976   5.216  19.900  0.00  0.00    +0.000 NA
ATOM     16  C   UNL     1       5.195   5.282  19.483  0.00  0.00    +0.000 A 
ATOM     17  N   UNL     1       5.646   4.762  18.302  0.00  0.00    +0.000 N 
ATOM     18  C   UNL     1       4.806   4.015  17.508  0.00  0.00    +0.000 A 
ATOM     19  O   UNL     1       5.187   3.398  16.515  0.00  0.00    +0.000 OA
ATOM     20  C   UNL     1       3.381   3.988  17.927  0.00  0.00    +0.000 A 
ATOM     21  C   UNL     1       2.395   3.327  17.014  0.00  0.00    +0.000 C 
ENDBRANCH  12  17
ENDBRANCH   1  12
TORSDOF 3
ENDMDL
MODEL 9
REMARK VINA RESULT:      -7.5      1.329      1.815
REMARK  Name = 
REMARK  5 active torsions:
REMARK  status: ('A' for Active; 'I' for Inactive)
REMARK    1  A    between atoms: C_1  and  C_2
REMARK    2  A    between atoms: N_5  and  C_6
REMARK    3  A    between atoms: C_6  and  C_7
REMARK    4  A    between atoms: C_9  and  C_10
REMARK    5  A    between atoms: C_20  and  C_21
REMARK                            x       y       z     vdW  Elec       q    Type
REMARK                         _______ _______ _______ _____ _____    ______ ____
ROOT
ATOM      1  C   UNL     1       6.135   6.056  16.383  0.00  0.00    +0.000 A 
ATOM      2  C   UNL     1       5.353   5.408  15.404  0.00  0.00    +0.000 A 
ATOM      3  C   UNL     1       6.264   4.887  14.518  0.00  0.00    +0.000 A 
ATOM      4  O   UNL     1       7.515   5.262  14.909  0.00  0.00    +0.000 OA
ATOM      5  N   UNL     1       7.439   6.003  16.080  0.00  0.00    +0.000 NA
ENDROOT
BRANCH   3   6
ATOM      6  C   UNL     1       6.155   4.046  13.332  0.00  0.00    +0.000 A 
ATOM      7  C   UNL     1       4.893   3.621  12.886  0.00  0.00    +0.000 A 
ATOM      8  C   UNL     1       4.764   2.824  11.747  0.00  0.00    +0.000 A 
ATOM      9  C   UNL     1       5.897   2.435  11.038  0.00  0.00    +0.000 A 
ATOM     10  C   UNL     1       7.158   2.835  11.473  0.00  0.00    +0.000 A 
ATOM     11  C   UNL     1       7.288   3.633  12.614  0.00  0.00    +0.000 A 
ENDBRANCH   3   6
BRANCH   1  12
ATOM     12  C   UNL     1       5.661   6.690  17.646  0.00  0.00    +0.000 C 
BRANCH  12  17
ATOM     13  C   UNL     1       3.240   2.601  20.711  0.00  0.00    +0.000 C 
ATOM     14  C   UNL     1       3.775   3.743  19.888  0.00  0.00    +0.000 A 
ATOM     15  N   UNL     1       5.020   3.521  19.356  0.00  0.00    +0.000 NA
ATOM     16  C   UNL     1       5.555   4.481  18.680  0.00  0.00    +0.000 A 
ATOM     17  N   UNL     1       4.973   5.696  18.452  0.00  0.00    +0.000 N 
ATOM     18  C   UNL     1       3.680   5.933  18.861  0.00  0.00    +0.000 A 
ATOM     19  O   UNL     1       3.050   6.944  18.557  0.00  0.00    +0.000 OA
ATOM     20  C   UNL     1       3.069   4.874  19.706  0.00  0.00    +0.000 A 
ATOM     21  C   UNL     1       1.727   5.149  20.312  0.00  0.00    +0.000 C 
ENDBRANCH  12  17
ENDBRANCH   1  12
TORSDOF 3
ENDMDL
