MODEL 1
REMARK VINA RESULT:      -8.0      0.000      0.000
REMARK  Name = 
REMARK  8 active torsions:
REMARK  status: ('A' for Active; 'I' for Inactive)
REMARK    1  A    between atoms: C_2  and  C_3
REMARK    2  A    between atoms: C_3  and  N_4
REMARK    3  A    between atoms: C_6  and  S_7
REMARK    4  A    between atoms: S_7  and  N_10
REMARK    5  A    between atoms: C_15  and  S_16
REMARK    6  A    between atoms: S_16  and  N_19
REMARK    7  A    between atoms: N_25  and  C_26
REMARK    8  A    between atoms: C_26  and  C_27
REMARK                            x       y       z     vdW  Elec       q    Type
REMARK                         _______ _______ _______ _____ _____    ______ ____
ROOT
ATOM      1  N   UNL     1       2.761   8.249  17.933  0.00  0.00    +0.000 N 
ATOM      2  C   UNL     1       3.743   7.854  17.061  0.00  0.00    +0.000 A 
ATOM      3  C   UNL     1       3.912   6.487  17.199  0.00  0.00    +0.000 A 
ATOM      4  C   UNL     1       2.865   6.016  18.019  0.00  0.00    +0.000 A 
ATOM      5  C   UNL     1       2.224   7.134  18.534  0.00  0.00    +0.000 A 
ENDROOT
BRANCH   3   6
ATOM      6  S   UNL     1       5.215   5.565  16.545  0.00  0.00    +0.000 S 
ATOM      7  O   UNL     1       4.558   4.480  15.862  0.00  0.00    +0.000 OA
ATOM      8  O   UNL     1       6.076   6.520  15.882  0.00  0.00    +0.000 OA
BRANCH   6   9
ATOM      9  N   UNL     1       6.080   4.888  17.847  0.00  0.00    +0.000 NA
ATOM     10  C   UNL     1       6.212   5.712  19.068  0.00  0.00    +0.000 C 
ATOM     11  C   UNL     1       7.675   6.108  19.104  0.00  0.00    +0.000 C 
ATOM     12  C   UNL     1       8.381   4.891  18.541  0.00  0.00    +0.000 C 
ATOM     13  C   UNL     1       7.416   4.338  17.500  0.00  0.00    +0.000 C 
ENDBRANCH   6   9
ENDBRANCH   3   6
BRANCH   4  14
ATOM     14  S   UNL     1       2.445   4.365  18.297  0.00  0.00    +0.000 S 
ATOM     15  O   UNL     1       1.702   3.957  17.134  0.00  0.00    +0.000 OA
ATOM     16  O   UNL     1       3.697   3.725  18.647  0.00  0.00    +0.000 OA
BRANCH  14  17
ATOM     17  N   UNL     1       1.444   4.316  19.664  0.00  0.00    +0.000 NA
ATOM     18  C   UNL     1       1.989   4.838  20.934  0.00  0.00    +0.000 C 
ATOM     19  C   UNL     1       2.322   3.598  21.743  0.00  0.00    +0.000 C 
ATOM     20  C   UNL     1       1.234   2.612  21.358  0.00  0.00    +0.000 C 
ATOM     21  C   UNL     1       0.803   3.009  19.949  0.00  0.00    +0.000 C 
ENDBRANCH  14  17
ENDBRANCH   4  14
BRANCH   1  22
ATOM     22  C   UNL     1       2.245   9.603  18.107  0.00  0.00    +0.000 C 
BRANCH  22  24
ATOM     23  O   UNL     1       0.720   9.525  20.003  0.00  0.00    +0.000 OA
ATOM     24  C   UNL     1       0.899   9.724  18.805  0.00  0.00    +0.000 C 
ATOM     25  N   UNL     1      -0.107  10.196  17.981  0.00  0.00    +0.000 N 
ATOM     26  H   UNL     1       0.007  10.176  16.977  0.00  0.00    +0.000 HD
BRANCH  25  27
ATOM     27  C   UNL     1      -1.448  10.430  18.474  0.00  0.00    +0.000 C 
BRANCH  27  28
ATOM     28  C   UNL     1      -2.384  10.531  17.331  0.00  0.00    +0.000 A 
ATOM     29  C   UNL     1      -2.431   9.925  16.093  0.00  0.00    +0.000 A 
ATOM     30  C   UNL     1      -3.597  10.408  15.454  0.00  0.00    +0.000 A 
ATOM     31  C   UNL     1      -4.183  11.283  16.338  0.00  0.00    +0.000 A 
ATOM     32  O   UNL     1      -3.452  11.370  17.480  0.00  0.00    +0.000 OA
ENDBRANCH  27  28
ENDBRANCH  25  27
ENDBRANCH  22  24
ENDBRANCH   1  22
TORSDOF 8
ENDMDL
MODEL 2
REMARK VINA RESULT:      -8.0      3.737      9.380
REMARK  Name = 
REMARK  8 active torsions:
REMARK  status: ('A' for Active; 'I' for Inactive)
REMARK    1  A    between atoms: C_2  and  C_3
REMARK    2  A    between atoms: C_3  and  N_4
REMARK    3  A    between atoms: C_6  and  S_7
REMARK    4  A    between atoms: S_7  and  N_10
REMARK    5  A    between atoms: C_15  and  S_16
REMARK    6  A    between atoms: S_16  and  N_19
REMARK    7  A    between atoms: N_25  and  C_26
REMARK    8  A    between atoms: C_26  and  C_27
REMARK                            x       y       z     vdW  Elec       q    Type
REMARK                         _______ _______ _______ _____ _____    ______ ____
ROOT
ATOM      1  N   UNL     1       0.536   9.596  20.839  0.00  0.00    +0.000 N 
ATOM      2  C   UNL     1      -0.365   9.887  19.848  0.00  0.00    +0.000 A 
ATOM      3  C   UNL     1      -0.449  11.265  19.739  0.00  0.00    +0.000 A 
ATOM      4  C   UNL     1       0.579  11.812  20.535  0.00  0.00    +0.000 A 
ATOM      5  C   UNL     1       1.113  10.767  21.275  0.00  0.00    +0.000 A 
ENDROOT
BRANCH   3   6
ATOM      6  S   UNL     1      -1.648  12.131  18.851  0.00  0.00    +0.000 S 
ATOM      7  O   UNL     1      -2.434  12.774  19.874  0.00  0.00    +0.000 OA
ATOM      8  O   UNL     1      -0.928  12.855  17.826  0.00  0.00    +0.000 OA
BRANCH   6   9
ATOM      9  N   UNL     1      -2.657  10.992  18.086  0.00  0.00    +0.000 NA
ATOM     10  C   UNL     1      -2.145  10.364  16.849  0.00  0.00    +0.000 C 
ATOM     11  C   UNL     1      -3.002  10.949  15.742  0.00  0.00    +0.000 C 
ATOM     12  C   UNL     1      -4.361  11.099  16.394  0.00  0.00    +0.000 C 
ATOM     13  C   UNL     1      -4.052  11.443  17.845  0.00  0.00    +0.000 C 
ENDBRANCH   6   9
ENDBRANCH   3   6
BRANCH   4  14
ATOM     14  S   UNL     1       1.093  13.460  20.556  0.00  0.00    +0.000 S 
ATOM     15  O   UNL     1      -0.044  14.209  21.020  0.00  0.00    +0.000 OA
ATOM     16  O   UNL     1       2.334  13.445  21.303  0.00  0.00    +0.000 OA
BRANCH  14  17
ATOM     17  N   UNL     1       1.459  13.901  18.960  0.00  0.00    +0.000 NA
ATOM     18  C   UNL     1       2.586  13.212  18.299  0.00  0.00    +0.000 C 
ATOM     19  C   UNL     1       3.713  14.228  18.316  0.00  0.00    +0.000 C 
ATOM     20  C   UNL     1       3.005  15.558  18.138  0.00  0.00    +0.000 C 
ATOM     21  C   UNL     1       1.605  15.355  18.710  0.00  0.00    +0.000 C 
ENDBRANCH  14  17
ENDBRANCH   4  14
BRANCH   1  22
ATOM     22  C   UNL     1       0.949   8.266  21.276  0.00  0.00    +0.000 C 
BRANCH  22  24
ATOM     23  O   UNL     1       2.256   7.928  19.251  0.00  0.00    +0.000 OA
ATOM     24  C   UNL     1       1.809   7.476  20.301  0.00  0.00    +0.000 C 
ATOM     25  N   UNL     1       2.146   6.215  20.760  0.00  0.00    +0.000 N 
ATOM     26  H   UNL     1       1.628   5.797  21.520  0.00  0.00    +0.000 HD
BRANCH  25  27
ATOM     27  C   UNL     1       3.003   5.331  19.998  0.00  0.00    +0.000 C 
BRANCH  27  28
ATOM     28  C   UNL     1       2.219   4.165  19.531  0.00  0.00    +0.000 A 
ATOM     29  C   UNL     1       1.018   3.615  19.928  0.00  0.00    +0.000 A 
ATOM     30  C   UNL     1       0.776   2.518  19.067  0.00  0.00    +0.000 A 
ATOM     31  C   UNL     1       1.846   2.464  18.206  0.00  0.00    +0.000 A 
ATOM     32  O   UNL     1       2.733   3.456  18.482  0.00  0.00    +0.000 OA
ENDBRANCH  27  28
ENDBRANCH  25  27
ENDBRANCH  22  24
ENDBRANCH   1  22
TORSDOF 8
ENDMDL
MODEL 3
REMARK VINA RESULT:      -7.9      3.726      8.701
REMARK  Name = 
REMARK  8 active torsions:
REMARK  status: ('A' for Active; 'I' for Inactive)
REMARK    1  A    between atoms: C_2  and  C_3
REMARK    2  A    between atoms: C_3  and  N_4
REMARK    3  A    between atoms: C_6  and  S_7
REMARK    4  A    between atoms: S_7  and  N_10
REMARK    5  A    between atoms: C_15  and  S_16
REMARK    6  A    between atoms: S_16  and  N_19
REMARK    7  A    between atoms: N_25  and  C_26
REMARK    8  A    between atoms: C_26  and  C_27
REMARK                            x       y       z     vdW  Elec       q    Type
REMARK                         _______ _______ _______ _____ _____    ______ ____
ROOT
ATOM      1  N   UNL     1       0.637   9.578  20.760  0.00  0.00    +0.000 N 
ATOM      2  C   UNL     1       1.079  10.777  21.256  0.00  0.00    +0.000 A 
ATOM      3  C   UNL     1       0.466  11.788  20.537  0.00  0.00    +0.000 A 
ATOM      4  C   UNL     1      -0.526  11.188  19.733  0.00  0.00    +0.000 A 
ATOM      5  C   UNL     1      -0.337   9.817  19.819  0.00  0.00    +0.000 A 
ENDROOT
BRANCH   3   6
ATOM      6  S   UNL     1       0.905  13.456  20.575  0.00  0.00    +0.000 S 
ATOM      7  O   UNL     1      -0.332  14.129  20.879  0.00  0.00    +0.000 OA
ATOM      8  O   UNL     1       2.081  13.532  21.413  0.00  0.00    +0.000 OA
BRANCH   6   9
ATOM      9  N   UNL     1       1.350  13.915  18.996  0.00  0.00    +0.000 NA
ATOM     10  C   UNL     1       2.444  13.153  18.357  0.00  0.00    +0.000 C 
ATOM     11  C   UNL     1       3.607  14.125  18.306  0.00  0.00    +0.000 C 
ATOM     12  C   UNL     1       2.934  15.461  18.060  0.00  0.00    +0.000 C 
ATOM     13  C   UNL     1       1.612  15.365  18.809  0.00  0.00    +0.000 C 
ENDBRANCH   6   9
ENDBRANCH   3   6
BRANCH   4  14
ATOM     14  S   UNL     1      -1.756  12.008  18.841  0.00  0.00    +0.000 S 
ATOM     15  O   UNL     1      -2.568  12.670  19.828  0.00  0.00    +0.000 OA
ATOM     16  O   UNL     1      -1.036  12.764  17.837  0.00  0.00    +0.000 OA
BRANCH  14  17
ATOM     17  N   UNL     1      -2.674  10.831  18.036  0.00  0.00    +0.000 NA
ATOM     18  C   UNL     1      -2.093  10.215  16.826  0.00  0.00    +0.000 C 
ATOM     19  C   UNL     1      -2.832  10.871  15.675  0.00  0.00    +0.000 C 
ATOM     20  C   UNL     1      -4.234  11.077  16.215  0.00  0.00    +0.000 C 
ATOM     21  C   UNL     1      -4.075  11.206  17.727  0.00  0.00    +0.000 C 
ENDBRANCH  14  17
ENDBRANCH   4  14
BRANCH   1  22
ATOM     22  C   UNL     1       1.009   8.249  21.238  0.00  0.00    +0.000 C 
BRANCH  22  24
ATOM     23  O   UNL     1       2.295   7.808  19.218  0.00  0.00    +0.000 OA
ATOM     24  C   UNL     1       1.860   7.411  20.295  0.00  0.00    +0.000 C 
ATOM     25  N   UNL     1       2.203   6.176  20.815  0.00  0.00    +0.000 N 
ATOM     26  H   UNL     1       1.695   5.797  21.602  0.00  0.00    +0.000 HD
BRANCH  25  27
ATOM     27  C   UNL     1       3.054   5.255  20.091  0.00  0.00    +0.000 C 
BRANCH  27  28
ATOM     28  C   UNL     1       2.243   4.120  19.594  0.00  0.00    +0.000 A 
ATOM     29  C   UNL     1       1.080   3.526  20.037  0.00  0.00    +0.000 A 
ATOM     30  C   UNL     1       0.777   2.499  19.112  0.00  0.00    +0.000 A 
ATOM     31  C   UNL     1       1.777   2.527  18.169  0.00  0.00    +0.000 A 
ATOM     32  O   UNL     1       2.676   3.504  18.454  0.00  0.00    +0.000 OA
ENDBRANCH  27  28
ENDBRANCH  25  27
ENDBRANCH  22  24
ENDBRANCH   1  22
TORSDOF 8
ENDMDL
MODEL 4
REMARK VINA RESULT:      -7.8      0.482      4.100
REMARK  Name = 
REMARK  8 active torsions:
REMARK  status: ('A' for Active; 'I' for Inactive)
REMARK    1  A    between atoms: C_2  and  C_3
REMARK    2  A    between atoms: C_3  and  N_4
REMARK    3  A    between atoms: C_6  and  S_7
REMARK    4  A    between atoms: S_7  and  N_10
REMARK    5  A    between atoms: C_15  and  S_16
REMARK    6  A    between atoms: S_16  and  N_19
REMARK    7  A    between atoms: N_25  and  C_26
REMARK    8  A    between atoms: C_26  and  C_27
REMARK                            x       y       z     vdW  Elec       q    Type
REMARK                         _______ _______ _______ _____ _____    ______ ____
ROOT
ATOM      1  N   UNL     1       2.625   8.195  17.866  0.00  0.00    +0.000 N 
ATOM      2  C   UNL     1       2.143   7.077  18.495  0.00  0.00    +0.000 A 
ATOM      3  C   UNL     1       2.832   5.981  18.006  0.00  0.00    +0.000 A 
ATOM      4  C   UNL     1       3.897   6.472  17.221  0.00  0.00    +0.000 A 
ATOM      5  C   UNL     1       3.692   7.836  17.075  0.00  0.00    +0.000 A 
ENDROOT
BRANCH   3   6
ATOM      6  S   UNL     1       2.403   4.329  18.258  0.00  0.00    +0.000 S 
ATOM      7  O   UNL     1       1.532   4.029  17.150  0.00  0.00    +0.000 OA
ATOM      8  O   UNL     1       3.648   3.635  18.504  0.00  0.00    +0.000 OA
BRANCH   6   9
ATOM      9  N   UNL     1       1.459   4.244  19.674  0.00  0.00    +0.000 NA
ATOM     10  C   UNL     1       2.050   4.802  20.909  0.00  0.00    +0.000 C 
ATOM     11  C   UNL     1       2.346   3.590  21.771  0.00  0.00    +0.000 C 
ATOM     12  C   UNL     1       1.204   2.646  21.450  0.00  0.00    +0.000 C 
ATOM     13  C   UNL     1       0.899   2.903  19.981  0.00  0.00    +0.000 C 
ENDBRANCH   6   9
ENDBRANCH   3   6
BRANCH   4  14
ATOM     14  S   UNL     1       5.216   5.553  16.593  0.00  0.00    +0.000 S 
ATOM     15  O   UNL     1       4.616   4.518  15.794  0.00  0.00    +0.000 OA
ATOM     16  O   UNL     1       6.098   6.538  16.001  0.00  0.00    +0.000 OA
BRANCH  14  17
ATOM     17  N   UNL     1       6.029   4.862  17.911  0.00  0.00    +0.000 NA
ATOM     18  C   UNL     1       6.204   5.690  19.121  0.00  0.00    +0.000 C 
ATOM     19  C   UNL     1       7.659   6.119  19.080  0.00  0.00    +0.000 C 
ATOM     20  C   UNL     1       8.372   4.923  18.477  0.00  0.00    +0.000 C 
ATOM     21  C   UNL     1       7.334   4.227  17.602  0.00  0.00    +0.000 C 
ENDBRANCH  14  17
ENDBRANCH   4  14
BRANCH   1  22
ATOM     22  C   UNL     1       2.198   9.573  18.093  0.00  0.00    +0.000 C 
BRANCH  22  24
ATOM     23  O   UNL     1       0.762   9.532  20.058  0.00  0.00    +0.000 OA
ATOM     24  C   UNL     1       0.896   9.755  18.858  0.00  0.00    +0.000 C 
ATOM     25  N   UNL     1      -0.116  10.312  18.098  0.00  0.00    +0.000 N 
ATOM     26  H   UNL     1      -0.051  10.315  17.089  0.00  0.00    +0.000 HD
BRANCH  25  27
ATOM     27  C   UNL     1      -1.415  10.613  18.662  0.00  0.00    +0.000 C 
BRANCH  27  28
ATOM     28  C   UNL     1      -2.424  10.666  17.579  0.00  0.00    +0.000 A 
ATOM     29  C   UNL     1      -3.795  10.809  17.575  0.00  0.00    +0.000 A 
ATOM     30  C   UNL     1      -4.192  10.821  16.216  0.00  0.00    +0.000 A 
ATOM     31  C   UNL     1      -3.040  10.676  15.480  0.00  0.00    +0.000 A 
ATOM     32  O   UNL     1      -1.960  10.575  16.298  0.00  0.00    +0.000 OA
ENDBRANCH  27  28
ENDBRANCH  25  27
ENDBRANCH  22  24
ENDBRANCH   1  22
TORSDOF 8
ENDMDL
MODEL 5
REMARK VINA RESULT:      -7.8      1.079      4.337
REMARK  Name = 
REMARK  8 active torsions:
REMARK  status: ('A' for Active; 'I' for Inactive)
REMARK    1  A    between atoms: C_2  and  C_3
REMARK    2  A    between atoms: C_3  and  N_4
REMARK    3  A    between atoms: C_6  and  S_7
REMARK    4  A    between atoms: S_7  and  N_10
REMARK    5  A    between atoms: C_15  and  S_16
REMARK    6  A    between atoms: S_16  and  N_19
REMARK    7  A    between atoms: N_25  and  C_26
REMARK    8  A    between atoms: C_26  and  C_27
REMARK                            x       y       z     vdW  Elec       q    Type
REMARK                         _______ _______ _______ _____ _____    ______ ____
ROOT
ATOM      1  N   UNL     1       3.293   7.743  17.714  0.00  0.00    +0.000 N 
ATOM      2  C   UNL     1       3.223   6.753  18.660  0.00  0.00    +0.000 A 
ATOM      3  C   UNL     1       3.889   5.644  18.167  0.00  0.00    +0.000 A 
ATOM      4  C   UNL     1       4.554   6.045  16.989  0.00  0.00    +0.000 A 
ATOM      5  C   UNL     1       4.096   7.318  16.681  0.00  0.00    +0.000 A 
ENDROOT
BRANCH   3   6
ATOM      6  S   UNL     1       3.835   4.057  18.841  0.00  0.00    +0.000 S 
ATOM      7  O   UNL     1       3.229   3.264  17.801  0.00  0.00    +0.000 OA
ATOM      8  O   UNL     1       5.162   3.809  19.363  0.00  0.00    +0.000 OA
BRANCH   6   9
ATOM      9  N   UNL     1       2.747   4.083  20.151  0.00  0.00    +0.000 NA
ATOM     10  C   UNL     1       2.983   3.110  21.240  0.00  0.00    +0.000 C 
ATOM     11  C   UNL     1       1.848   2.113  21.113  0.00  0.00    +0.000 C 
ATOM     12  C   UNL     1       0.680   2.968  20.663  0.00  0.00    +0.000 C 
ATOM     13  C   UNL     1       1.309   4.038  19.780  0.00  0.00    +0.000 C 
ENDBRANCH   6   9
ENDBRANCH   3   6
BRANCH   4  14
ATOM     14  S   UNL     1       5.737   5.136  16.119  0.00  0.00    +0.000 S 
ATOM     15  O   UNL     1       5.448   3.756  16.410  0.00  0.00    +0.000 OA
ATOM     16  O   UNL     1       5.664   5.644  14.765  0.00  0.00    +0.000 OA
BRANCH  14  17
ATOM     17  N   UNL     1       7.258   5.549  16.742  0.00  0.00    +0.000 NA
ATOM     18  C   UNL     1       7.731   4.822  17.938  0.00  0.00    +0.000 C 
ATOM     19  C   UNL     1       7.545   5.806  19.078  0.00  0.00    +0.000 C 
ATOM     20  C   UNL     1       7.840   7.153  18.446  0.00  0.00    +0.000 C 
ATOM     21  C   UNL     1       7.492   6.996  16.968  0.00  0.00    +0.000 C 
ENDBRANCH  14  17
ENDBRANCH   4  14
BRANCH   1  22
ATOM     22  C   UNL     1       2.743   9.091  17.825  0.00  0.00    +0.000 C 
BRANCH  22  24
ATOM     23  O   UNL     1       1.398   8.885  19.843  0.00  0.00    +0.000 OA
ATOM     24  C   UNL     1       1.487   9.237  18.670  0.00  0.00    +0.000 C 
ATOM     25  N   UNL     1       0.466   9.915  18.028  0.00  0.00    +0.000 N 
ATOM     26  H   UNL     1       0.486  10.029  17.024  0.00  0.00    +0.000 HD
BRANCH  25  27
ATOM     27  C   UNL     1      -0.791  10.201  18.687  0.00  0.00    +0.000 C 
BRANCH  27  28
ATOM     28  C   UNL     1      -1.850  10.387  17.669  0.00  0.00    +0.000 A 
ATOM     29  C   UNL     1      -2.161   9.727  16.499  0.00  0.00    +0.000 A 
ATOM     30  C   UNL     1      -3.317  10.356  15.979  0.00  0.00    +0.000 A 
ATOM     31  C   UNL     1      -3.633  11.363  16.860  0.00  0.00    +0.000 A 
ATOM     32  O   UNL     1      -2.746  11.395  17.888  0.00  0.00    +0.000 OA
ENDBRANCH  27  28
ENDBRANCH  25  27
ENDBRANCH  22  24
ENDBRANCH   1  22
TORSDOF 8
ENDMDL
MODEL 6
REMARK VINA RESULT:      -7.8      2.070      5.021
REMARK  Name = 
REMARK  8 active torsions:
REMARK  status: ('A' for Active; 'I' for Inactive)
REMARK    1  A    between atoms: C_2  and  C_3
REMARK    2  A    between atoms: C_3  and  N_4
REMARK    3  A    between atoms: C_6  and  S_7
REMARK    4  A    between atoms: S_7  and  N_10
REMARK    5  A    between atoms: C_15  and  S_16
REMARK    6  A    between atoms: S_16  and  N_19
REMARK    7  A    between atoms: N_25  and  C_26
REMARK    8  A    between atoms: C_26  and  C_27
REMARK                            x       y       z     vdW  Elec       q    Type
REMARK                         _______ _______ _______ _____ _____    ______ ____
ROOT
ATOM      1  N   UNL     1       3.377   7.847  17.654  0.00  0.00    +0.000 N 
ATOM      2  C   UNL     1       3.088   6.794  18.484  0.00  0.00    +0.000 A 
ATOM      3  C   UNL     1       3.678   5.659  17.956  0.00  0.00    +0.000 A 
ATOM      4  C   UNL     1       4.516   6.076  16.900  0.00  0.00    +0.000 A 
ATOM      5  C   UNL     1       4.242   7.417  16.674  0.00  0.00    +0.000 A 
ENDROOT
BRANCH   3   6
ATOM      6  S   UNL     1       3.369   4.039  18.459  0.00  0.00    +0.000 S 
ATOM      7  O   UNL     1       2.872   3.398  17.268  0.00  0.00    +0.000 OA
ATOM      8  O   UNL     1       4.563   3.611  19.155  0.00  0.00    +0.000 OA
BRANCH   6   9
ATOM      9  N   UNL     1       2.087   4.075  19.580  0.00  0.00    +0.000 NA
ATOM     10  C   UNL     1       2.409   4.513  20.956  0.00  0.00    +0.000 C 
ATOM     11  C   UNL     1       2.291   3.254  21.794  0.00  0.00    +0.000 C 
ATOM     12  C   UNL     1       1.149   2.504  21.138  0.00  0.00    +0.000 C 
ATOM     13  C   UNL     1       1.278   2.832  19.657  0.00  0.00    +0.000 C 
ENDBRANCH   6   9
ENDBRANCH   3   6
BRANCH   4  14
ATOM     14  S   UNL     1       5.682   5.107  16.073  0.00  0.00    +0.000 S 
ATOM     15  O   UNL     1       5.314   3.744  16.352  0.00  0.00    +0.000 OA
ATOM     16  O   UNL     1       5.686   5.618  14.718  0.00  0.00    +0.000 OA
BRANCH  14  17
ATOM     17  N   UNL     1       7.199   5.442  16.753  0.00  0.00    +0.000 NA
ATOM     18  C   UNL     1       7.608   4.662  17.938  0.00  0.00    +0.000 C 
ATOM     19  C   UNL     1       7.425   5.617  19.103  0.00  0.00    +0.000 C 
ATOM     20  C   UNL     1       7.789   6.971  18.522  0.00  0.00    +0.000 C 
ATOM     21  C   UNL     1       7.479   6.872  17.031  0.00  0.00    +0.000 C 
ENDBRANCH  14  17
ENDBRANCH   4  14
BRANCH   1  22
ATOM     22  C   UNL     1       2.973   9.237  17.839  0.00  0.00    +0.000 C 
BRANCH  22  24
ATOM     23  O   UNL     1       0.591   8.840  17.529  0.00  0.00    +0.000 OA
ATOM     24  C   UNL     1       1.489   9.480  18.070  0.00  0.00    +0.000 C 
ATOM     25  N   UNL     1       1.230  10.426  19.045  0.00  0.00    +0.000 N 
ATOM     26  H   UNL     1       1.957  11.063  19.340  0.00  0.00    +0.000 HD
BRANCH  25  27
ATOM     27  C   UNL     1      -0.121  10.757  19.446  0.00  0.00    +0.000 C 
BRANCH  27  28
ATOM     28  C   UNL     1      -0.318  10.395  20.868  0.00  0.00    +0.000 A 
ATOM     29  C   UNL     1      -0.577  11.135  22.003  0.00  0.00    +0.000 A 
ATOM     30  C   UNL     1      -0.696  10.209  23.066  0.00  0.00    +0.000 A 
ATOM     31  C   UNL     1      -0.494   8.966  22.515  0.00  0.00    +0.000 A 
ATOM     32  O   UNL     1      -0.257   9.067  21.181  0.00  0.00    +0.000 OA
ENDBRANCH  27  28
ENDBRANCH  25  27
ENDBRANCH  22  24
ENDBRANCH   1  22
TORSDOF 8
ENDMDL
MODEL 7
REMARK VINA RESULT:      -7.6      1.506      2.165
REMARK  Name = 
REMARK  8 active torsions:
REMARK  status: ('A' for Active; 'I' for Inactive)
REMARK    1  A    between atoms: C_2  and  C_3
REMARK    2  A    between atoms: C_3  and  N_4
REMARK    3  A    between atoms: C_6  and  S_7
REMARK    4  A    between atoms: S_7  and  N_10
REMARK    5  A    between atoms: C_15  and  S_16
REMARK    6  A    between atoms: S_16  and  N_19
REMARK    7  A    between atoms: N_25  and  C_26
REMARK    8  A    between atoms: C_26  and  C_27
REMARK                            x       y       z     vdW  Elec       q    Type
REMARK                         _______ _______ _______ _____ _____    ______ ____
ROOT
ATOM      1  N   UNL     1       2.819   8.086  17.912  0.00  0.00    +0.000 N 
ATOM      2  C   UNL     1       4.119   7.770  17.614  0.00  0.00    +0.000 A 
ATOM      3  C   UNL     1       4.260   6.397  17.718  0.00  0.00    +0.000 A 
ATOM      4  C   UNL     1       2.968   5.854  17.877  0.00  0.00    +0.000 A 
ATOM      5  C   UNL     1       2.107   6.921  18.087  0.00  0.00    +0.000 A 
ENDROOT
BRANCH   3   6
ATOM      6  S   UNL     1       5.757   5.539  17.731  0.00  0.00    +0.000 S 
ATOM      7  O   UNL     1       6.617   6.362  18.543  0.00  0.00    +0.000 OA
ATOM      8  O   UNL     1       5.420   4.171  18.059  0.00  0.00    +0.000 OA
BRANCH   6   9
ATOM      9  N   UNL     1       6.387   5.565  16.149  0.00  0.00    +0.000 NA
ATOM     10  C   UNL     1       5.440   5.859  15.052  0.00  0.00    +0.000 C 
ATOM     11  C   UNL     1       5.293   4.543  14.312  0.00  0.00    +0.000 C 
ATOM     12  C   UNL     1       6.676   3.931  14.409  0.00  0.00    +0.000 C 
ATOM     13  C   UNL     1       7.195   4.377  15.770  0.00  0.00    +0.000 C 
ENDBRANCH   6   9
ENDBRANCH   3   6
BRANCH   4  14
ATOM     14  S   UNL     1       2.541   4.184  17.792  0.00  0.00    +0.000 S 
ATOM     15  O   UNL     1       1.115   4.162  17.600  0.00  0.00    +0.000 OA
ATOM     16  O   UNL     1       3.437   3.629  16.799  0.00  0.00    +0.000 OA
BRANCH  14  17
ATOM     17  N   UNL     1       2.930   3.481  19.285  0.00  0.00    +0.000 NA
ATOM     18  C   UNL     1       2.194   2.264  19.684  0.00  0.00    +0.000 C 
ATOM     19  C   UNL     1       1.203   2.745  20.727  0.00  0.00    +0.000 C 
ATOM     20  C   UNL     1       1.952   3.843  21.459  0.00  0.00    +0.000 C 
ATOM     21  C   UNL     1       2.948   4.402  20.447  0.00  0.00    +0.000 C 
ENDBRANCH  14  17
ENDBRANCH   4  14
BRANCH   1  22
ATOM     22  C   UNL     1       2.223   9.419  17.905  0.00  0.00    +0.000 C 
BRANCH  22  24
ATOM     23  O   UNL     1       0.888   9.441  19.940  0.00  0.00    +0.000 OA
ATOM     24  C   UNL     1       0.952   9.590  18.723  0.00  0.00    +0.000 C 
ATOM     25  N   UNL     1      -0.122  10.047  17.982  0.00  0.00    +0.000 N 
ATOM     26  H   UNL     1      -0.106   9.986  16.973  0.00  0.00    +0.000 HD
BRANCH  25  27
ATOM     27  C   UNL     1      -1.406  10.324  18.592  0.00  0.00    +0.000 C 
BRANCH  27  28
ATOM     28  C   UNL     1      -2.409  10.588  17.535  0.00  0.00    +0.000 A 
ATOM     29  C   UNL     1      -3.625  11.238  17.530  0.00  0.00    +0.000 A 
ATOM     30  C   UNL     1      -4.100  11.190  16.198  0.00  0.00    +0.000 A 
ATOM     31  C   UNL     1      -3.149  10.507  15.477  0.00  0.00    +0.000 A 
ATOM     32  O   UNL     1      -2.119  10.131  16.281  0.00  0.00    +0.000 OA
ENDBRANCH  27  28
ENDBRANCH  25  27
ENDBRANCH  22  24
ENDBRANCH   1  22
TORSDOF 8
ENDMDL
MODEL 8
REMARK VINA RESULT:      -7.5      1.411      4.273
REMARK  Name = 
REMARK  8 active torsions:
REMARK  status: ('A' for Active; 'I' for Inactive)
REMARK    1  A    between atoms: C_2  and  C_3
REMARK    2  A    between atoms: C_3  and  N_4
REMARK    3  A    between atoms: C_6  and  S_7
REMARK    4  A    between atoms: S_7  and  N_10
REMARK    5  A    between atoms: C_15  and  S_16
REMARK    6  A    between atoms: S_16  and  N_19
REMARK    7  A    between atoms: N_25  and  C_26
REMARK    8  A    between atoms: C_26  and  C_27
REMARK                            x       y       z     vdW  Elec       q    Type
REMARK                         _______ _______ _______ _____ _____    ______ ____
ROOT
ATOM      1  N   UNL     1       2.703   7.993  17.783  0.00  0.00    +0.000 N 
ATOM      2  C   UNL     1       2.009   6.837  18.033  0.00  0.00    +0.000 A 
ATOM      3  C   UNL     1       2.889   5.775  17.903  0.00  0.00    +0.000 A 
ATOM      4  C   UNL     1       4.185   6.318  17.780  0.00  0.00    +0.000 A 
ATOM      5  C   UNL     1       4.033   7.687  17.615  0.00  0.00    +0.000 A 
ENDROOT
BRANCH   3   6
ATOM      6  S   UNL     1       2.448   4.109  17.827  0.00  0.00    +0.000 S 
ATOM      7  O   UNL     1       1.012   4.139  17.714  0.00  0.00    +0.000 OA
ATOM      8  O   UNL     1       3.315   3.521  16.829  0.00  0.00    +0.000 OA
BRANCH   6   9
ATOM      9  N   UNL     1       2.817   3.402  19.332  0.00  0.00    +0.000 NA
ATOM     10  C   UNL     1       2.018   2.226  19.736  0.00  0.00    +0.000 C 
ATOM     11  C   UNL     1       1.153   2.726  20.878  0.00  0.00    +0.000 C 
ATOM     12  C   UNL     1       2.053   3.716  21.589  0.00  0.00    +0.000 C 
ATOM     13  C   UNL     1       2.881   4.347  20.477  0.00  0.00    +0.000 C 
ENDBRANCH   6   9
ENDBRANCH   3   6
BRANCH   4  14
ATOM     14  S   UNL     1       5.673   5.445  17.854  0.00  0.00    +0.000 S 
ATOM     15  O   UNL     1       6.495   6.168  18.788  0.00  0.00    +0.000 OA
ATOM     16  O   UNL     1       5.279   4.075  18.110  0.00  0.00    +0.000 OA
BRANCH  14  17
ATOM     17  N   UNL     1       6.374   5.499  16.311  0.00  0.00    +0.000 NA
ATOM     18  C   UNL     1       5.518   5.914  15.182  0.00  0.00    +0.000 C 
ATOM     19  C   UNL     1       5.199   4.622  14.452  0.00  0.00    +0.000 C 
ATOM     20  C   UNL     1       6.465   3.800  14.603  0.00  0.00    +0.000 C 
ATOM     21  C   UNL     1       7.114   4.282  15.897  0.00  0.00    +0.000 C 
ENDBRANCH  14  17
ENDBRANCH   4  14
BRANCH   1  22
ATOM     22  C   UNL     1       2.172   9.352  17.830  0.00  0.00    +0.000 C 
BRANCH  22  24
ATOM     23  O   UNL     1       0.823   9.358  19.856  0.00  0.00    +0.000 OA
ATOM     24  C   UNL     1       0.904   9.550  18.647  0.00  0.00    +0.000 C 
ATOM     25  N   UNL     1      -0.143  10.082  17.916  0.00  0.00    +0.000 N 
ATOM     26  H   UNL     1      -0.122  10.058  16.906  0.00  0.00    +0.000 HD
BRANCH  25  27
ATOM     27  C   UNL     1      -1.418  10.393  18.528  0.00  0.00    +0.000 C 
BRANCH  27  28
ATOM     28  C   UNL     1      -2.429  10.625  17.472  0.00  0.00    +0.000 A 
ATOM     29  C   UNL     1      -2.413  10.478  16.101  0.00  0.00    +0.000 A 
ATOM     30  C   UNL     1      -3.705  10.829  15.644  0.00  0.00    +0.000 A 
ATOM     31  C   UNL     1      -4.425  11.176  16.763  0.00  0.00    +0.000 A 
ATOM     32  O   UNL     1      -3.658  11.062  17.879  0.00  0.00    +0.000 OA
ENDBRANCH  27  28
ENDBRANCH  25  27
ENDBRANCH  22  24
ENDBRANCH   1  22
TORSDOF 8
ENDMDL
MODEL 9
REMARK VINA RESULT:      -7.5      2.267      4.951
REMARK  Name = 
REMARK  8 active torsions:
REMARK  status: ('A' for Active; 'I' for Inactive)
REMARK    1  A    between atoms: C_2  and  C_3
REMARK    2  A    between atoms: C_3  and  N_4
REMARK    3  A    between atoms: C_6  and  S_7
REMARK    4  A    between atoms: S_7  and  N_10
REMARK    5  A    between atoms: C_15  and  S_16
REMARK    6  A    between atoms: S_16  and  N_19
REMARK    7  A    between atoms: N_25  and  C_26
REMARK    8  A    between atoms: C_26  and  C_27
REMARK                            x       y       z     vdW  Elec       q    Type
REMARK                         _______ _______ _______ _____ _____    ______ ____
ROOT
ATOM      1  N   UNL     1       3.301   7.768  17.719  0.00  0.00    +0.000 N 
ATOM      2  C   UNL     1       3.056   6.690  18.530  0.00  0.00    +0.000 A 
ATOM      3  C   UNL     1       3.676   5.586  17.972  0.00  0.00    +0.000 A 
ATOM      4  C   UNL     1       4.487   6.051  16.914  0.00  0.00    +0.000 A 
ATOM      5  C   UNL     1       4.166   7.387  16.720  0.00  0.00    +0.000 A 
ENDROOT
BRANCH   3   6
ATOM      6  S   UNL     1       3.426   3.946  18.445  0.00  0.00    +0.000 S 
ATOM      7  O   UNL     1       3.027   3.294  17.224  0.00  0.00    +0.000 OA
ATOM      8  O   UNL     1       4.602   3.574  19.201  0.00  0.00    +0.000 OA
BRANCH   6   9
ATOM      9  N   UNL     1       2.086   3.905  19.497  0.00  0.00    +0.000 NA
ATOM     10  C   UNL     1       2.237   4.578  20.804  0.00  0.00    +0.000 C 
ATOM     11  C   UNL     1       2.283   3.446  21.813  0.00  0.00    +0.000 C 
ATOM     12  C   UNL     1       1.334   2.419  21.230  0.00  0.00    +0.000 C 
ATOM     13  C   UNL     1       1.501   2.558  19.722  0.00  0.00    +0.000 C 
ENDBRANCH   6   9
ENDBRANCH   3   6
BRANCH   4  14
ATOM     14  S   UNL     1       5.672   5.137  16.054  0.00  0.00    +0.000 S 
ATOM     15  O   UNL     1       5.344   3.758  16.299  0.00  0.00    +0.000 OA
ATOM     16  O   UNL     1       5.650   5.684  14.712  0.00  0.00    +0.000 OA
BRANCH  14  17
ATOM     17  N   UNL     1       7.184   5.497  16.730  0.00  0.00    +0.000 NA
ATOM     18  C   UNL     1       7.611   4.719  17.911  0.00  0.00    +0.000 C 
ATOM     19  C   UNL     1       7.414   5.665  19.081  0.00  0.00    +0.000 C 
ATOM     20  C   UNL     1       7.751   7.028  18.505  0.00  0.00    +0.000 C 
ATOM     21  C   UNL     1       7.439   6.930  17.015  0.00  0.00    +0.000 C 
ENDBRANCH  14  17
ENDBRANCH   4  14
BRANCH   1  22
ATOM     22  C   UNL     1       2.854   9.141  17.938  0.00  0.00    +0.000 C 
BRANCH  22  24
ATOM     23  O   UNL     1       0.460   9.221  17.503  0.00  0.00    +0.000 OA
ATOM     24  C   UNL     1       1.388   9.320  18.301  0.00  0.00    +0.000 C 
ATOM     25  N   UNL     1       1.174   9.496  19.657  0.00  0.00    +0.000 N 
ATOM     26  H   UNL     1       1.940   9.757  20.262  0.00  0.00    +0.000 HD
BRANCH  25  27
ATOM     27  C   UNL     1      -0.158   9.630  20.206  0.00  0.00    +0.000 C 
BRANCH  27  28
ATOM     28  C   UNL     1      -0.268  10.918  20.928  0.00  0.00    +0.000 A 
ATOM     29  C   UNL     1      -0.769  11.267  22.165  0.00  0.00    +0.000 A 
ATOM     30  C   UNL     1      -0.557  12.659  22.306  0.00  0.00    +0.000 A 
ATOM     31  C   UNL     1       0.052  13.072  21.144  0.00  0.00    +0.000 A 
ATOM     32  O   UNL     1       0.228  12.024  20.298  0.00  0.00    +0.000 OA
ENDBRANCH  27  28
ENDBRANCH  25  27
ENDBRANCH  22  24
ENDBRANCH   1  22
TORSDOF 8
ENDMDL
