MODEL 1
REMARK VINA RESULT:      -9.2      0.000      0.000
REMARK  Name = 
REMARK  7 active torsions:
REMARK  status: ('A' for Active; 'I' for Inactive)
REMARK    1  A    between atoms: N_1  and  C_2
REMARK    2  A    between atoms: N_5  and  C_6
REMARK    3  A    between atoms: C_6  and  C_7
REMARK    4  A    between atoms: C_10  and  C_11
REMARK    5  A    between atoms: C_11  and  N_12
REMARK    6  A    between atoms: N_12  and  S_13
REMARK    7  A    between atoms: S_13  and  C_16
REMARK                            x       y       z     vdW  Elec       q    Type
REMARK                         _______ _______ _______ _____ _____    ______ ____
ROOT
ATOM      1  C   UNL     1       1.463   8.449  18.803  0.00  0.00    +0.000 C 
ATOM      2  C   UNL     1       2.608   7.700  18.105  0.00  0.00    +0.000 C 
ATOM      3  C   UNL     1       2.639   6.233  18.498  0.00  0.00    +0.000 C 
ATOM      4  C   UNL     1       2.766   6.038  20.017  0.00  0.00    +0.000 C 
ATOM      5  C   UNL     1       1.651   6.816  20.742  0.00  0.00    +0.000 C 
ATOM      6  C   UNL     1       1.602   8.294  20.326  0.00  0.00    +0.000 C 
ENDROOT
BRANCH   1   7
ATOM      7  C   UNL     1       1.468   9.903  18.305  0.00  0.00    +0.000 C 
BRANCH   7  11
ATOM      8  C   UNL     1      -1.367  12.113  20.355  0.00  0.00    +0.000 A 
ATOM      9  N   UNL     1      -0.416  11.446  19.694  0.00  0.00    +0.000 NA
ATOM     10  C   UNL     1      -0.754  10.890  18.525  0.00  0.00    +0.000 A 
ATOM     11  N   UNL     1       0.200  10.295  17.738  0.00  0.00    +0.000 N 
ATOM     12  N   UNL     1      -1.990  10.906  18.017  0.00  0.00    +0.000 NA
ATOM     13  C   UNL     1      -2.930  11.579  18.684  0.00  0.00    +0.000 A 
ATOM     14  C   UNL     1      -4.219  11.630  18.165  0.00  0.00    +0.000 A 
ATOM     15  C   UNL     1      -5.236  12.362  18.782  0.00  0.00    +0.000 A 
ATOM     16  C   UNL     1      -4.973  13.056  19.957  0.00  0.00    +0.000 A 
ATOM     17  C   UNL     1      -3.701  12.989  20.518  0.00  0.00    +0.000 A 
ATOM     18  C   UNL     1      -2.672  12.250  19.884  0.00  0.00    +0.000 A 
ATOM     19  H   UNL     1      -0.215   9.744  17.001  0.00  0.00    +0.000 HD
BRANCH   8  20
ATOM     20  N   UNL     1      -0.959  12.654  21.582  0.00  0.00    +0.000 N 
ATOM     21  H   UNL     1      -0.553  11.890  22.115  0.00  0.00    +0.000 HD
ATOM     22  H   UNL     1      -0.297  13.408  21.449  0.00  0.00    +0.000 HD
ENDBRANCH   8  20
ENDBRANCH   7  11
ENDBRANCH   1   7
BRANCH   4  23
ATOM     23  C   UNL     1       2.754   4.525  20.302  0.00  0.00    +0.000 C 
BRANCH  23  24
ATOM     24  N   UNL     1       2.638   3.737  19.070  0.00  0.00    +0.000 NA
ATOM     25  H   UNL     1       2.245   4.203  18.253  0.00  0.00    +0.000 HD
BRANCH  24  26
ATOM     26  S   UNL     1       3.997   2.841  18.607  0.00  0.00    +0.000 S 
ATOM     27  O   UNL     1       4.812   2.700  19.792  0.00  0.00    +0.000 OA
ATOM     28  O   UNL     1       3.520   1.676  17.892  0.00  0.00    +0.000 OA
BRANCH  26  29
ATOM     29  C   UNL     1       4.860   3.906  17.467  0.00  0.00    +0.000 A 
ATOM     30  C   UNL     1       4.538   3.761  16.106  0.00  0.00    +0.000 A 
ATOM     31  C   UNL     1       5.224   4.490  15.144  0.00  0.00    +0.000 A 
ATOM     32  C   UNL     1       6.234   5.364  15.534  0.00  0.00    +0.000 A 
ATOM     33  C   UNL     1       6.568   5.533  16.885  0.00  0.00    +0.000 A 
ATOM     34  C   UNL     1       7.594   6.428  17.231  0.00  0.00    +0.000 A 
ATOM     35  C   UNL     1       7.957   6.629  18.559  0.00  0.00    +0.000 A 
ATOM     36  C   UNL     1       7.300   5.932  19.562  0.00  0.00    +0.000 A 
ATOM     37  C   UNL     1       6.282   5.031  19.234  0.00  0.00    +0.000 A 
ATOM     38  C   UNL     1       5.882   4.802  17.892  0.00  0.00    +0.000 A 
ENDBRANCH  26  29
ENDBRANCH  24  26
ENDBRANCH  23  24
ENDBRANCH   4  23
TORSDOF 7
ENDMDL
MODEL 2
REMARK VINA RESULT:      -9.0      2.561      3.166
REMARK  Name = 
REMARK  7 active torsions:
REMARK  status: ('A' for Active; 'I' for Inactive)
REMARK    1  A    between atoms: N_1  and  C_2
REMARK    2  A    between atoms: N_5  and  C_6
REMARK    3  A    between atoms: C_6  and  C_7
REMARK    4  A    between atoms: C_10  and  C_11
REMARK    5  A    between atoms: C_11  and  N_12
REMARK    6  A    between atoms: N_12  and  S_13
REMARK    7  A    between atoms: S_13  and  C_16
REMARK                            x       y       z     vdW  Elec       q    Type
REMARK                         _______ _______ _______ _____ _____    ______ ____
ROOT
ATOM      1  C   UNL     1       1.693   8.853  18.513  0.00  0.00    +0.000 C 
ATOM      2  C   UNL     1       2.687   7.902  17.831  0.00  0.00    +0.000 C 
ATOM      3  C   UNL     1       2.416   6.452  18.195  0.00  0.00    +0.000 C 
ATOM      4  C   UNL     1       2.457   6.215  19.714  0.00  0.00    +0.000 C 
ATOM      5  C   UNL     1       1.496   7.188  20.424  0.00  0.00    +0.000 C 
ATOM      6  C   UNL     1       1.752   8.653  20.036  0.00  0.00    +0.000 C 
ENDROOT
BRANCH   1   7
ATOM      7  C   UNL     1       1.999  10.284  18.045  0.00  0.00    +0.000 C 
BRANCH   7  11
ATOM      8  C   UNL     1       2.567  14.382  18.132  0.00  0.00    +0.000 A 
ATOM      9  N   UNL     1       2.389  13.060  18.046  0.00  0.00    +0.000 NA
ATOM     10  C   UNL     1       1.278  12.551  18.591  0.00  0.00    +0.000 A 
ATOM     11  N   UNL     1       0.974  11.223  18.434  0.00  0.00    +0.000 N 
ATOM     12  N   UNL     1       0.379  13.271  19.268  0.00  0.00    +0.000 NA
ATOM     13  C   UNL     1       0.564  14.591  19.344  0.00  0.00    +0.000 A 
ATOM     14  C   UNL     1      -0.370  15.365  20.023  0.00  0.00    +0.000 A 
ATOM     15  C   UNL     1      -0.266  16.756  20.094  0.00  0.00    +0.000 A 
ATOM     16  C   UNL     1       0.802  17.401  19.483  0.00  0.00    +0.000 A 
ATOM     17  C   UNL     1       1.772  16.645  18.830  0.00  0.00    +0.000 A 
ATOM     18  C   UNL     1       1.657  15.236  18.757  0.00  0.00    +0.000 A 
ATOM     19  H   UNL     1       0.235  10.932  19.057  0.00  0.00    +0.000 HD
BRANCH   8  20
ATOM     20  N   UNL     1       3.757  14.853  17.563  0.00  0.00    +0.000 N 
ATOM     21  H   UNL     1       3.560  15.785  17.208  0.00  0.00    +0.000 HD
ATOM     22  H   UNL     1       4.509  14.866  18.242  0.00  0.00    +0.000 HD
ENDBRANCH   8  20
ENDBRANCH   7  11
ENDBRANCH   1   7
BRANCH   4  23
ATOM     23  C   UNL     1       2.137   4.731  19.968  0.00  0.00    +0.000 C 
BRANCH  23  24
ATOM     24  N   UNL     1       3.313   3.990  20.439  0.00  0.00    +0.000 NA
ATOM     25  H   UNL     1       3.266   3.588  21.374  0.00  0.00    +0.000 HD
BRANCH  24  26
ATOM     26  S   UNL     1       3.979   2.858  19.371  0.00  0.00    +0.000 S 
ATOM     27  O   UNL     1       5.091   2.251  20.068  0.00  0.00    +0.000 OA
ATOM     28  O   UNL     1       2.889   2.049  18.868  0.00  0.00    +0.000 OA
BRANCH  26  29
ATOM     29  C   UNL     1       4.634   3.842  18.037  0.00  0.00    +0.000 A 
ATOM     30  C   UNL     1       4.077   3.625  16.765  0.00  0.00    +0.000 A 
ATOM     31  C   UNL     1       4.588   4.287  15.657  0.00  0.00    +0.000 A 
ATOM     32  C   UNL     1       5.655   5.166  15.811  0.00  0.00    +0.000 A 
ATOM     33  C   UNL     1       6.222   5.406  17.071  0.00  0.00    +0.000 A 
ATOM     34  C   UNL     1       7.298   6.303  17.178  0.00  0.00    +0.000 A 
ATOM     35  C   UNL     1       7.889   6.574  18.407  0.00  0.00    +0.000 A 
ATOM     36  C   UNL     1       7.415   5.946  19.549  0.00  0.00    +0.000 A 
ATOM     37  C   UNL     1       6.350   5.044  19.459  0.00  0.00    +0.000 A 
ATOM     38  C   UNL     1       5.719   4.745  18.224  0.00  0.00    +0.000 A 
ENDBRANCH  26  29
ENDBRANCH  24  26
ENDBRANCH  23  24
ENDBRANCH   4  23
TORSDOF 7
ENDMDL
MODEL 3
REMARK VINA RESULT:      -8.8      4.888     11.465
REMARK  Name = 
REMARK  7 active torsions:
REMARK  status: ('A' for Active; 'I' for Inactive)
REMARK    1  A    between atoms: N_1  and  C_2
REMARK    2  A    between atoms: N_5  and  C_6
REMARK    3  A    between atoms: C_6  and  C_7
REMARK    4  A    between atoms: C_10  and  C_11
REMARK    5  A    between atoms: C_11  and  N_12
REMARK    6  A    between atoms: N_12  and  S_13
REMARK    7  A    between atoms: S_13  and  C_16
REMARK                            x       y       z     vdW  Elec       q    Type
REMARK                         _______ _______ _______ _____ _____    ______ ____
ROOT
ATOM      1  C   UNL     1       0.204   8.781  21.305  0.00  0.00    +0.000 C 
ATOM      2  C   UNL     1       0.312   9.274  22.755  0.00  0.00    +0.000 C 
ATOM      3  C   UNL     1      -0.825  10.216  23.112  0.00  0.00    +0.000 C 
ATOM      4  C   UNL     1      -0.892  11.432  22.174  0.00  0.00    +0.000 C 
ATOM      5  C   UNL     1      -0.960  10.961  20.708  0.00  0.00    +0.000 C 
ATOM      6  C   UNL     1       0.175   9.988  20.353  0.00  0.00    +0.000 C 
ENDROOT
BRANCH   1   7
ATOM      7  C   UNL     1       1.352   7.793  21.048  0.00  0.00    +0.000 C 
BRANCH   7  11
ATOM      8  C   UNL     1       2.968   4.710  18.809  0.00  0.00    +0.000 A 
ATOM      9  N   UNL     1       2.393   5.682  19.524  0.00  0.00    +0.000 NA
ATOM     10  C   UNL     1       2.618   6.944  19.141  0.00  0.00    +0.000 A 
ATOM     11  N   UNL     1       1.964   7.982  19.755  0.00  0.00    +0.000 N 
ATOM     12  N   UNL     1       3.429   7.288  18.136  0.00  0.00    +0.000 NA
ATOM     13  C   UNL     1       3.994   6.309  17.426  0.00  0.00    +0.000 A 
ATOM     14  C   UNL     1       4.823   6.641  16.361  0.00  0.00    +0.000 A 
ATOM     15  C   UNL     1       5.402   5.668  15.543  0.00  0.00    +0.000 A 
ATOM     16  C   UNL     1       5.162   4.323  15.794  0.00  0.00    +0.000 A 
ATOM     17  C   UNL     1       4.366   3.963  16.878  0.00  0.00    +0.000 A 
ATOM     18  C   UNL     1       3.778   4.955  17.700  0.00  0.00    +0.000 A 
ATOM     19  H   UNL     1       2.374   8.874  19.517  0.00  0.00    +0.000 HD
BRANCH   8  20
ATOM     20  N   UNL     1       2.714   3.412  19.271  0.00  0.00    +0.000 N 
ATOM     21  H   UNL     1       1.911   3.477  19.891  0.00  0.00    +0.000 HD
ATOM     22  H   UNL     1       2.540   2.776  18.503  0.00  0.00    +0.000 HD
ENDBRANCH   8  20
ENDBRANCH   7  11
ENDBRANCH   1   7
BRANCH   4  23
ATOM     23  C   UNL     1      -2.093  12.294  22.605  0.00  0.00    +0.000 C 
BRANCH  23  24
ATOM     24  N   UNL     1      -2.627  13.086  21.491  0.00  0.00    +0.000 NA
ATOM     25  H   UNL     1      -2.879  12.583  20.641  0.00  0.00    +0.000 HD
BRANCH  24  26
ATOM     26  S   UNL     1      -3.840  14.206  21.864  0.00  0.00    +0.000 S 
ATOM     27  O   UNL     1      -3.627  14.589  23.241  0.00  0.00    +0.000 OA
ATOM     28  O   UNL     1      -3.846  15.199  20.810  0.00  0.00    +0.000 OA
BRANCH  26  29
ATOM     29  C   UNL     1      -5.351  13.264  21.781  0.00  0.00    +0.000 A 
ATOM     30  C   UNL     1      -6.164  13.278  22.926  0.00  0.00    +0.000 A 
ATOM     31  C   UNL     1      -7.315  12.502  22.977  0.00  0.00    +0.000 A 
ATOM     32  C   UNL     1      -7.658  11.709  21.887  0.00  0.00    +0.000 A 
ATOM     33  C   UNL     1      -6.868  11.684  20.729  0.00  0.00    +0.000 A 
ATOM     34  C   UNL     1      -7.255  10.868  19.653  0.00  0.00    +0.000 A 
ATOM     35  C   UNL     1      -6.503  10.813  18.484  0.00  0.00    +0.000 A 
ATOM     36  C   UNL     1      -5.348  11.573  18.376  0.00  0.00    +0.000 A 
ATOM     37  C   UNL     1      -4.944  12.384  19.441  0.00  0.00    +0.000 A 
ATOM     38  C   UNL     1      -5.686  12.468  20.647  0.00  0.00    +0.000 A 
ENDBRANCH  26  29
ENDBRANCH  24  26
ENDBRANCH  23  24
ENDBRANCH   4  23
TORSDOF 7
ENDMDL
MODEL 4
REMARK VINA RESULT:      -8.8      0.841      1.788
REMARK  Name = 
REMARK  7 active torsions:
REMARK  status: ('A' for Active; 'I' for Inactive)
REMARK    1  A    between atoms: N_1  and  C_2
REMARK    2  A    between atoms: N_5  and  C_6
REMARK    3  A    between atoms: C_6  and  C_7
REMARK    4  A    between atoms: C_10  and  C_11
REMARK    5  A    between atoms: C_11  and  N_12
REMARK    6  A    between atoms: N_12  and  S_13
REMARK    7  A    between atoms: S_13  and  C_16
REMARK                            x       y       z     vdW  Elec       q    Type
REMARK                         _______ _______ _______ _____ _____    ______ ____
ROOT
ATOM      1  C   UNL     1       1.185   8.568  19.254  0.00  0.00    +0.000 C 
ATOM      2  C   UNL     1       2.389   8.037  18.464  0.00  0.00    +0.000 C 
ATOM      3  C   UNL     1       2.559   6.538  18.641  0.00  0.00    +0.000 C 
ATOM      4  C   UNL     1       2.713   6.139  20.118  0.00  0.00    +0.000 C 
ATOM      5  C   UNL     1       1.536   6.697  20.939  0.00  0.00    +0.000 C 
ATOM      6  C   UNL     1       1.347   8.210  20.740  0.00  0.00    +0.000 C 
ENDROOT
BRANCH   1   7
ATOM      7  C   UNL     1       1.051  10.073  18.972  0.00  0.00    +0.000 C 
BRANCH   7  11
ATOM      8  C   UNL     1      -2.646  10.363  17.136  0.00  0.00    +0.000 A 
ATOM      9  N   UNL     1      -1.458  10.211  17.729  0.00  0.00    +0.000 NA
ATOM     10  C   UNL     1      -1.259  10.858  18.883  0.00  0.00    +0.000 A 
ATOM     11  N   UNL     1      -0.110  10.652  19.604  0.00  0.00    +0.000 N 
ATOM     12  N   UNL     1      -2.145  11.691  19.437  0.00  0.00    +0.000 NA
ATOM     13  C   UNL     1      -3.329  11.832  18.838  0.00  0.00    +0.000 A 
ATOM     14  C   UNL     1      -4.277  12.675  19.407  0.00  0.00    +0.000 A 
ATOM     15  C   UNL     1      -5.554  12.825  18.864  0.00  0.00    +0.000 A 
ATOM     16  C   UNL     1      -5.903  12.128  17.714  0.00  0.00    +0.000 A 
ATOM     17  C   UNL     1      -4.959  11.307  17.102  0.00  0.00    +0.000 A 
ATOM     18  C   UNL     1      -3.667  11.155  17.662  0.00  0.00    +0.000 A 
ATOM     19  H   UNL     1       0.004  11.344  20.331  0.00  0.00    +0.000 HD
BRANCH   8  20
ATOM     20  N   UNL     1      -2.788   9.680  15.921  0.00  0.00    +0.000 N 
ATOM     21  H   UNL     1      -3.726   9.288  15.916  0.00  0.00    +0.000 HD
ATOM     22  H   UNL     1      -2.639  10.298  15.133  0.00  0.00    +0.000 HD
ENDBRANCH   8  20
ENDBRANCH   7  11
ENDBRANCH   1   7
BRANCH   4  23
ATOM     23  C   UNL     1       2.844   4.607  20.181  0.00  0.00    +0.000 C 
BRANCH  23  24
ATOM     24  N   UNL     1       2.585   3.980  18.880  0.00  0.00    +0.000 NA
ATOM     25  H   UNL     1       2.261   4.587  18.127  0.00  0.00    +0.000 HD
BRANCH  24  26
ATOM     26  S   UNL     1       3.774   2.932  18.288  0.00  0.00    +0.000 S 
ATOM     27  O   UNL     1       4.572   2.541  19.427  0.00  0.00    +0.000 OA
ATOM     28  O   UNL     1       3.104   1.937  17.476  0.00  0.00    +0.000 OA
BRANCH  26  29
ATOM     29  C   UNL     1       4.781   3.957  17.233  0.00  0.00    +0.000 A 
ATOM     30  C   UNL     1       4.566   3.837  15.850  0.00  0.00    +0.000 A 
ATOM     31  C   UNL     1       5.366   4.535  14.955  0.00  0.00    +0.000 A 
ATOM     32  C   UNL     1       6.383   5.354  15.435  0.00  0.00    +0.000 A 
ATOM     33  C   UNL     1       6.611   5.498  16.811  0.00  0.00    +0.000 A 
ATOM     34  C   UNL     1       7.649   6.337  17.249  0.00  0.00    +0.000 A 
ATOM     35  C   UNL     1       7.910   6.512  18.604  0.00  0.00    +0.000 A 
ATOM     36  C   UNL     1       7.138   5.844  19.543  0.00  0.00    +0.000 A 
ATOM     37  C   UNL     1       6.106   4.999  19.124  0.00  0.00    +0.000 A 
ATOM     38  C   UNL     1       5.808   4.798  17.751  0.00  0.00    +0.000 A 
ENDBRANCH  26  29
ENDBRANCH  24  26
ENDBRANCH  23  24
ENDBRANCH   4  23
TORSDOF 7
ENDMDL
MODEL 5
REMARK VINA RESULT:      -8.8      1.235      2.798
REMARK  Name = 
REMARK  7 active torsions:
REMARK  status: ('A' for Active; 'I' for Inactive)
REMARK    1  A    between atoms: N_1  and  C_2
REMARK    2  A    between atoms: N_5  and  C_6
REMARK    3  A    between atoms: C_6  and  C_7
REMARK    4  A    between atoms: C_10  and  C_11
REMARK    5  A    between atoms: C_11  and  N_12
REMARK    6  A    between atoms: N_12  and  S_13
REMARK    7  A    between atoms: S_13  and  C_16
REMARK                            x       y       z     vdW  Elec       q    Type
REMARK                         _______ _______ _______ _____ _____    ______ ____
ROOT
ATOM      1  C   UNL     1       0.833   9.765  19.411  0.00  0.00    +0.000 C 
ATOM      2  C   UNL     1       1.729   9.907  18.172  0.00  0.00    +0.000 C 
ATOM      3  C   UNL     1       2.050   8.557  17.554  0.00  0.00    +0.000 C 
ATOM      4  C   UNL     1       2.724   7.604  18.553  0.00  0.00    +0.000 C 
ATOM      5  C   UNL     1       1.862   7.477  19.823  0.00  0.00    +0.000 C 
ATOM      6  C   UNL     1       1.515   8.844  20.435  0.00  0.00    +0.000 C 
ENDROOT
BRANCH   1   7
ATOM      7  C   UNL     1       0.510  11.173  19.934  0.00  0.00    +0.000 C 
BRANCH   7  11
ATOM      8  C   UNL     1      -2.717  11.445  17.359  0.00  0.00    +0.000 A 
ATOM      9  N   UNL     1      -1.666  11.302  18.172  0.00  0.00    +0.000 NA
ATOM     10  C   UNL     1      -1.859  11.540  19.475  0.00  0.00    +0.000 A 
ATOM     11  N   UNL     1      -0.857  11.296  20.379  0.00  0.00    +0.000 N 
ATOM     12  N   UNL     1      -3.012  11.971  19.995  0.00  0.00    +0.000 NA
ATOM     13  C   UNL     1      -4.056  12.105  19.174  0.00  0.00    +0.000 A 
ATOM     14  C   UNL     1      -5.272  12.530  19.695  0.00  0.00    +0.000 A 
ATOM     15  C   UNL     1      -6.418  12.639  18.903  0.00  0.00    +0.000 A 
ATOM     16  C   UNL     1      -6.355  12.329  17.551  0.00  0.00    +0.000 A 
ATOM     17  C   UNL     1      -5.139  11.938  16.997  0.00  0.00    +0.000 A 
ATOM     18  C   UNL     1      -3.983  11.825  17.806  0.00  0.00    +0.000 A 
ATOM     19  H   UNL     1      -1.058  11.707  21.280  0.00  0.00    +0.000 HD
BRANCH   8  20
ATOM     20  N   UNL     1      -2.449  11.204  16.005  0.00  0.00    +0.000 N 
ATOM     21  H   UNL     1      -1.437  11.191  15.908  0.00  0.00    +0.000 HD
ATOM     22  H   UNL     1      -2.863  10.333  15.698  0.00  0.00    +0.000 HD
ENDBRANCH   8  20
ENDBRANCH   7  11
ENDBRANCH   1   7
BRANCH   4  23
ATOM     23  C   UNL     1       2.971   6.265  17.834  0.00  0.00    +0.000 C 
BRANCH  23  24
ATOM     24  N   UNL     1       2.445   5.127  18.597  0.00  0.00    +0.000 NA
ATOM     25  H   UNL     1       1.509   4.800  18.361  0.00  0.00    +0.000 HD
BRANCH  24  26
ATOM     26  S   UNL     1       3.475   3.798  18.792  0.00  0.00    +0.000 S 
ATOM     27  O   UNL     1       3.449   3.469  20.198  0.00  0.00    +0.000 OA
ATOM     28  O   UNL     1       3.102   2.817  17.794  0.00  0.00    +0.000 OA
BRANCH  26  29
ATOM     29  C   UNL     1       5.094   4.433  18.402  0.00  0.00    +0.000 A 
ATOM     30  C   UNL     1       5.820   4.995  19.465  0.00  0.00    +0.000 A 
ATOM     31  C   UNL     1       7.053   5.590  19.232  0.00  0.00    +0.000 A 
ATOM     32  C   UNL     1       7.565   5.629  17.940  0.00  0.00    +0.000 A 
ATOM     33  C   UNL     1       6.863   5.067  16.863  0.00  0.00    +0.000 A 
ATOM     34  C   UNL     1       7.421   5.130  15.575  0.00  0.00    +0.000 A 
ATOM     35  C   UNL     1       6.761   4.584  14.478  0.00  0.00    +0.000 A 
ATOM     36  C   UNL     1       5.529   3.971  14.654  0.00  0.00    +0.000 A 
ATOM     37  C   UNL     1       4.957   3.908  15.928  0.00  0.00    +0.000 A 
ATOM     38  C   UNL     1       5.601   4.450  17.071  0.00  0.00    +0.000 A 
ENDBRANCH  26  29
ENDBRANCH  24  26
ENDBRANCH  23  24
ENDBRANCH   4  23
TORSDOF 7
ENDMDL
MODEL 6
REMARK VINA RESULT:      -8.7      4.450     10.671
REMARK  Name = 
REMARK  7 active torsions:
REMARK  status: ('A' for Active; 'I' for Inactive)
REMARK    1  A    between atoms: N_1  and  C_2
REMARK    2  A    between atoms: N_5  and  C_6
REMARK    3  A    between atoms: C_6  and  C_7
REMARK    4  A    between atoms: C_10  and  C_11
REMARK    5  A    between atoms: C_11  and  N_12
REMARK    6  A    between atoms: N_12  and  S_13
REMARK    7  A    between atoms: S_13  and  C_16
REMARK                            x       y       z     vdW  Elec       q    Type
REMARK                         _______ _______ _______ _____ _____    ______ ____
ROOT
ATOM      1  C   UNL     1       0.945   8.920  21.607  0.00  0.00    +0.000 C 
ATOM      2  C   UNL     1       0.638   9.960  20.520  0.00  0.00    +0.000 C 
ATOM      3  C   UNL     1       0.268  11.305  21.120  0.00  0.00    +0.000 C 
ATOM      4  C   UNL     1      -0.933  11.208  22.075  0.00  0.00    +0.000 C 
ATOM      5  C   UNL     1      -0.663  10.140  23.152  0.00  0.00    +0.000 C 
ATOM      6  C   UNL     1      -0.264   8.785  22.546  0.00  0.00    +0.000 C 
ENDROOT
BRANCH   1   7
ATOM      7  C   UNL     1       1.366   7.613  20.916  0.00  0.00    +0.000 C 
BRANCH   7  11
ATOM      8  C   UNL     1       2.995   4.595  18.601  0.00  0.00    +0.000 A 
ATOM      9  N   UNL     1       2.415   5.548  19.338  0.00  0.00    +0.000 NA
ATOM     10  C   UNL     1       2.677   6.820  19.016  0.00  0.00    +0.000 A 
ATOM     11  N   UNL     1       2.023   7.844  19.652  0.00  0.00    +0.000 N 
ATOM     12  N   UNL     1       3.526   7.189  18.052  0.00  0.00    +0.000 NA
ATOM     13  C   UNL     1       4.094   6.229  17.319  0.00  0.00    +0.000 A 
ATOM     14  C   UNL     1       4.964   6.589  16.296  0.00  0.00    +0.000 A 
ATOM     15  C   UNL     1       5.550   5.639  15.456  0.00  0.00    +0.000 A 
ATOM     16  C   UNL     1       5.276   4.290  15.642  0.00  0.00    +0.000 A 
ATOM     17  C   UNL     1       4.440   3.901  16.685  0.00  0.00    +0.000 A 
ATOM     18  C   UNL     1       3.844   4.870  17.529  0.00  0.00    +0.000 A 
ATOM     19  H   UNL     1       2.457   8.737  19.465  0.00  0.00    +0.000 HD
BRANCH   8  20
ATOM     20  N   UNL     1       2.701   3.284  18.999  0.00  0.00    +0.000 N 
ATOM     21  H   UNL     1       3.085   2.671  18.284  0.00  0.00    +0.000 HD
ATOM     22  H   UNL     1       3.092   3.082  19.911  0.00  0.00    +0.000 HD
ENDBRANCH   8  20
ENDBRANCH   7  11
ENDBRANCH   1   7
BRANCH   4  23
ATOM     23  C   UNL     1      -1.196  12.613  22.646  0.00  0.00    +0.000 C 
BRANCH  23  24
ATOM     24  N   UNL     1      -2.520  13.120  22.268  0.00  0.00    +0.000 NA
ATOM     25  H   UNL     1      -3.035  13.648  22.971  0.00  0.00    +0.000 HD
BRANCH  24  26
ATOM     26  S   UNL     1      -2.637  13.907  20.774  0.00  0.00    +0.000 S 
ATOM     27  O   UNL     1      -3.670  14.906  20.923  0.00  0.00    +0.000 OA
ATOM     28  O   UNL     1      -1.295  14.281  20.379  0.00  0.00    +0.000 OA
BRANCH  26  29
ATOM     29  C   UNL     1      -3.239  12.651  19.661  0.00  0.00    +0.000 A 
ATOM     30  C   UNL     1      -2.311  12.128  18.744  0.00  0.00    +0.000 A 
ATOM     31  C   UNL     1      -2.717  11.209  17.785  0.00  0.00    +0.000 A 
ATOM     32  C   UNL     1      -4.049  10.811  17.735  0.00  0.00    +0.000 A 
ATOM     33  C   UNL     1      -4.992  11.312  18.644  0.00  0.00    +0.000 A 
ATOM     34  C   UNL     1      -6.326  10.880  18.555  0.00  0.00    +0.000 A 
ATOM     35  C   UNL     1      -7.294  11.348  19.437  0.00  0.00    +0.000 A 
ATOM     36  C   UNL     1      -6.943  12.262  20.419  0.00  0.00    +0.000 A 
ATOM     37  C   UNL     1      -5.622  12.709  20.516  0.00  0.00    +0.000 A 
ATOM     38  C   UNL     1      -4.606  12.251  19.637  0.00  0.00    +0.000 A 
ENDBRANCH  26  29
ENDBRANCH  24  26
ENDBRANCH  23  24
ENDBRANCH   4  23
TORSDOF 7
ENDMDL
MODEL 7
REMARK VINA RESULT:      -8.7      1.012      2.747
REMARK  Name = 
REMARK  7 active torsions:
REMARK  status: ('A' for Active; 'I' for Inactive)
REMARK    1  A    between atoms: N_1  and  C_2
REMARK    2  A    between atoms: N_5  and  C_6
REMARK    3  A    between atoms: C_6  and  C_7
REMARK    4  A    between atoms: C_10  and  C_11
REMARK    5  A    between atoms: C_11  and  N_12
REMARK    6  A    between atoms: N_12  and  S_13
REMARK    7  A    between atoms: S_13  and  C_16
REMARK                            x       y       z     vdW  Elec       q    Type
REMARK                         _______ _______ _______ _____ _____    ______ ____
ROOT
ATOM      1  C   UNL     1       1.843   9.628  18.846  0.00  0.00    +0.000 C 
ATOM      2  C   UNL     1       1.071   8.840  19.914  0.00  0.00    +0.000 C 
ATOM      3  C   UNL     1       1.842   7.614  20.372  0.00  0.00    +0.000 C 
ATOM      4  C   UNL     1       2.186   6.672  19.207  0.00  0.00    +0.000 C 
ATOM      5  C   UNL     1       2.926   7.451  18.103  0.00  0.00    +0.000 C 
ATOM      6  C   UNL     1       2.160   8.707  17.657  0.00  0.00    +0.000 C 
ENDROOT
BRANCH   1   7
ATOM      7  C   UNL     1       1.024  10.877  18.485  0.00  0.00    +0.000 C 
BRANCH   7  11
ATOM      8  C   UNL     1      -2.763  11.269  16.863  0.00  0.00    +0.000 A 
ATOM      9  N   UNL     1      -1.538  11.088  17.365  0.00  0.00    +0.000 NA
ATOM     10  C   UNL     1      -1.375  11.284  18.679  0.00  0.00    +0.000 A 
ATOM     11  N   UNL     1      -0.175  10.999  19.279  0.00  0.00    +0.000 N 
ATOM     12  N   UNL     1      -2.342  11.709  19.498  0.00  0.00    +0.000 NA
ATOM     13  C   UNL     1      -3.562  11.882  18.986  0.00  0.00    +0.000 A 
ATOM     14  C   UNL     1      -4.591  12.301  19.822  0.00  0.00    +0.000 A 
ATOM     15  C   UNL     1      -5.902  12.449  19.365  0.00  0.00    +0.000 A 
ATOM     16  C   UNL     1      -6.204  12.183  18.035  0.00  0.00    +0.000 A 
ATOM     17  C   UNL     1      -5.185  11.799  17.168  0.00  0.00    +0.000 A 
ATOM     18  C   UNL     1      -3.858  11.646  17.640  0.00  0.00    +0.000 A 
ATOM     19  H   UNL     1      -0.124  11.381  20.212  0.00  0.00    +0.000 HD
BRANCH   8  20
ATOM     20  N   UNL     1      -2.866  11.071  15.480  0.00  0.00    +0.000 N 
ATOM     21  H   UNL     1      -3.791  11.394  15.209  0.00  0.00    +0.000 HD
ATOM     22  H   UNL     1      -2.138  11.570  14.983  0.00  0.00    +0.000 HD
ENDBRANCH   8  20
ENDBRANCH   7  11
ENDBRANCH   1   7
BRANCH   4  23
ATOM     23  C   UNL     1       2.990   5.490  19.778  0.00  0.00    +0.000 C 
BRANCH  23  24
ATOM     24  N   UNL     1       2.715   4.242  19.058  0.00  0.00    +0.000 NA
ATOM     25  H   UNL     1       2.217   4.315  18.172  0.00  0.00    +0.000 HD
BRANCH  24  26
ATOM     26  S   UNL     1       4.005   3.158  18.892  0.00  0.00    +0.000 S 
ATOM     27  O   UNL     1       4.270   2.639  20.214  0.00  0.00    +0.000 OA
ATOM     28  O   UNL     1       3.678   2.267  17.798  0.00  0.00    +0.000 OA
BRANCH  26  29
ATOM     29  C   UNL     1       5.382   4.182  18.413  0.00  0.00    +0.000 A 
ATOM     30  C   UNL     1       6.080   4.822  19.451  0.00  0.00    +0.000 A 
ATOM     31  C   UNL     1       7.111   5.705  19.160  0.00  0.00    +0.000 A 
ATOM     32  C   UNL     1       7.450   5.954  17.834  0.00  0.00    +0.000 A 
ATOM     33  C   UNL     1       6.775   5.321  16.780  0.00  0.00    +0.000 A 
ATOM     34  C   UNL     1       7.153   5.603  15.457  0.00  0.00    +0.000 A 
ATOM     35  C   UNL     1       6.514   4.997  14.381  0.00  0.00    +0.000 A 
ATOM     36  C   UNL     1       5.481   4.101  14.614  0.00  0.00    +0.000 A 
ATOM     37  C   UNL     1       5.087   3.815  15.924  0.00  0.00    +0.000 A 
ATOM     38  C   UNL     1       5.717   4.411  17.047  0.00  0.00    +0.000 A 
ENDBRANCH  26  29
ENDBRANCH  24  26
ENDBRANCH  23  24
ENDBRANCH   4  23
TORSDOF 7
ENDMDL
MODEL 8
REMARK VINA RESULT:      -8.7      0.996      2.112
REMARK  Name = 
REMARK  7 active torsions:
REMARK  status: ('A' for Active; 'I' for Inactive)
REMARK    1  A    between atoms: N_1  and  C_2
REMARK    2  A    between atoms: N_5  and  C_6
REMARK    3  A    between atoms: C_6  and  C_7
REMARK    4  A    between atoms: C_10  and  C_11
REMARK    5  A    between atoms: C_11  and  N_12
REMARK    6  A    between atoms: N_12  and  S_13
REMARK    7  A    between atoms: S_13  and  C_16
REMARK                            x       y       z     vdW  Elec       q    Type
REMARK                         _______ _______ _______ _____ _____    ______ ____
ROOT
ATOM      1  C   UNL     1       1.214   9.231  18.952  0.00  0.00    +0.000 C 
ATOM      2  C   UNL     1       2.275   8.568  18.062  0.00  0.00    +0.000 C 
ATOM      3  C   UNL     1       2.243   7.055  18.184  0.00  0.00    +0.000 C 
ATOM      4  C   UNL     1       2.439   6.583  19.634  0.00  0.00    +0.000 C 
ATOM      5  C   UNL     1       1.410   7.267  20.554  0.00  0.00    +0.000 C 
ATOM      6  C   UNL     1       1.423   8.798  20.411  0.00  0.00    +0.000 C 
ENDROOT
BRANCH   1   7
ATOM      7  C   UNL     1       1.275  10.750  18.722  0.00  0.00    +0.000 C 
BRANCH   7  11
ATOM      8  C   UNL     1      -1.427  12.239  21.480  0.00  0.00    +0.000 A 
ATOM      9  N   UNL     1      -0.518  11.802  20.602  0.00  0.00    +0.000 NA
ATOM     10  C   UNL     1      -0.916  11.634  19.336  0.00  0.00    +0.000 A 
ATOM     11  N   UNL     1      -0.007  11.305  18.362  0.00  0.00    +0.000 N 
ATOM     12  N   UNL     1      -2.172  11.813  18.915  0.00  0.00    +0.000 NA
ATOM     13  C   UNL     1      -3.069  12.254  19.799  0.00  0.00    +0.000 A 
ATOM     14  C   UNL     1      -4.377  12.470  19.381  0.00  0.00    +0.000 A 
ATOM     15  C   UNL     1      -5.353  12.982  20.239  0.00  0.00    +0.000 A 
ATOM     16  C   UNL     1      -5.028  13.280  21.556  0.00  0.00    +0.000 A 
ATOM     17  C   UNL     1      -3.735  13.036  22.010  0.00  0.00    +0.000 A 
ATOM     18  C   UNL     1      -2.748  12.522  21.133  0.00  0.00    +0.000 A 
ATOM     19  H   UNL     1      -0.464  11.010  17.511  0.00  0.00    +0.000 HD
BRANCH   8  20
ATOM     20  N   UNL     1      -0.958  12.374  22.793  0.00  0.00    +0.000 N 
ATOM     21  H   UNL     1      -1.735  12.731  23.343  0.00  0.00    +0.000 HD
ATOM     22  H   UNL     1      -0.622  11.490  23.155  0.00  0.00    +0.000 HD
ENDBRANCH   8  20
ENDBRANCH   7  11
ENDBRANCH   1   7
BRANCH   4  23
ATOM     23  C   UNL     1       2.355   5.045  19.645  0.00  0.00    +0.000 C 
BRANCH  23  24
ATOM     24  N   UNL     1       3.587   4.433  20.153  0.00  0.00    +0.000 NA
ATOM     25  H   UNL     1       3.548   4.006  21.078  0.00  0.00    +0.000 HD
BRANCH  24  26
ATOM     26  S   UNL     1       4.424   3.410  19.095  0.00  0.00    +0.000 S 
ATOM     27  O   UNL     1       5.055   2.405  19.919  0.00  0.00    +0.000 OA
ATOM     28  O   UNL     1       3.503   3.034  18.043  0.00  0.00    +0.000 OA
BRANCH  26  29
ATOM     29  C   UNL     1       5.702   4.442  18.404  0.00  0.00    +0.000 A 
ATOM     30  C   UNL     1       6.382   5.285  19.300  0.00  0.00    +0.000 A 
ATOM     31  C   UNL     1       7.332   6.182  18.831  0.00  0.00    +0.000 A 
ATOM     32  C   UNL     1       7.607   6.244  17.469  0.00  0.00    +0.000 A 
ATOM     33  C   UNL     1       6.949   5.408  16.555  0.00  0.00    +0.000 A 
ATOM     34  C   UNL     1       7.260   5.506  15.189  0.00  0.00    +0.000 A 
ATOM     35  C   UNL     1       6.634   4.695  14.249  0.00  0.00    +0.000 A 
ATOM     36  C   UNL     1       5.681   3.775  14.662  0.00  0.00    +0.000 A 
ATOM     37  C   UNL     1       5.354   3.671  16.017  0.00  0.00    +0.000 A 
ATOM     38  C   UNL     1       5.973   4.478  17.006  0.00  0.00    +0.000 A 
ENDBRANCH  26  29
ENDBRANCH  24  26
ENDBRANCH  23  24
ENDBRANCH   4  23
TORSDOF 7
ENDMDL
MODEL 9
REMARK VINA RESULT:      -8.6      2.610      3.685
REMARK  Name = 
REMARK  7 active torsions:
REMARK  status: ('A' for Active; 'I' for Inactive)
REMARK    1  A    between atoms: N_1  and  C_2
REMARK    2  A    between atoms: N_5  and  C_6
REMARK    3  A    between atoms: C_6  and  C_7
REMARK    4  A    between atoms: C_10  and  C_11
REMARK    5  A    between atoms: C_11  and  N_12
REMARK    6  A    between atoms: N_12  and  S_13
REMARK    7  A    between atoms: S_13  and  C_16
REMARK                            x       y       z     vdW  Elec       q    Type
REMARK                         _______ _______ _______ _____ _____    ______ ____
ROOT
ATOM      1  C   UNL     1       1.793   8.881  18.450  0.00  0.00    +0.000 C 
ATOM      2  C   UNL     1       2.841   7.941  17.837  0.00  0.00    +0.000 C 
ATOM      3  C   UNL     1       2.561   6.488  18.181  0.00  0.00    +0.000 C 
ATOM      4  C   UNL     1       2.500   6.250  19.699  0.00  0.00    +0.000 C 
ATOM      5  C   UNL     1       1.483   7.212  20.342  0.00  0.00    +0.000 C 
ATOM      6  C   UNL     1       1.751   8.680  19.973  0.00  0.00    +0.000 C 
ENDROOT
BRANCH   1   7
ATOM      7  C   UNL     1       2.116  10.316  18.004  0.00  0.00    +0.000 C 
BRANCH   7  11
ATOM      8  C   UNL     1       2.685  14.413  18.112  0.00  0.00    +0.000 A 
ATOM      9  N   UNL     1       2.508  13.092  18.018  0.00  0.00    +0.000 NA
ATOM     10  C   UNL     1       1.387  12.582  18.542  0.00  0.00    +0.000 A 
ATOM     11  N   UNL     1       1.085  11.254  18.376  0.00  0.00    +0.000 N 
ATOM     12  N   UNL     1       0.475  13.301  19.204  0.00  0.00    +0.000 NA
ATOM     13  C   UNL     1       0.660  14.620  19.286  0.00  0.00    +0.000 A 
ATOM     14  C   UNL     1      -0.285  15.394  19.950  0.00  0.00    +0.000 A 
ATOM     15  C   UNL     1      -0.182  16.784  20.025  0.00  0.00    +0.000 A 
ATOM     16  C   UNL     1       0.898  17.430  19.436  0.00  0.00    +0.000 A 
ATOM     17  C   UNL     1       1.879  16.675  18.800  0.00  0.00    +0.000 A 
ATOM     18  C   UNL     1       1.765  15.266  18.722  0.00  0.00    +0.000 A 
ATOM     19  H   UNL     1       0.335  10.963  18.985  0.00  0.00    +0.000 HD
BRANCH   8  20
ATOM     20  N   UNL     1       3.886  14.885  17.566  0.00  0.00    +0.000 N 
ATOM     21  H   UNL     1       4.319  14.095  17.093  0.00  0.00    +0.000 HD
ATOM     22  H   UNL     1       3.723  15.655  16.929  0.00  0.00    +0.000 HD
ENDBRANCH   8  20
ENDBRANCH   7  11
ENDBRANCH   1   7
BRANCH   4  23
ATOM     23  C   UNL     1       2.179   4.762  19.930  0.00  0.00    +0.000 C 
BRANCH  23  24
ATOM     24  N   UNL     1       2.506   3.942  18.758  0.00  0.00    +0.000 NA
ATOM     25  H   UNL     1       2.491   4.403  17.849  0.00  0.00    +0.000 HD
BRANCH  24  26
ATOM     26  S   UNL     1       3.883   2.964  18.872  0.00  0.00    +0.000 S 
ATOM     27  O   UNL     1       4.014   2.612  20.267  0.00  0.00    +0.000 OA
ATOM     28  O   UNL     1       3.764   1.938  17.857  0.00  0.00    +0.000 OA
BRANCH  26  29
ATOM     29  C   UNL     1       5.231   4.048  18.444  0.00  0.00    +0.000 A 
ATOM     30  C   UNL     1       5.871   4.704  19.510  0.00  0.00    +0.000 A 
ATOM     31  C   UNL     1       6.873   5.631  19.259  0.00  0.00    +0.000 A 
ATOM     32  C   UNL     1       7.241   5.909  17.946  0.00  0.00    +0.000 A 
ATOM     33  C   UNL     1       6.624   5.261  16.866  0.00  0.00    +0.000 A 
ATOM     34  C   UNL     1       7.029   5.573  15.558  0.00  0.00    +0.000 A 
ATOM     35  C   UNL     1       6.447   4.954  14.457  0.00  0.00    +0.000 A 
ATOM     36  C   UNL     1       5.445   4.014  14.650  0.00  0.00    +0.000 A 
ATOM     37  C   UNL     1       5.024   3.698  15.945  0.00  0.00    +0.000 A 
ATOM     38  C   UNL     1       5.596   4.306  17.092  0.00  0.00    +0.000 A 
ENDBRANCH  26  29
ENDBRANCH  24  26
ENDBRANCH  23  24
ENDBRANCH   4  23
TORSDOF 7
ENDMDL
