MODEL 1
REMARK VINA RESULT:      -7.6      0.000      0.000
REMARK  Name = 
REMARK  2 active torsions:
REMARK  status: ('A' for Active; 'I' for Inactive)
REMARK    1  A    between atoms: C_5  and  N_6
REMARK    2  A    between atoms: C_10  and  C_11
REMARK                            x       y       z     vdW  Elec       q    Type
REMARK                         _______ _______ _______ _____ _____    ______ ____
ROOT
ATOM      1  N   UNL     1       6.562   4.705  17.718  0.00  0.00    +0.000 N 
ATOM      2  N   UNL     1       7.753   4.830  18.348  0.00  0.00    +0.000 NA
ATOM      3  N   UNL     1       7.466   5.150  19.599  0.00  0.00    +0.000 NA
ATOM      4  N   UNL     1       6.116   5.113  19.818  0.00  0.00    +0.000 NA
ATOM      5  C   UNL     1       5.554   4.744  18.678  0.00  0.00    +0.000 A 
ENDROOT
BRANCH   1  10
ATOM      6 CL   UNL     1       6.612   3.764  11.877  0.00  0.00    +0.000 Cl
ATOM      7  C   UNL     1       6.535   4.097  13.561  0.00  0.00    +0.000 A 
ATOM      8  C   UNL     1       7.387   5.047  14.122  0.00  0.00    +0.000 A 
ATOM      9  C   UNL     1       7.352   5.295  15.497  0.00  0.00    +0.000 A 
ATOM     10  C   UNL     1       6.490   4.549  16.313  0.00  0.00    +0.000 A 
ATOM     11  C   UNL     1       5.600   3.629  15.737  0.00  0.00    +0.000 A 
ATOM     12  C   UNL     1       5.627   3.402  14.360  0.00  0.00    +0.000 A 
ENDBRANCH   1  10
BRANCH   5  13
ATOM     13  C   UNL     1       4.155   4.328  18.525  0.00  0.00    +0.000 A 
ATOM     14  C   UNL     1       3.783   3.014  18.836  0.00  0.00    +0.000 A 
ATOM     15  C   UNL     1       2.460   2.588  18.677  0.00  0.00    +0.000 A 
ATOM     16  C   UNL     1       1.491   3.474  18.211  0.00  0.00    +0.000 A 
ATOM     17  C   UNL     1       1.847   4.776  17.877  0.00  0.00    +0.000 A 
ATOM     18  C   UNL     1       3.173   5.191  18.009  0.00  0.00    +0.000 A 
ENDBRANCH   5  13
TORSDOF 2
ENDMDL
MODEL 2
REMARK VINA RESULT:      -7.6      4.162      6.343
REMARK  Name = 
REMARK  2 active torsions:
REMARK  status: ('A' for Active; 'I' for Inactive)
REMARK    1  A    between atoms: C_5  and  N_6
REMARK    2  A    between atoms: C_10  and  C_11
REMARK                            x       y       z     vdW  Elec       q    Type
REMARK                         _______ _______ _______ _____ _____    ______ ____
ROOT
ATOM      1  N   UNL     1       2.897   5.404  18.072  0.00  0.00    +0.000 N 
ATOM      2  N   UNL     1       2.033   4.375  17.909  0.00  0.00    +0.000 NA
ATOM      3  N   UNL     1       2.674   3.481  17.174  0.00  0.00    +0.000 NA
ATOM      4  N   UNL     1       3.972   3.858  16.965  0.00  0.00    +0.000 NA
ATOM      5  C   UNL     1       4.145   5.005  17.601  0.00  0.00    +0.000 A 
ENDROOT
BRANCH   1  10
ATOM      6 CL   UNL     1       0.729  10.407  20.371  0.00  0.00    +0.000 Cl
ATOM      7  C   UNL     1       1.439   8.981  19.725  0.00  0.00    +0.000 A 
ATOM      8  C   UNL     1       1.793   8.928  18.378  0.00  0.00    +0.000 A 
ATOM      9  C   UNL     1       2.337   7.757  17.841  0.00  0.00    +0.000 A 
ATOM     10  C   UNL     1       2.479   6.625  18.655  0.00  0.00    +0.000 A 
ATOM     11  C   UNL     1       2.168   6.699  20.022  0.00  0.00    +0.000 A 
ATOM     12  C   UNL     1       1.644   7.877  20.554  0.00  0.00    +0.000 A 
ENDBRANCH   1  10
BRANCH   5  13
ATOM     13  C   UNL     1       5.444   5.638  17.858  0.00  0.00    +0.000 A 
ATOM     14  C   UNL     1       6.234   5.190  18.925  0.00  0.00    +0.000 A 
ATOM     15  C   UNL     1       7.466   5.792  19.204  0.00  0.00    +0.000 A 
ATOM     16  C   UNL     1       7.925   6.846  18.416  0.00  0.00    +0.000 A 
ATOM     17  C   UNL     1       7.143   7.316  17.367  0.00  0.00    +0.000 A 
ATOM     18  C   UNL     1       5.901   6.734  17.108  0.00  0.00    +0.000 A 
ENDBRANCH   5  13
TORSDOF 2
ENDMDL
MODEL 3
REMARK VINA RESULT:      -7.6      0.048      1.136
REMARK  Name = 
REMARK  2 active torsions:
REMARK  status: ('A' for Active; 'I' for Inactive)
REMARK    1  A    between atoms: C_5  and  N_6
REMARK    2  A    between atoms: C_10  and  C_11
REMARK                            x       y       z     vdW  Elec       q    Type
REMARK                         _______ _______ _______ _____ _____    ______ ____
ROOT
ATOM      1  N   UNL     1       6.556   4.690  17.700  0.00  0.00    +0.000 N 
ATOM      2  N   UNL     1       7.742   4.822  18.339  0.00  0.00    +0.000 NA
ATOM      3  N   UNL     1       7.442   5.131  19.590  0.00  0.00    +0.000 NA
ATOM      4  N   UNL     1       6.091   5.081  19.799  0.00  0.00    +0.000 NA
ATOM      5  C   UNL     1       5.541   4.715  18.653  0.00  0.00    +0.000 A 
ENDROOT
BRANCH   1  10
ATOM      6 CL   UNL     1       6.648   3.777  11.854  0.00  0.00    +0.000 Cl
ATOM      7  C   UNL     1       6.560   4.104  13.539  0.00  0.00    +0.000 A 
ATOM      8  C   UNL     1       7.427   5.033  14.114  0.00  0.00    +0.000 A 
ATOM      9  C   UNL     1       7.383   5.274  15.490  0.00  0.00    +0.000 A 
ATOM     10  C   UNL     1       6.496   4.543  16.293  0.00  0.00    +0.000 A 
ATOM     11  C   UNL     1       5.592   3.646  15.703  0.00  0.00    +0.000 A 
ATOM     12  C   UNL     1       5.628   3.425  14.326  0.00  0.00    +0.000 A 
ENDBRANCH   1  10
BRANCH   5  13
ATOM     13  C   UNL     1       4.147   4.288  18.487  0.00  0.00    +0.000 A 
ATOM     14  C   UNL     1       3.186   5.210  18.053  0.00  0.00    +0.000 A 
ATOM     15  C   UNL     1       1.846   4.834  17.908  0.00  0.00    +0.000 A 
ATOM     16  C   UNL     1       1.452   3.527  18.191  0.00  0.00    +0.000 A 
ATOM     17  C   UNL     1       2.389   2.605  18.644  0.00  0.00    +0.000 A 
ATOM     18  C   UNL     1       3.719   2.990  18.815  0.00  0.00    +0.000 A 
ENDBRANCH   5  13
TORSDOF 2
ENDMDL
MODEL 4
REMARK VINA RESULT:      -7.6      4.218      6.472
REMARK  Name = 
REMARK  2 active torsions:
REMARK  status: ('A' for Active; 'I' for Inactive)
REMARK    1  A    between atoms: C_5  and  N_6
REMARK    2  A    between atoms: C_10  and  C_11
REMARK                            x       y       z     vdW  Elec       q    Type
REMARK                         _______ _______ _______ _____ _____    ______ ____
ROOT
ATOM      1  N   UNL     1       2.743   5.483  18.051  0.00  0.00    +0.000 N 
ATOM      2  N   UNL     1       1.843   4.492  17.855  0.00  0.00    +0.000 NA
ATOM      3  N   UNL     1       2.464   3.581  17.125  0.00  0.00    +0.000 NA
ATOM      4  N   UNL     1       3.782   3.907  16.951  0.00  0.00    +0.000 NA
ATOM      5  C   UNL     1       3.985   5.039  17.604  0.00  0.00    +0.000 A 
ENDROOT
BRANCH   1  10
ATOM      6 CL   UNL     1       0.723  10.536  20.374  0.00  0.00    +0.000 Cl
ATOM      7  C   UNL     1       1.390   9.093  19.721  0.00  0.00    +0.000 A 
ATOM      8  C   UNL     1       1.732   9.033  18.371  0.00  0.00    +0.000 A 
ATOM      9  C   UNL     1       2.242   7.850  17.828  0.00  0.00    +0.000 A 
ATOM     10  C   UNL     1       2.362   6.713  18.639  0.00  0.00    +0.000 A 
ATOM     11  C   UNL     1       2.063   6.793  20.009  0.00  0.00    +0.000 A 
ATOM     12  C   UNL     1       1.574   7.983  20.547  0.00  0.00    +0.000 A 
ENDBRANCH   1  10
BRANCH   5  13
ATOM     13  C   UNL     1       5.302   5.615  17.900  0.00  0.00    +0.000 A 
ATOM     14  C   UNL     1       5.810   6.639  17.091  0.00  0.00    +0.000 A 
ATOM     15  C   UNL     1       7.071   7.189  17.339  0.00  0.00    +0.000 A 
ATOM     16  C   UNL     1       7.840   6.724  18.405  0.00  0.00    +0.000 A 
ATOM     17  C   UNL     1       7.360   5.694  19.206  0.00  0.00    +0.000 A 
ATOM     18  C   UNL     1       6.114   5.126  18.938  0.00  0.00    +0.000 A 
ENDBRANCH   5  13
TORSDOF 2
ENDMDL
MODEL 5
REMARK VINA RESULT:      -7.4      2.286      4.953
REMARK  Name = 
REMARK  2 active torsions:
REMARK  status: ('A' for Active; 'I' for Inactive)
REMARK    1  A    between atoms: C_5  and  N_6
REMARK    2  A    between atoms: C_10  and  C_11
REMARK                            x       y       z     vdW  Elec       q    Type
REMARK                         _______ _______ _______ _____ _____    ______ ____
ROOT
ATOM      1  N   UNL     1       6.018   4.656  18.817  0.00  0.00    +0.000 N 
ATOM      2  N   UNL     1       6.622   5.234  19.881  0.00  0.00    +0.000 NA
ATOM      3  N   UNL     1       7.893   5.371  19.542  0.00  0.00    +0.000 NA
ATOM      4  N   UNL     1       8.096   5.008  18.239  0.00  0.00    +0.000 NA
ATOM      5  C   UNL     1       6.918   4.654  17.754  0.00  0.00    +0.000 A 
ENDROOT
BRANCH   1  10
ATOM      6 CL   UNL     1       0.474   2.593  18.709  0.00  0.00    +0.000 Cl
ATOM      7  C   UNL     1       2.071   3.219  18.823  0.00  0.00    +0.000 A 
ATOM      8  C   UNL     1       2.337   4.525  18.414  0.00  0.00    +0.000 A 
ATOM      9  C   UNL     1       3.641   5.025  18.471  0.00  0.00    +0.000 A 
ATOM     10  C   UNL     1       4.684   4.190  18.896  0.00  0.00    +0.000 A 
ATOM     11  C   UNL     1       4.403   2.892  19.354  0.00  0.00    +0.000 A 
ATOM     12  C   UNL     1       3.095   2.408  19.312  0.00  0.00    +0.000 A 
ENDBRANCH   1  10
BRANCH   5  13
ATOM     13  C   UNL     1       6.623   4.440  16.332  0.00  0.00    +0.000 A 
ATOM     14  C   UNL     1       7.413   5.065  15.358  0.00  0.00    +0.000 A 
ATOM     15  C   UNL     1       7.139   4.894  13.997  0.00  0.00    +0.000 A 
ATOM     16  C   UNL     1       6.073   4.092  13.593  0.00  0.00    +0.000 A 
ATOM     17  C   UNL     1       5.265   3.483  14.547  0.00  0.00    +0.000 A 
ATOM     18  C   UNL     1       5.523   3.677  15.904  0.00  0.00    +0.000 A 
ENDBRANCH   5  13
TORSDOF 2
ENDMDL
MODEL 6
REMARK VINA RESULT:      -7.4      2.298      5.088
REMARK  Name = 
REMARK  2 active torsions:
REMARK  status: ('A' for Active; 'I' for Inactive)
REMARK    1  A    between atoms: C_5  and  N_6
REMARK    2  A    between atoms: C_10  and  C_11
REMARK                            x       y       z     vdW  Elec       q    Type
REMARK                         _______ _______ _______ _____ _____    ______ ____
ROOT
ATOM      1  N   UNL     1       5.887   4.566  18.594  0.00  0.00    +0.000 N 
ATOM      2  N   UNL     1       6.381   5.119  19.726  0.00  0.00    +0.000 NA
ATOM      3  N   UNL     1       7.672   5.301  19.503  0.00  0.00    +0.000 NA
ATOM      4  N   UNL     1       7.996   4.990  18.211  0.00  0.00    +0.000 NA
ATOM      5  C   UNL     1       6.874   4.625  17.614  0.00  0.00    +0.000 A 
ENDROOT
BRANCH   1  10
ATOM      6 CL   UNL     1       0.319   2.578  18.815  0.00  0.00    +0.000 Cl
ATOM      7  C   UNL     1       1.941   3.126  18.669  0.00  0.00    +0.000 A 
ATOM      8  C   UNL     1       2.993   2.302  19.066  0.00  0.00    +0.000 A 
ATOM      9  C   UNL     1       4.311   2.758  18.983  0.00  0.00    +0.000 A 
ATOM     10  C   UNL     1       4.565   4.064  18.542  0.00  0.00    +0.000 A 
ATOM     11  C   UNL     1       3.506   4.872  18.096  0.00  0.00    +0.000 A 
ATOM     12  C   UNL     1       2.195   4.402  18.164  0.00  0.00    +0.000 A 
ENDBRANCH   1  10
BRANCH   5  13
ATOM     13  C   UNL     1       6.708   4.455  16.165  0.00  0.00    +0.000 A 
ATOM     14  C   UNL     1       7.514   5.188  15.284  0.00  0.00    +0.000 A 
ATOM     15  C   UNL     1       7.360   5.060  13.899  0.00  0.00    +0.000 A 
ATOM     16  C   UNL     1       6.401   4.194  13.379  0.00  0.00    +0.000 A 
ATOM     17  C   UNL     1       5.578   3.475  14.239  0.00  0.00    +0.000 A 
ATOM     18  C   UNL     1       5.713   3.626  15.620  0.00  0.00    +0.000 A 
ENDBRANCH   5  13
TORSDOF 2
ENDMDL
MODEL 7
REMARK VINA RESULT:      -7.4      0.215      1.162
REMARK  Name = 
REMARK  2 active torsions:
REMARK  status: ('A' for Active; 'I' for Inactive)
REMARK    1  A    between atoms: C_5  and  N_6
REMARK    2  A    between atoms: C_10  and  C_11
REMARK                            x       y       z     vdW  Elec       q    Type
REMARK                         _______ _______ _______ _____ _____    ______ ____
ROOT
ATOM      1  N   UNL     1       6.647   4.668  17.741  0.00  0.00    +0.000 N 
ATOM      2  N   UNL     1       7.834   4.823  18.371  0.00  0.00    +0.000 NA
ATOM      3  N   UNL     1       7.542   5.252  19.588  0.00  0.00    +0.000 NA
ATOM      4  N   UNL     1       6.190   5.260  19.794  0.00  0.00    +0.000 NA
ATOM      5  C   UNL     1       5.631   4.807  18.684  0.00  0.00    +0.000 A 
ENDROOT
BRANCH   1  10
ATOM      6 CL   UNL     1       6.038   3.822  11.917  0.00  0.00    +0.000 Cl
ATOM      7  C   UNL     1       6.277   4.006  13.609  0.00  0.00    +0.000 A 
ATOM      8  C   UNL     1       5.495   3.278  14.505  0.00  0.00    +0.000 A 
ATOM      9  C   UNL     1       5.662   3.453  15.882  0.00  0.00    +0.000 A 
ATOM     10  C   UNL     1       6.585   4.396  16.353  0.00  0.00    +0.000 A 
ATOM     11  C   UNL     1       7.404   5.090  15.448  0.00  0.00    +0.000 A 
ATOM     12  C   UNL     1       7.245   4.895  14.075  0.00  0.00    +0.000 A 
ENDBRANCH   1  10
BRANCH   5  13
ATOM     13  C   UNL     1       4.225   4.408  18.551  0.00  0.00    +0.000 A 
ATOM     14  C   UNL     1       3.830   3.122  18.940  0.00  0.00    +0.000 A 
ATOM     15  C   UNL     1       2.500   2.709  18.803  0.00  0.00    +0.000 A 
ATOM     16  C   UNL     1       1.548   3.582  18.279  0.00  0.00    +0.000 A 
ATOM     17  C   UNL     1       1.928   4.855  17.868  0.00  0.00    +0.000 A 
ATOM     18  C   UNL     1       3.260   5.254  17.979  0.00  0.00    +0.000 A 
ENDBRANCH   5  13
TORSDOF 2
ENDMDL
MODEL 8
REMARK VINA RESULT:      -7.3      0.158      1.618
REMARK  Name = 
REMARK  2 active torsions:
REMARK  status: ('A' for Active; 'I' for Inactive)
REMARK    1  A    between atoms: C_5  and  N_6
REMARK    2  A    between atoms: C_10  and  C_11
REMARK                            x       y       z     vdW  Elec       q    Type
REMARK                         _______ _______ _______ _____ _____    ______ ____
ROOT
ATOM      1  N   UNL     1       6.616   4.656  17.740  0.00  0.00    +0.000 N 
ATOM      2  N   UNL     1       7.781   4.863  18.397  0.00  0.00    +0.000 NA
ATOM      3  N   UNL     1       7.443   5.255  19.614  0.00  0.00    +0.000 NA
ATOM      4  N   UNL     1       6.088   5.188  19.793  0.00  0.00    +0.000 NA
ATOM      5  C   UNL     1       5.577   4.726  18.664  0.00  0.00    +0.000 A 
ENDROOT
BRANCH   1  10
ATOM      6 CL   UNL     1       6.184   3.898  11.888  0.00  0.00    +0.000 Cl
ATOM      7  C   UNL     1       6.371   4.056  13.589  0.00  0.00    +0.000 A 
ATOM      8  C   UNL     1       5.558   3.321  14.450  0.00  0.00    +0.000 A 
ATOM      9  C   UNL     1       5.682   3.474  15.834  0.00  0.00    +0.000 A 
ATOM     10  C   UNL     1       6.596   4.405  16.348  0.00  0.00    +0.000 A 
ATOM     11  C   UNL     1       7.447   5.106  15.478  0.00  0.00    +0.000 A 
ATOM     12  C   UNL     1       7.330   4.932  14.099  0.00  0.00    +0.000 A 
ENDBRANCH   1  10
BRANCH   5  13
ATOM     13  C   UNL     1       4.196   4.255  18.497  0.00  0.00    +0.000 A 
ATOM     14  C   UNL     1       3.218   5.131  18.010  0.00  0.00    +0.000 A 
ATOM     15  C   UNL     1       1.892   4.713  17.862  0.00  0.00    +0.000 A 
ATOM     16  C   UNL     1       1.528   3.409  18.195  0.00  0.00    +0.000 A 
ATOM     17  C   UNL     1       2.482   2.532  18.700  0.00  0.00    +0.000 A 
ATOM     18  C   UNL     1       3.799   2.961  18.874  0.00  0.00    +0.000 A 
ENDBRANCH   5  13
TORSDOF 2
ENDMDL
MODEL 9
REMARK VINA RESULT:      -7.3      2.290      4.891
REMARK  Name = 
REMARK  2 active torsions:
REMARK  status: ('A' for Active; 'I' for Inactive)
REMARK    1  A    between atoms: C_5  and  N_6
REMARK    2  A    between atoms: C_10  and  C_11
REMARK                            x       y       z     vdW  Elec       q    Type
REMARK                         _______ _______ _______ _____ _____    ______ ____
ROOT
ATOM      1  N   UNL     1       6.027   4.667  18.825  0.00  0.00    +0.000 N 
ATOM      2  N   UNL     1       6.638   5.227  19.894  0.00  0.00    +0.000 NA
ATOM      3  N   UNL     1       7.907   5.371  19.549  0.00  0.00    +0.000 NA
ATOM      4  N   UNL     1       8.101   5.029  18.239  0.00  0.00    +0.000 NA
ATOM      5  C   UNL     1       6.920   4.683  17.756  0.00  0.00    +0.000 A 
ENDROOT
BRANCH   1  10
ATOM      6 CL   UNL     1       0.487   2.593  18.724  0.00  0.00    +0.000 Cl
ATOM      7  C   UNL     1       2.082   3.223  18.835  0.00  0.00    +0.000 A 
ATOM      8  C   UNL     1       2.348   4.524  18.413  0.00  0.00    +0.000 A 
ATOM      9  C   UNL     1       3.651   5.027  18.468  0.00  0.00    +0.000 A 
ATOM     10  C   UNL     1       4.694   4.199  18.905  0.00  0.00    +0.000 A 
ATOM     11  C   UNL     1       4.414   2.906  19.376  0.00  0.00    +0.000 A 
ATOM     12  C   UNL     1       3.107   2.419  19.337  0.00  0.00    +0.000 A 
ENDBRANCH   1  10
BRANCH   5  13
ATOM     13  C   UNL     1       6.616   4.492  16.332  0.00  0.00    +0.000 A 
ATOM     14  C   UNL     1       5.551   3.663  15.955  0.00  0.00    +0.000 A 
ATOM     15  C   UNL     1       5.255   3.448  14.605  0.00  0.00    +0.000 A 
ATOM     16  C   UNL     1       6.018   4.064  13.615  0.00  0.00    +0.000 A 
ATOM     17  C   UNL     1       7.092   4.873  13.971  0.00  0.00    +0.000 A 
ATOM     18  C   UNL     1       7.403   5.063  15.318  0.00  0.00    +0.000 A 
ENDBRANCH   5  13
TORSDOF 2
ENDMDL
