MODEL 1
REMARK VINA RESULT:      -7.6      0.000      0.000
REMARK  Name = 
REMARK  7 active torsions:
REMARK  status: ('A' for Active; 'I' for Inactive)
REMARK    1  A    between atoms: C_1  and  O_2
REMARK    2  A    between atoms: O_2  and  C_3
REMARK    3  A    between atoms: C_5  and  C_6
REMARK    4  A    between atoms: N_7  and  N_8
REMARK    5  A    between atoms: C_19  and  O_20
REMARK    6  A    between atoms: O_20  and  C_21
REMARK    7  A    between atoms: C_22  and  O_23
REMARK                            x       y       z     vdW  Elec       q    Type
REMARK                         _______ _______ _______ _____ _____    ______ ____
ROOT
ATOM      1  C   UNL     1       2.874   7.227  18.522  0.00  0.00    +0.000 C 
ATOM      2  N   UNL     1       2.046   7.806  19.325  0.00  0.00    +0.000 NA
ENDROOT
BRANCH   2   3
ATOM      3  N   UNL     1       1.547   9.022  18.931  0.00  0.00    +0.000 N 
ATOM      4  C   UNL     1       0.766   9.773  19.762  0.00  0.00    +0.000 A 
ATOM      5  N   UNL     1      -0.163  10.599  19.327  0.00  0.00    +0.000 NA
ATOM      6  C   UNL     1      -0.852  11.165  20.396  0.00  0.00    +0.000 A 
ATOM      7  C   UNL     1      -1.956  12.036  20.313  0.00  0.00    +0.000 A 
ATOM      8  C   UNL     1      -2.551  12.530  21.483  0.00  0.00    +0.000 A 
ATOM      9  C   UNL     1      -2.050  12.178  22.729  0.00  0.00    +0.000 A 
ATOM     10  C   UNL     1      -0.956  11.313  22.840  0.00  0.00    +0.000 A 
ATOM     11  C   UNL     1      -0.381  10.810  21.661  0.00  0.00    +0.000 A 
ATOM     12  S   UNL     1       0.924   9.712  21.482  0.00  0.00    +0.000 S 
ATOM     13  H   UNL     1       1.334   9.158  17.947  0.00  0.00    +0.000 HD
ENDBRANCH   2   3
BRANCH   1  16
ATOM     14  C   UNL     1       5.264   4.309  18.941  0.00  0.00    +0.000 A 
ATOM     15  C   UNL     1       4.755   5.579  18.630  0.00  0.00    +0.000 A 
ATOM     16  C   UNL     1       3.407   5.877  18.823  0.00  0.00    +0.000 A 
ATOM     17  C   UNL     1       2.558   4.893  19.324  0.00  0.00    +0.000 A 
ATOM     18  C   UNL     1       3.035   3.604  19.639  0.00  0.00    +0.000 A 
ATOM     19  C   UNL     1       4.401   3.317  19.456  0.00  0.00    +0.000 A 
BRANCH  14  21
ATOM     20  C   UNL     1       7.119   4.728  17.463  0.00  0.00    +0.000 C 
ATOM     21  O   UNL     1       6.611   4.213  18.685  0.00  0.00    +0.000 OA
ENDBRANCH  14  21
BRANCH  18  22
ATOM     22  O   UNL     1       2.021   2.820  20.118  0.00  0.00    +0.000 OA
ATOM     23  C   UNL     1       1.738   2.707  21.500  0.00  0.00    +0.000 C 
ENDBRANCH  18  22
BRANCH  19  24
ATOM     24  O   UNL     1       4.960   2.116  19.784  0.00  0.00    +0.000 OA
ATOM     25  H   UNL     1       5.738   2.234  20.335  0.00  0.00    +0.000 HD
ENDBRANCH  19  24
ENDBRANCH   1  16
TORSDOF 5
ENDMDL
MODEL 2
REMARK VINA RESULT:      -7.5      1.293      1.294
REMARK  Name = 
REMARK  7 active torsions:
REMARK  status: ('A' for Active; 'I' for Inactive)
REMARK    1  A    between atoms: C_1  and  O_2
REMARK    2  A    between atoms: O_2  and  C_3
REMARK    3  A    between atoms: C_5  and  C_6
REMARK    4  A    between atoms: N_7  and  N_8
REMARK    5  A    between atoms: C_19  and  O_20
REMARK    6  A    between atoms: O_20  and  C_21
REMARK    7  A    between atoms: C_22  and  O_23
REMARK                            x       y       z     vdW  Elec       q    Type
REMARK                         _______ _______ _______ _____ _____    ______ ____
ROOT
ATOM      1  C   UNL     1       2.942   7.724  18.117  0.00  0.00    +0.000 C 
ATOM      2  N   UNL     1       1.749   8.066  18.473  0.00  0.00    +0.000 NA
ENDROOT
BRANCH   2   3
ATOM      3  N   UNL     1       1.480   9.411  18.533  0.00  0.00    +0.000 N 
ATOM      4  C   UNL     1       0.767   9.947  19.567  0.00  0.00    +0.000 A 
ATOM      5  N   UNL     1       0.016  11.022  19.443  0.00  0.00    +0.000 NA
ATOM      6  C   UNL     1      -0.653  11.290  20.634  0.00  0.00    +0.000 A 
ATOM      7  C   UNL     1      -1.596  12.313  20.852  0.00  0.00    +0.000 A 
ATOM      8  C   UNL     1      -2.192  12.463  22.113  0.00  0.00    +0.000 A 
ATOM      9  C   UNL     1      -1.849  11.615  23.157  0.00  0.00    +0.000 A 
ATOM     10  C   UNL     1      -0.916  10.589  22.967  0.00  0.00    +0.000 A 
ATOM     11  C   UNL     1      -0.341  10.438  21.694  0.00  0.00    +0.000 A 
ATOM     12  S   UNL     1       0.784   9.262  21.153  0.00  0.00    +0.000 S 
ATOM     13  H   UNL     1       1.366   9.917  17.660  0.00  0.00    +0.000 HD
ENDBRANCH   2   3
BRANCH   1  16
ATOM     14  C   UNL     1       4.984   4.548  17.736  0.00  0.00    +0.000 A 
ATOM     15  C   UNL     1       4.640   5.902  17.868  0.00  0.00    +0.000 A 
ATOM     16  C   UNL     1       3.305   6.298  17.949  0.00  0.00    +0.000 A 
ATOM     17  C   UNL     1       2.305   5.330  17.889  0.00  0.00    +0.000 A 
ATOM     18  C   UNL     1       2.615   3.962  17.748  0.00  0.00    +0.000 A 
ATOM     19  C   UNL     1       3.966   3.571  17.682  0.00  0.00    +0.000 A 
BRANCH  14  21
ATOM     20  C   UNL     1       7.020   4.605  16.451  0.00  0.00    +0.000 C 
ATOM     21  O   UNL     1       6.344   4.362  17.675  0.00  0.00    +0.000 OA
ENDBRANCH  14  21
BRANCH  18  22
ATOM     22  O   UNL     1       1.472   3.210  17.720  0.00  0.00    +0.000 OA
ATOM     23  C   UNL     1       0.961   2.564  18.870  0.00  0.00    +0.000 C 
ENDBRANCH  18  22
BRANCH  19  24
ATOM     24  O   UNL     1       4.361   2.267  17.600  0.00  0.00    +0.000 OA
ATOM     25  H   UNL     1       3.622   1.694  17.380  0.00  0.00    +0.000 HD
ENDBRANCH  19  24
ENDBRANCH   1  16
TORSDOF 5
ENDMDL
MODEL 3
REMARK VINA RESULT:      -7.5      0.265      2.752
REMARK  Name = 
REMARK  7 active torsions:
REMARK  status: ('A' for Active; 'I' for Inactive)
REMARK    1  A    between atoms: C_1  and  O_2
REMARK    2  A    between atoms: O_2  and  C_3
REMARK    3  A    between atoms: C_5  and  C_6
REMARK    4  A    between atoms: N_7  and  N_8
REMARK    5  A    between atoms: C_19  and  O_20
REMARK    6  A    between atoms: O_20  and  C_21
REMARK    7  A    between atoms: C_22  and  O_23
REMARK                            x       y       z     vdW  Elec       q    Type
REMARK                         _______ _______ _______ _____ _____    ______ ____
ROOT
ATOM      1  C   UNL     1       2.958   7.213  18.447  0.00  0.00    +0.000 C 
ATOM      2  N   UNL     1       2.132   7.812  19.238  0.00  0.00    +0.000 NA
ENDROOT
BRANCH   2   3
ATOM      3  N   UNL     1       1.625   9.014  18.812  0.00  0.00    +0.000 N 
ATOM      4  C   UNL     1       0.821   9.771  19.615  0.00  0.00    +0.000 A 
ATOM      5  N   UNL     1      -0.110  10.577  19.148  0.00  0.00    +0.000 NA
ATOM      6  C   UNL     1      -0.823  11.156  20.195  0.00  0.00    +0.000 A 
ATOM      7  C   UNL     1      -1.936  12.011  20.076  0.00  0.00    +0.000 A 
ATOM      8  C   UNL     1      -2.557  12.521  21.226  0.00  0.00    +0.000 A 
ATOM      9  C   UNL     1      -2.073  12.199  22.487  0.00  0.00    +0.000 A 
ATOM     10  C   UNL     1      -0.969  11.351  22.632  0.00  0.00    +0.000 A 
ATOM     11  C   UNL     1      -0.369  10.831  21.473  0.00  0.00    +0.000 A 
ATOM     12  S   UNL     1       0.952   9.747  21.338  0.00  0.00    +0.000 S 
ATOM     13  H   UNL     1       1.427   9.128  17.822  0.00  0.00    +0.000 HD
ENDBRANCH   2   3
BRANCH   1  16
ATOM     14  C   UNL     1       3.169   3.572  19.497  0.00  0.00    +0.000 A 
ATOM     15  C   UNL     1       2.658   4.846  19.204  0.00  0.00    +0.000 A 
ATOM     16  C   UNL     1       3.499   5.875  18.784  0.00  0.00    +0.000 A 
ATOM     17  C   UNL     1       4.865   5.631  18.664  0.00  0.00    +0.000 A 
ATOM     18  C   UNL     1       5.413   4.365  18.959  0.00  0.00    +0.000 A 
ATOM     19  C   UNL     1       4.553   3.328  19.367  0.00  0.00    +0.000 A 
BRANCH  14  21
ATOM     20  C   UNL     1       1.247   3.110  20.874  0.00  0.00    +0.000 C 
ATOM     21  O   UNL     1       2.185   2.698  19.891  0.00  0.00    +0.000 OA
ENDBRANCH  14  21
BRANCH  18  22
ATOM     22  O   UNL     1       6.767   4.369  18.761  0.00  0.00    +0.000 OA
ATOM     23  C   UNL     1       7.349   4.685  17.511  0.00  0.00    +0.000 C 
ENDBRANCH  18  22
BRANCH  19  24
ATOM     24  O   UNL     1       4.986   2.058  19.621  0.00  0.00    +0.000 OA
ATOM     25  H   UNL     1       5.859   1.908  19.248  0.00  0.00    +0.000 HD
ENDBRANCH  19  24
ENDBRANCH   1  16
TORSDOF 5
ENDMDL
MODEL 4
REMARK VINA RESULT:      -7.5      1.198      2.843
REMARK  Name = 
REMARK  7 active torsions:
REMARK  status: ('A' for Active; 'I' for Inactive)
REMARK    1  A    between atoms: C_1  and  O_2
REMARK    2  A    between atoms: O_2  and  C_3
REMARK    3  A    between atoms: C_5  and  C_6
REMARK    4  A    between atoms: N_7  and  N_8
REMARK    5  A    between atoms: C_19  and  O_20
REMARK    6  A    between atoms: O_20  and  C_21
REMARK    7  A    between atoms: C_22  and  O_23
REMARK                            x       y       z     vdW  Elec       q    Type
REMARK                         _______ _______ _______ _____ _____    ______ ____
ROOT
ATOM      1  C   UNL     1       3.003   7.530  18.299  0.00  0.00    +0.000 C 
ATOM      2  N   UNL     1       1.780   7.889  18.500  0.00  0.00    +0.000 NA
ENDROOT
BRANCH   2   3
ATOM      3  N   UNL     1       1.523   9.237  18.517  0.00  0.00    +0.000 N 
ATOM      4  C   UNL     1       0.818   9.813  19.535  0.00  0.00    +0.000 A 
ATOM      5  N   UNL     1       0.076  10.890  19.378  0.00  0.00    +0.000 NA
ATOM      6  C   UNL     1      -0.588  11.202  20.561  0.00  0.00    +0.000 A 
ATOM      7  C   UNL     1      -1.521  12.240  20.748  0.00  0.00    +0.000 A 
ATOM      8  C   UNL     1      -2.111  12.436  22.005  0.00  0.00    +0.000 A 
ATOM      9  C   UNL     1      -1.772  11.620  23.076  0.00  0.00    +0.000 A 
ATOM     10  C   UNL     1      -0.849  10.581  22.917  0.00  0.00    +0.000 A 
ATOM     11  C   UNL     1      -0.279  10.383  21.648  0.00  0.00    +0.000 A 
ATOM     12  S   UNL     1       0.834   9.181  21.143  0.00  0.00    +0.000 S 
ATOM     13  H   UNL     1       1.411   9.715  17.628  0.00  0.00    +0.000 HD
ENDBRANCH   2   3
BRANCH   1  16
ATOM     14  C   UNL     1       2.742   3.772  17.840  0.00  0.00    +0.000 A 
ATOM     15  C   UNL     1       2.393   5.124  17.972  0.00  0.00    +0.000 A 
ATOM     16  C   UNL     1       3.367   6.098  18.188  0.00  0.00    +0.000 A 
ATOM     17  C   UNL     1       4.703   5.713  18.282  0.00  0.00    +0.000 A 
ATOM     18  C   UNL     1       5.087   4.362  18.163  0.00  0.00    +0.000 A 
ATOM     19  C   UNL     1       4.098   3.389  17.929  0.00  0.00    +0.000 A 
BRANCH  14  21
ATOM     20  C   UNL     1       0.921   2.484  18.750  0.00  0.00    +0.000 C 
ATOM     21  O   UNL     1       1.645   2.972  17.630  0.00  0.00    +0.000 OA
ENDBRANCH  14  21
BRANCH  18  22
ATOM     22  O   UNL     1       6.445   4.236  18.282  0.00  0.00    +0.000 OA
ATOM     23  C   UNL     1       7.328   5.323  18.082  0.00  0.00    +0.000 C 
ENDBRANCH  18  22
BRANCH  19  24
ATOM     24  O   UNL     1       4.383   2.066  17.746  0.00  0.00    +0.000 OA
ATOM     25  H   UNL     1       3.907   1.519  18.376  0.00  0.00    +0.000 HD
ENDBRANCH  19  24
ENDBRANCH   1  16
TORSDOF 5
ENDMDL
MODEL 5
REMARK VINA RESULT:      -7.0      4.678      8.672
REMARK  Name = 
REMARK  7 active torsions:
REMARK  status: ('A' for Active; 'I' for Inactive)
REMARK    1  A    between atoms: C_1  and  O_2
REMARK    2  A    between atoms: O_2  and  C_3
REMARK    3  A    between atoms: C_5  and  C_6
REMARK    4  A    between atoms: N_7  and  N_8
REMARK    5  A    between atoms: C_19  and  O_20
REMARK    6  A    between atoms: O_20  and  C_21
REMARK    7  A    between atoms: C_22  and  O_23
REMARK                            x       y       z     vdW  Elec       q    Type
REMARK                         _______ _______ _______ _____ _____    ______ ____
ROOT
ATOM      1  C   UNL     1       0.412   9.169  20.684  0.00  0.00    +0.000 C 
ATOM      2  N   UNL     1       1.530   8.567  20.454  0.00  0.00    +0.000 NA
ENDROOT
BRANCH   2   3
ATOM      3  N   UNL     1       1.724   7.357  21.071  0.00  0.00    +0.000 N 
ATOM      4  C   UNL     1       1.912   6.213  20.349  0.00  0.00    +0.000 A 
ATOM      5  N   UNL     1       1.555   5.022  20.781  0.00  0.00    +0.000 NA
ATOM      6  C   UNL     1       1.794   4.057  19.806  0.00  0.00    +0.000 A 
ATOM      7  C   UNL     1       1.469   2.689  19.886  0.00  0.00    +0.000 A 
ATOM      8  C   UNL     1       1.773   1.832  18.818  0.00  0.00    +0.000 A 
ATOM      9  C   UNL     1       2.406   2.320  17.683  0.00  0.00    +0.000 A 
ATOM     10  C   UNL     1       2.737   3.675  17.578  0.00  0.00    +0.000 A 
ATOM     11  C   UNL     1       2.410   4.527  18.646  0.00  0.00    +0.000 A 
ATOM     12  S   UNL     1       2.648   6.219  18.786  0.00  0.00    +0.000 S 
ATOM     13  H   UNL     1       1.273   7.199  21.967  0.00  0.00    +0.000 HD
ENDBRANCH   2   3
BRANCH   1  16
ATOM     14  C   UNL     1       0.471  12.817  19.639  0.00  0.00    +0.000 A 
ATOM     15  C   UNL     1       0.770  11.617  20.303  0.00  0.00    +0.000 A 
ATOM     16  C   UNL     1       0.079  10.443  20.005  0.00  0.00    +0.000 A 
ATOM     17  C   UNL     1      -0.925  10.471  19.039  0.00  0.00    +0.000 A 
ATOM     18  C   UNL     1      -1.255  11.662  18.359  0.00  0.00    +0.000 A 
ATOM     19  C   UNL     1      -0.542  12.838  18.656  0.00  0.00    +0.000 A 
BRANCH  14  21
ATOM     20  C   UNL     1       2.578  13.981  19.559  0.00  0.00    +0.000 C 
ATOM     21  O   UNL     1       1.259  13.857  20.069  0.00  0.00    +0.000 OA
ENDBRANCH  14  21
BRANCH  18  22
ATOM     22  O   UNL     1      -2.262  11.438  17.459  0.00  0.00    +0.000 OA
ATOM     23  C   UNL     1      -2.322  10.268  16.665  0.00  0.00    +0.000 C 
ENDBRANCH  18  22
BRANCH  19  24
ATOM     24  O   UNL     1      -0.757  14.022  18.011  0.00  0.00    +0.000 OA
ATOM     25  H   UNL     1      -1.674  14.107  17.737  0.00  0.00    +0.000 HD
ENDBRANCH  19  24
ENDBRANCH   1  16
TORSDOF 5
ENDMDL
MODEL 6
REMARK VINA RESULT:      -7.0      4.649      8.910
REMARK  Name = 
REMARK  7 active torsions:
REMARK  status: ('A' for Active; 'I' for Inactive)
REMARK    1  A    between atoms: C_1  and  O_2
REMARK    2  A    between atoms: O_2  and  C_3
REMARK    3  A    between atoms: C_5  and  C_6
REMARK    4  A    between atoms: N_7  and  N_8
REMARK    5  A    between atoms: C_19  and  O_20
REMARK    6  A    between atoms: O_20  and  C_21
REMARK    7  A    between atoms: C_22  and  O_23
REMARK                            x       y       z     vdW  Elec       q    Type
REMARK                         _______ _______ _______ _____ _____    ______ ____
ROOT
ATOM      1  C   UNL     1       0.414   9.074  20.526  0.00  0.00    +0.000 C 
ATOM      2  N   UNL     1       1.602   8.571  20.490  0.00  0.00    +0.000 NA
ENDROOT
BRANCH   2   3
ATOM      3  N   UNL     1       1.780   7.355  21.100  0.00  0.00    +0.000 N 
ATOM      4  C   UNL     1       1.948   6.212  20.373  0.00  0.00    +0.000 A 
ATOM      5  N   UNL     1       1.574   5.024  20.801  0.00  0.00    +0.000 NA
ATOM      6  C   UNL     1       1.794   4.060  19.820  0.00  0.00    +0.000 A 
ATOM      7  C   UNL     1       1.450   2.697  19.895  0.00  0.00    +0.000 A 
ATOM      8  C   UNL     1       1.736   1.840  18.822  0.00  0.00    +0.000 A 
ATOM      9  C   UNL     1       2.370   2.324  17.686  0.00  0.00    +0.000 A 
ATOM     10  C   UNL     1       2.722   3.674  17.586  0.00  0.00    +0.000 A 
ATOM     11  C   UNL     1       2.413   4.526  18.659  0.00  0.00    +0.000 A 
ATOM     12  S   UNL     1       2.676   6.214  18.806  0.00  0.00    +0.000 S 
ATOM     13  H   UNL     1       1.331   7.199  21.998  0.00  0.00    +0.000 HD
ENDBRANCH   2   3
BRANCH   1  16
ATOM     14  C   UNL     1      -1.371  11.705  18.453  0.00  0.00    +0.000 A 
ATOM     15  C   UNL     1      -1.067  10.492  19.089  0.00  0.00    +0.000 A 
ATOM     16  C   UNL     1       0.105  10.346  19.830  0.00  0.00    +0.000 A 
ATOM     17  C   UNL     1       0.985  11.421  19.927  0.00  0.00    +0.000 A 
ATOM     18  C   UNL     1       0.715  12.651  19.293  0.00  0.00    +0.000 A 
ATOM     19  C   UNL     1      -0.478  12.793  18.561  0.00  0.00    +0.000 A 
BRANCH  14  21
ATOM     20  C   UNL     1      -2.602  11.071  16.481  0.00  0.00    +0.000 C 
ATOM     21  O   UNL     1      -2.566  11.651  17.777  0.00  0.00    +0.000 OA
ENDBRANCH  14  21
BRANCH  18  22
ATOM     22  O   UNL     1       1.718  13.549  19.539  0.00  0.00    +0.000 OA
ATOM     23  C   UNL     1       2.830  13.698  18.678  0.00  0.00    +0.000 C 
ENDBRANCH  18  22
BRANCH  19  24
ATOM     24  O   UNL     1      -0.848  13.962  17.960  0.00  0.00    +0.000 OA
ATOM     25  H   UNL     1      -1.245  13.800  17.100  0.00  0.00    +0.000 HD
ENDBRANCH  19  24
ENDBRANCH   1  16
TORSDOF 5
ENDMDL
MODEL 7
REMARK VINA RESULT:      -7.0      1.667      3.294
REMARK  Name = 
REMARK  7 active torsions:
REMARK  status: ('A' for Active; 'I' for Inactive)
REMARK    1  A    between atoms: C_1  and  O_2
REMARK    2  A    between atoms: O_2  and  C_3
REMARK    3  A    between atoms: C_5  and  C_6
REMARK    4  A    between atoms: N_7  and  N_8
REMARK    5  A    between atoms: C_19  and  O_20
REMARK    6  A    between atoms: O_20  and  C_21
REMARK    7  A    between atoms: C_22  and  O_23
REMARK                            x       y       z     vdW  Elec       q    Type
REMARK                         _______ _______ _______ _____ _____    ______ ____
ROOT
ATOM      1  C   UNL     1       3.211   8.173  17.768  0.00  0.00    +0.000 C 
ATOM      2  N   UNL     1       1.938   8.349  17.894  0.00  0.00    +0.000 NA
ENDROOT
BRANCH   2   3
ATOM      3  N   UNL     1       1.502   9.640  18.055  0.00  0.00    +0.000 N 
ATOM      4  C   UNL     1       0.861  10.038  19.193  0.00  0.00    +0.000 A 
ATOM      5  N   UNL     1      -0.035  11.002  19.216  0.00  0.00    +0.000 NA
ATOM      6  C   UNL     1      -0.577  11.134  20.491  0.00  0.00    +0.000 A 
ATOM      7  C   UNL     1      -1.613  12.009  20.874  0.00  0.00    +0.000 A 
ATOM      8  C   UNL     1      -2.058  12.032  22.203  0.00  0.00    +0.000 A 
ATOM      9  C   UNL     1      -1.475  11.206  23.154  0.00  0.00    +0.000 A 
ATOM     10  C   UNL     1      -0.446  10.326  22.800  0.00  0.00    +0.000 A 
ATOM     11  C   UNL     1      -0.022  10.299  21.461  0.00  0.00    +0.000 A 
ATOM     12  S   UNL     1       1.171   9.309  20.729  0.00  0.00    +0.000 S 
ATOM     13  H   UNL     1       1.212  10.154  17.228  0.00  0.00    +0.000 HD
ENDBRANCH   2   3
BRANCH   1  16
ATOM     14  C   UNL     1       3.632   4.402  17.699  0.00  0.00    +0.000 A 
ATOM     15  C   UNL     1       3.115   5.679  17.964  0.00  0.00    +0.000 A 
ATOM     16  C   UNL     1       3.770   6.824  17.514  0.00  0.00    +0.000 A 
ATOM     17  C   UNL     1       4.959   6.691  16.800  0.00  0.00    +0.000 A 
ATOM     18  C   UNL     1       5.511   5.423  16.524  0.00  0.00    +0.000 A 
ATOM     19  C   UNL     1       4.834   4.272  16.969  0.00  0.00    +0.000 A 
BRANCH  14  21
ATOM     20  C   UNL     1       1.453   3.638  18.383  0.00  0.00    +0.000 C 
ATOM     21  O   UNL     1       2.844   3.405  18.221  0.00  0.00    +0.000 OA
ENDBRANCH  14  21
BRANCH  18  22
ATOM     22  O   UNL     1       6.671   5.549  15.808  0.00  0.00    +0.000 OA
ATOM     23  C   UNL     1       6.867   4.905  14.564  0.00  0.00    +0.000 C 
ENDBRANCH  18  22
BRANCH  19  24
ATOM     24  O   UNL     1       5.265   3.005  16.701  0.00  0.00    +0.000 OA
ATOM     25  H   UNL     1       5.097   2.418  17.444  0.00  0.00    +0.000 HD
ENDBRANCH  19  24
ENDBRANCH   1  16
TORSDOF 5
ENDMDL
MODEL 8
REMARK VINA RESULT:      -7.0      1.007      1.095
REMARK  Name = 
REMARK  7 active torsions:
REMARK  status: ('A' for Active; 'I' for Inactive)
REMARK    1  A    between atoms: C_1  and  O_2
REMARK    2  A    between atoms: O_2  and  C_3
REMARK    3  A    between atoms: C_5  and  C_6
REMARK    4  A    between atoms: N_7  and  N_8
REMARK    5  A    between atoms: C_19  and  O_20
REMARK    6  A    between atoms: O_20  and  C_21
REMARK    7  A    between atoms: C_22  and  O_23
REMARK                            x       y       z     vdW  Elec       q    Type
REMARK                         _______ _______ _______ _____ _____    ______ ____
ROOT
ATOM      1  C   UNL     1       2.571   7.997  17.823  0.00  0.00    +0.000 C 
ATOM      2  N   UNL     1       1.854   8.587  18.720  0.00  0.00    +0.000 NA
ENDROOT
BRANCH   2   3
ATOM      3  N   UNL     1       1.193   9.727  18.335  0.00  0.00    +0.000 N 
ATOM      4  C   UNL     1       0.379  10.403  19.198  0.00  0.00    +0.000 A 
ATOM      5  N   UNL     1      -0.664  11.104  18.804  0.00  0.00    +0.000 NA
ATOM      6  C   UNL     1      -1.352  11.613  19.903  0.00  0.00    +0.000 A 
ATOM      7  C   UNL     1      -2.554  12.347  19.870  0.00  0.00    +0.000 A 
ATOM      8  C   UNL     1      -3.134  12.798  21.065  0.00  0.00    +0.000 A 
ATOM      9  C   UNL     1      -2.524  12.537  22.285  0.00  0.00    +0.000 A 
ATOM     10  C   UNL     1      -1.331  11.809  22.345  0.00  0.00    +0.000 A 
ATOM     11  C   UNL     1      -0.770  11.347  21.143  0.00  0.00    +0.000 A 
ATOM     12  S   UNL     1       0.642  10.404  20.905  0.00  0.00    +0.000 S 
ATOM     13  H   UNL     1       0.910   9.812  17.363  0.00  0.00    +0.000 HD
ENDBRANCH   2   3
BRANCH   1  16
ATOM     14  C   UNL     1       5.230   5.295  18.006  0.00  0.00    +0.000 A 
ATOM     15  C   UNL     1       4.570   6.495  17.700  0.00  0.00    +0.000 A 
ATOM     16  C   UNL     1       3.260   6.719  18.122  0.00  0.00    +0.000 A 
ATOM     17  C   UNL     1       2.601   5.730  18.849  0.00  0.00    +0.000 A 
ATOM     18  C   UNL     1       3.232   4.510  19.166  0.00  0.00    +0.000 A 
ATOM     19  C   UNL     1       4.560   4.299  18.750  0.00  0.00    +0.000 A 
BRANCH  14  21
ATOM     20  C   UNL     1       7.314   6.432  17.600  0.00  0.00    +0.000 C 
ATOM     21  O   UNL     1       6.509   5.266  17.507  0.00  0.00    +0.000 OA
ENDBRANCH  14  21
BRANCH  18  22
ATOM     22  O   UNL     1       2.390   3.707  19.888  0.00  0.00    +0.000 OA
ATOM     23  C   UNL     1       2.230   3.841  21.287  0.00  0.00    +0.000 C 
ENDBRANCH  18  22
BRANCH  19  24
ATOM     24  O   UNL     1       5.267   3.172  19.058  0.00  0.00    +0.000 OA
ATOM     25  H   UNL     1       5.438   3.117  20.001  0.00  0.00    +0.000 HD
ENDBRANCH  19  24
ENDBRANCH   1  16
TORSDOF 5
ENDMDL
MODEL 9
REMARK VINA RESULT:      -6.9      6.424      9.010
REMARK  Name = 
REMARK  7 active torsions:
REMARK  status: ('A' for Active; 'I' for Inactive)
REMARK    1  A    between atoms: C_1  and  O_2
REMARK    2  A    between atoms: O_2  and  C_3
REMARK    3  A    between atoms: C_5  and  C_6
REMARK    4  A    between atoms: N_7  and  N_8
REMARK    5  A    between atoms: C_19  and  O_20
REMARK    6  A    between atoms: O_20  and  C_21
REMARK    7  A    between atoms: C_22  and  O_23
REMARK                            x       y       z     vdW  Elec       q    Type
REMARK                         _______ _______ _______ _____ _____    ______ ____
ROOT
ATOM      1  C   UNL     1       8.436   8.434  18.092  0.00  0.00    +0.000 C 
ATOM      2  N   UNL     1       7.588   8.079  17.186  0.00  0.00    +0.000 NA
ENDROOT
BRANCH   2   3
ATOM      3  N   UNL     1       7.332   6.736  17.066  0.00  0.00    +0.000 N 
ATOM      4  C   UNL     1       6.108   6.215  17.375  0.00  0.00    +0.000 A 
ATOM      5  N   UNL     1       5.940   4.987  17.819  0.00  0.00    +0.000 NA
ATOM      6  C   UNL     1       4.601   4.759  18.126  0.00  0.00    +0.000 A 
ATOM      7  C   UNL     1       4.060   3.588  18.692  0.00  0.00    +0.000 A 
ATOM      8  C   UNL     1       2.683   3.502  18.947  0.00  0.00    +0.000 A 
ATOM      9  C   UNL     1       1.842   4.561  18.631  0.00  0.00    +0.000 A 
ATOM     10  C   UNL     1       2.354   5.735  18.068  0.00  0.00    +0.000 A 
ATOM     11  C   UNL     1       3.737   5.816  17.837  0.00  0.00    +0.000 A 
ATOM     12  S   UNL     1       4.649   7.125  17.208  0.00  0.00    +0.000 S 
ATOM     13  H   UNL     1       8.098   6.087  17.222  0.00  0.00    +0.000 HD
ENDBRANCH   2   3
BRANCH   1  16
ATOM     14  C   UNL     1       9.991  11.606  19.479  0.00  0.00    +0.000 A 
ATOM     15  C   UNL     1       9.704  10.250  19.258  0.00  0.00    +0.000 A 
ATOM     16  C   UNL     1       8.720   9.866  18.348  0.00  0.00    +0.000 A 
ATOM     17  C   UNL     1       8.010  10.847  17.661  0.00  0.00    +0.000 A 
ATOM     18  C   UNL     1       8.266  12.218  17.866  0.00  0.00    +0.000 A 
ATOM     19  C   UNL     1       9.272  12.596  18.774  0.00  0.00    +0.000 A 
BRANCH  14  21
ATOM     20  C   UNL     1      12.330  11.919  19.959  0.00  0.00    +0.000 C 
ATOM     21  O   UNL     1      10.990  11.780  20.407  0.00  0.00    +0.000 OA
ENDBRANCH  14  21
BRANCH  18  22
ATOM     22  O   UNL     1       7.451  12.983  17.076  0.00  0.00    +0.000 OA
ATOM     23  C   UNL     1       6.728  14.090  17.581  0.00  0.00    +0.000 C 
ENDBRANCH  18  22
BRANCH  19  24
ATOM     24  O   UNL     1       9.626  13.896  18.996  0.00  0.00    +0.000 OA
ATOM     25  H   UNL     1      10.250  14.204  18.334  0.00  0.00    +0.000 HD
ENDBRANCH  19  24
ENDBRANCH   1  16
TORSDOF 5
ENDMDL
