MODEL 1
REMARK VINA RESULT:      -7.7      0.000      0.000
REMARK  Name = 
REMARK  1 active torsions:
REMARK  status: ('A' for Active; 'I' for Inactive)
REMARK    1  A    between atoms: C_1  and  N_2
REMARK                            x       y       z     vdW  Elec       q    Type
REMARK                         _______ _______ _______ _____ _____    ______ ____
ROOT
ATOM      1  C   UNL     1       2.716   7.672  17.925  0.00  0.00    +0.000 C 
ATOM      2  N   UNL     1       3.398   6.400  17.818  0.00  0.00    +0.000 N 
ATOM      3  C   UNL     1       4.664   6.199  17.388  0.00  0.00    +0.000 C 
ATOM      4  O   UNL     1       5.379   7.107  16.995  0.00  0.00    +0.000 OA
ATOM      5  C   UNL     1       5.080   4.731  17.485  0.00  0.00    +0.000 C 
ATOM      6  C   UNL     1       6.249   4.535  18.474  0.00  0.00    +0.000 C 
ATOM      7  C   UNL     1       7.565   5.075  17.880  0.00  0.00    +0.000 C 
ATOM      8  N   UNL     1       7.871   4.420  16.598  0.00  0.00    +0.000 NA
ATOM      9  C   UNL     1       6.799   4.636  15.611  0.00  0.00    +0.000 C 
ATOM     10  C   UNL     1       5.453   4.097  16.127  0.00  0.00    +0.000 C 
ATOM     11  C   UNL     1       3.786   4.154  18.018  0.00  0.00    +0.000 A 
ATOM     12  C   UNL     1       3.463   2.828  18.330  0.00  0.00    +0.000 A 
ATOM     13  C   UNL     1       2.168   2.544  18.802  0.00  0.00    +0.000 A 
ATOM     14  F   UNL     1       1.824   1.269  19.105  0.00  0.00    +0.000 F 
ATOM     15  C   UNL     1       1.224   3.579  18.958  0.00  0.00    +0.000 A 
ATOM     16  C   UNL     1       1.567   4.903  18.649  0.00  0.00    +0.000 A 
ATOM     17  C   UNL     1       2.857   5.159  18.180  0.00  0.00    +0.000 A 
ATOM     18  H   UNL     1       8.003   3.394  16.754  0.00  0.00    +0.000 HD
ENDROOT
TORSDOF 0
ENDMDL
MODEL 2
REMARK VINA RESULT:      -7.6      1.315      1.328
REMARK  Name = 
REMARK  1 active torsions:
REMARK  status: ('A' for Active; 'I' for Inactive)
REMARK    1  A    between atoms: C_1  and  N_2
REMARK                            x       y       z     vdW  Elec       q    Type
REMARK                         _______ _______ _______ _____ _____    ______ ____
ROOT
ATOM      1  C   UNL     1       2.480   7.854  18.206  0.00  0.00    +0.000 C 
ATOM      2  N   UNL     1       3.227   6.626  18.373  0.00  0.00    +0.000 N 
ATOM      3  C   UNL     1       4.381   6.295  17.752  0.00  0.00    +0.000 C 
ATOM      4  O   UNL     1       4.917   7.017  16.926  0.00  0.00    +0.000 OA
ATOM      5  C   UNL     1       4.931   4.951  18.232  0.00  0.00    +0.000 C 
ATOM      6  C   UNL     1       6.298   5.111  18.930  0.00  0.00    +0.000 C 
ATOM      7  C   UNL     1       7.404   5.421  17.901  0.00  0.00    +0.000 C 
ATOM      8  N   UNL     1       7.479   4.369  16.876  0.00  0.00    +0.000 NA
ATOM      9  C   UNL     1       6.204   4.228  16.151  0.00  0.00    +0.000 C 
ATOM     10  C   UNL     1       5.052   3.892  17.114  0.00  0.00    +0.000 C 
ATOM     11  C   UNL     1       3.836   4.586  19.211  0.00  0.00    +0.000 A 
ATOM     12  C   UNL     1       3.700   3.446  20.012  0.00  0.00    +0.000 A 
ATOM     13  C   UNL     1       2.567   3.335  20.839  0.00  0.00    +0.000 A 
ATOM     14  F   UNL     1       2.405   2.239  21.620  0.00  0.00    +0.000 F 
ATOM     15  C   UNL     1       1.596   4.356  20.857  0.00  0.00    +0.000 A 
ATOM     16  C   UNL     1       1.752   5.495  20.055  0.00  0.00    +0.000 A 
ATOM     17  C   UNL     1       2.883   5.582  19.241  0.00  0.00    +0.000 A 
ATOM     18  H   UNL     1       7.727   3.458  17.329  0.00  0.00    +0.000 HD
ENDROOT
TORSDOF 0
ENDMDL
MODEL 3
REMARK VINA RESULT:      -7.4      2.673      4.572
REMARK  Name = 
REMARK  1 active torsions:
REMARK  status: ('A' for Active; 'I' for Inactive)
REMARK    1  A    between atoms: C_1  and  N_2
REMARK                            x       y       z     vdW  Elec       q    Type
REMARK                         _______ _______ _______ _____ _____    ______ ____
ROOT
ATOM      1  C   UNL     1       2.903   7.955  18.154  0.00  0.00    +0.000 C 
ATOM      2  N   UNL     1       3.171   6.533  18.111  0.00  0.00    +0.000 N 
ATOM      3  C   UNL     1       2.614   5.585  18.896  0.00  0.00    +0.000 C 
ATOM      4  O   UNL     1       1.817   5.847  19.784  0.00  0.00    +0.000 OA
ATOM      5  C   UNL     1       3.074   4.177  18.517  0.00  0.00    +0.000 C 
ATOM      6  C   UNL     1       1.899   3.307  18.023  0.00  0.00    +0.000 C 
ATOM      7  C   UNL     1       0.983   2.907  19.197  0.00  0.00    +0.000 C 
ATOM      8  N   UNL     1       1.742   2.190  20.235  0.00  0.00    +0.000 NA
ATOM      9  C   UNL     1       2.839   3.015  20.769  0.00  0.00    +0.000 C 
ATOM     10  C   UNL     1       3.813   3.435  19.653  0.00  0.00    +0.000 C 
ATOM     11  C   UNL     1       4.024   4.534  17.394  0.00  0.00    +0.000 A 
ATOM     12  C   UNL     1       4.814   3.700  16.595  0.00  0.00    +0.000 A 
ATOM     13  C   UNL     1       5.635   4.287  15.614  0.00  0.00    +0.000 A 
ATOM     14  F   UNL     1       6.416   3.505  14.830  0.00  0.00    +0.000 F 
ATOM     15  C   UNL     1       5.651   5.686  15.443  0.00  0.00    +0.000 A 
ATOM     16  C   UNL     1       4.846   6.506  16.246  0.00  0.00    +0.000 A 
ATOM     17  C   UNL     1       4.043   5.901  17.214  0.00  0.00    +0.000 A 
ATOM     18  H   UNL     1       2.131   1.306  19.833  0.00  0.00    +0.000 HD
ENDROOT
TORSDOF 0
ENDMDL
MODEL 4
REMARK VINA RESULT:      -7.3      2.658      4.954
REMARK  Name = 
REMARK  1 active torsions:
REMARK  status: ('A' for Active; 'I' for Inactive)
REMARK    1  A    between atoms: C_1  and  N_2
REMARK                            x       y       z     vdW  Elec       q    Type
REMARK                         _______ _______ _______ _____ _____    ______ ____
ROOT
ATOM      1  C   UNL     1       6.792   5.509  19.428  0.00  0.00    +0.000 C 
ATOM      2  N   UNL     1       5.859   4.835  18.551  0.00  0.00    +0.000 N 
ATOM      3  C   UNL     1       4.673   4.291  18.903  0.00  0.00    +0.000 C 
ATOM      4  O   UNL     1       4.266   4.283  20.054  0.00  0.00    +0.000 OA
ATOM      5  C   UNL     1       3.914   3.732  17.699  0.00  0.00    +0.000 C 
ATOM      6  C   UNL     1       2.582   4.478  17.469  0.00  0.00    +0.000 C 
ATOM      7  C   UNL     1       1.549   4.099  18.548  0.00  0.00    +0.000 C 
ATOM      8  N   UNL     1       1.318   2.645  18.568  0.00  0.00    +0.000 NA
ATOM      9  C   UNL     1       2.561   1.904  18.842  0.00  0.00    +0.000 C 
ATOM     10  C   UNL     1       3.637   2.214  17.787  0.00  0.00    +0.000 C 
ATOM     11  C   UNL     1       4.928   4.038  16.619  0.00  0.00    +0.000 A 
ATOM     12  C   UNL     1       4.874   3.774  15.245  0.00  0.00    +0.000 A 
ATOM     13  C   UNL     1       5.968   4.151  14.444  0.00  0.00    +0.000 A 
ATOM     14  F   UNL     1       5.948   3.902  13.112  0.00  0.00    +0.000 F 
ATOM     15  C   UNL     1       7.088   4.783  15.020  0.00  0.00    +0.000 A 
ATOM     16  C   UNL     1       7.122   5.048  16.396  0.00  0.00    +0.000 A 
ATOM     17  C   UNL     1       6.026   4.663  17.171  0.00  0.00    +0.000 A 
ATOM     18  H   UNL     1       0.925   2.343  17.647  0.00  0.00    +0.000 HD
ENDROOT
TORSDOF 0
ENDMDL
MODEL 5
REMARK VINA RESULT:      -7.2      2.967      5.175
REMARK  Name = 
REMARK  1 active torsions:
REMARK  status: ('A' for Active; 'I' for Inactive)
REMARK    1  A    between atoms: C_1  and  N_2
REMARK                            x       y       z     vdW  Elec       q    Type
REMARK                         _______ _______ _______ _____ _____    ______ ____
ROOT
ATOM      1  C   UNL     1       6.138   4.335  18.018  0.00  0.00    +0.000 C 
ATOM      2  N   UNL     1       4.777   4.653  18.394  0.00  0.00    +0.000 N 
ATOM      3  C   UNL     1       3.935   3.871  19.105  0.00  0.00    +0.000 C 
ATOM      4  O   UNL     1       4.238   2.753  19.491  0.00  0.00    +0.000 OA
ATOM      5  C   UNL     1       2.600   4.564  19.384  0.00  0.00    +0.000 C 
ATOM      6  C   UNL     1       2.377   4.783  20.895  0.00  0.00    +0.000 C 
ATOM      7  C   UNL     1       2.059   3.449  21.600  0.00  0.00    +0.000 C 
ATOM      8  N   UNL     1       0.877   2.807  21.001  0.00  0.00    +0.000 NA
ATOM      9  C   UNL     1       1.079   2.532  19.568  0.00  0.00    +0.000 C 
ATOM     10  C   UNL     1       1.379   3.827  18.792  0.00  0.00    +0.000 C 
ATOM     11  C   UNL     1       2.855   5.867  18.656  0.00  0.00    +0.000 A 
ATOM     12  C   UNL     1       2.019   6.978  18.498  0.00  0.00    +0.000 A 
ATOM     13  C   UNL     1       2.490   8.075  17.754  0.00  0.00    +0.000 A 
ATOM     14  F   UNL     1       1.701   9.162  17.578  0.00  0.00    +0.000 F 
ATOM     15  C   UNL     1       3.780   8.049  17.186  0.00  0.00    +0.000 A 
ATOM     16  C   UNL     1       4.608   6.931  17.361  0.00  0.00    +0.000 A 
ATOM     17  C   UNL     1       4.117   5.854  18.101  0.00  0.00    +0.000 A 
ATOM     18  H   UNL     1       0.044   3.427  21.126  0.00  0.00    +0.000 HD
ENDROOT
TORSDOF 0
ENDMDL
MODEL 6
REMARK VINA RESULT:      -7.0      2.729      3.760
REMARK  Name = 
REMARK  1 active torsions:
REMARK  status: ('A' for Active; 'I' for Inactive)
REMARK    1  A    between atoms: C_1  and  N_2
REMARK                            x       y       z     vdW  Elec       q    Type
REMARK                         _______ _______ _______ _____ _____    ______ ____
ROOT
ATOM      1  C   UNL     1       2.962   3.832  20.655  0.00  0.00    +0.000 C 
ATOM      2  N   UNL     1       3.584   4.638  19.626  0.00  0.00    +0.000 N 
ATOM      3  C   UNL     1       4.665   4.305  18.887  0.00  0.00    +0.000 C 
ATOM      4  O   UNL     1       5.274   3.258  19.042  0.00  0.00    +0.000 OA
ATOM      5  C   UNL     1       4.997   5.367  17.837  0.00  0.00    +0.000 C 
ATOM      6  C   UNL     1       4.856   4.814  16.403  0.00  0.00    +0.000 C 
ATOM      7  C   UNL     1       6.009   3.845  16.075  0.00  0.00    +0.000 C 
ATOM      8  N   UNL     1       7.314   4.505  16.237  0.00  0.00    +0.000 NA
ATOM      9  C   UNL     1       7.505   4.996  17.613  0.00  0.00    +0.000 C 
ATOM     10  C   UNL     1       6.399   5.993  18.005  0.00  0.00    +0.000 C 
ATOM     11  C   UNL     1       3.911   6.369  18.166  0.00  0.00    +0.000 A 
ATOM     12  C   UNL     1       3.638   7.611  17.581  0.00  0.00    +0.000 A 
ATOM     13  C   UNL     1       2.566   8.371  18.084  0.00  0.00    +0.000 A 
ATOM     14  F   UNL     1       2.281   9.580  17.542  0.00  0.00    +0.000 F 
ATOM     15  C   UNL     1       1.786   7.882  19.152  0.00  0.00    +0.000 A 
ATOM     16  C   UNL     1       2.068   6.632  19.720  0.00  0.00    +0.000 A 
ATOM     17  C   UNL     1       3.139   5.899  19.206  0.00  0.00    +0.000 A 
ATOM     18  H   UNL     1       7.384   5.305  15.566  0.00  0.00    +0.000 HD
ENDROOT
TORSDOF 0
ENDMDL
MODEL 7
REMARK VINA RESULT:      -7.0      2.353      3.293
REMARK  Name = 
REMARK  1 active torsions:
REMARK  status: ('A' for Active; 'I' for Inactive)
REMARK    1  A    between atoms: C_1  and  N_2
REMARK                            x       y       z     vdW  Elec       q    Type
REMARK                         _______ _______ _______ _____ _____    ______ ____
ROOT
ATOM      1  C   UNL     1       3.179   1.772  17.813  0.00  0.00    +0.000 C 
ATOM      2  N   UNL     1       3.554   3.146  18.068  0.00  0.00    +0.000 N 
ATOM      3  C   UNL     1       4.582   3.818  17.504  0.00  0.00    +0.000 C 
ATOM      4  O   UNL     1       5.353   3.301  16.712  0.00  0.00    +0.000 OA
ATOM      5  C   UNL     1       4.630   5.280  17.951  0.00  0.00    +0.000 C 
ATOM      6  C   UNL     1       4.411   6.245  16.766  0.00  0.00    +0.000 C 
ATOM      7  C   UNL     1       5.651   6.277  15.850  0.00  0.00    +0.000 C 
ATOM      8  N   UNL     1       6.853   6.666  16.605  0.00  0.00    +0.000 NA
ATOM      9  C   UNL     1       7.123   5.731  17.710  0.00  0.00    +0.000 C 
ATOM     10  C   UNL     1       5.934   5.665  18.685  0.00  0.00    +0.000 C 
ATOM     11  C   UNL     1       3.452   5.275  18.901  0.00  0.00    +0.000 A 
ATOM     12  C   UNL     1       2.932   6.313  19.682  0.00  0.00    +0.000 A 
ATOM     13  C   UNL     1       1.823   6.046  20.506  0.00  0.00    +0.000 A 
ATOM     14  F   UNL     1       1.302   7.030  21.279  0.00  0.00    +0.000 F 
ATOM     15  C   UNL     1       1.251   4.759  20.534  0.00  0.00    +0.000 A 
ATOM     16  C   UNL     1       1.779   3.732  19.739  0.00  0.00    +0.000 A 
ATOM     17  C   UNL     1       2.881   4.020  18.932  0.00  0.00    +0.000 A 
ATOM     18  H   UNL     1       6.727   7.633  16.985  0.00  0.00    +0.000 HD
ENDROOT
TORSDOF 0
ENDMDL
MODEL 8
REMARK VINA RESULT:      -6.7      2.766      3.780
REMARK  Name = 
REMARK  1 active torsions:
REMARK  status: ('A' for Active; 'I' for Inactive)
REMARK    1  A    between atoms: C_1  and  N_2
REMARK                            x       y       z     vdW  Elec       q    Type
REMARK                         _______ _______ _______ _____ _____    ______ ____
ROOT
ATOM      1  C   UNL     1       2.807   2.906  21.051  0.00  0.00    +0.000 C 
ATOM      2  N   UNL     1       3.327   3.888  20.124  0.00  0.00    +0.000 N 
ATOM      3  C   UNL     1       4.348   3.715  19.256  0.00  0.00    +0.000 C 
ATOM      4  O   UNL     1       4.986   2.677  19.186  0.00  0.00    +0.000 OA
ATOM      5  C   UNL     1       4.571   4.944  18.375  0.00  0.00    +0.000 C 
ATOM      6  C   UNL     1       4.321   4.630  16.884  0.00  0.00    +0.000 C 
ATOM      7  C   UNL     1       5.460   3.764  16.309  0.00  0.00    +0.000 C 
ATOM      8  N   UNL     1       6.762   4.430  16.474  0.00  0.00    +0.000 NA
ATOM      9  C   UNL     1       7.058   4.694  17.892  0.00  0.00    +0.000 C 
ATOM     10  C   UNL     1       5.972   5.578  18.531  0.00  0.00    +0.000 C 
ATOM     11  C   UNL     1       3.500   5.845  18.950  0.00  0.00    +0.000 A 
ATOM     12  C   UNL     1       3.157   7.156  18.603  0.00  0.00    +0.000 A 
ATOM     13  C   UNL     1       2.117   7.790  19.309  0.00  0.00    +0.000 A 
ATOM     14  F   UNL     1       1.767   9.062  19.000  0.00  0.00    +0.000 F 
ATOM     15  C   UNL     1       1.438   7.109  20.340  0.00  0.00    +0.000 A 
ATOM     16  C   UNL     1       1.789   5.792  20.669  0.00  0.00    +0.000 A 
ATOM     17  C   UNL     1       2.826   5.186  19.956  0.00  0.00    +0.000 A 
ATOM     18  H   UNL     1       6.762   5.331  15.942  0.00  0.00    +0.000 HD
ENDROOT
TORSDOF 0
ENDMDL
MODEL 9
REMARK VINA RESULT:      -6.6      5.301      7.736
REMARK  Name = 
REMARK  1 active torsions:
REMARK  status: ('A' for Active; 'I' for Inactive)
REMARK    1  A    between atoms: C_1  and  N_2
REMARK                            x       y       z     vdW  Elec       q    Type
REMARK                         _______ _______ _______ _____ _____    ______ ____
ROOT
ATOM      1  C   UNL     1      -0.070   9.318  22.650  0.00  0.00    +0.000 C 
ATOM      2  N   UNL     1       0.139   9.577  21.242  0.00  0.00    +0.000 N 
ATOM      3  C   UNL     1      -0.384  10.596  20.524  0.00  0.00    +0.000 C 
ATOM      4  O   UNL     1      -1.147  11.418  21.005  0.00  0.00    +0.000 OA
ATOM      5  C   UNL     1       0.118  10.603  19.080  0.00  0.00    +0.000 C 
ATOM      6  C   UNL     1       0.935  11.874  18.766  0.00  0.00    +0.000 C 
ATOM      7  C   UNL     1       0.013  13.105  18.661  0.00  0.00    +0.000 C 
ATOM      8  N   UNL     1      -1.021  12.902  17.634  0.00  0.00    +0.000 NA
ATOM      9  C   UNL     1      -1.857  11.727  17.933  0.00  0.00    +0.000 C 
ATOM     10  C   UNL     1      -1.005  10.449  18.029  0.00  0.00    +0.000 C 
ATOM     11  C   UNL     1       0.990   9.367  19.128  0.00  0.00    +0.000 A 
ATOM     12  C   UNL     1       1.755   8.776  18.116  0.00  0.00    +0.000 A 
ATOM     13  C   UNL     1       2.478   7.606  18.414  0.00  0.00    +0.000 A 
ATOM     14  F   UNL     1       3.221   7.007  17.453  0.00  0.00    +0.000 F 
ATOM     15  C   UNL     1       2.430   7.050  19.708  0.00  0.00    +0.000 A 
ATOM     16  C   UNL     1       1.665   7.660  20.713  0.00  0.00    +0.000 A 
ATOM     17  C   UNL     1       0.955   8.818  20.392  0.00  0.00    +0.000 A 
ATOM     18  H   UNL     1      -0.564  12.779  16.700  0.00  0.00    +0.000 HD
ENDROOT
TORSDOF 0
ENDMDL
