MODEL 1
REMARK VINA RESULT:      -8.3      0.000      0.000
REMARK  Name = 
REMARK  7 active torsions:
REMARK  status: ('A' for Active; 'I' for Inactive)
REMARK    1  A    between atoms: C_1  and  C_2
REMARK    2  A    between atoms: C_11  and  C_12
REMARK    3  A    between atoms: C_12  and  C_13
REMARK    4  A    between atoms: C_13  and  C_14
REMARK    5  A    between atoms: N_16  and  C_17
REMARK    6  A    between atoms: C_17  and  C_18
REMARK    7  A    between atoms: C_25  and  C_26
REMARK                            x       y       z     vdW  Elec       q    Type
REMARK                         _______ _______ _______ _____ _____    ______ ____
ROOT
ATOM      1  C   UNL     1       1.781   2.714  21.868  0.00  0.00    +0.000 C 
ATOM      2  C   UNL     1       2.338   3.276  20.615  0.00  0.00    +0.000 A 
ATOM      3  C   UNL     1       2.958   2.570  19.603  0.00  0.00    +0.000 A 
ATOM      4  O   UNL     1       3.350   3.393  18.600  0.00  0.00    +0.000 OA
ATOM      5  C   UNL     1       2.962   4.650  18.943  0.00  0.00    +0.000 A 
ATOM      6  C   UNL     1       3.145   5.786  18.167  0.00  0.00    +0.000 A 
ATOM      7  C   UNL     1       2.593   6.966  18.681  0.00  0.00    +0.000 A 
ATOM      8  O   UNL     1       2.693   8.090  17.844  0.00  0.00    +0.000 OA
ATOM      9  C   UNL     1       2.026   9.271  18.121  0.00  0.00    +0.000 A 
ATOM     10  O   UNL     1       2.011  10.181  17.298  0.00  0.00    +0.000 OA
ATOM     11  C   UNL     1       1.365   9.393  19.458  0.00  0.00    +0.000 A 
ATOM     12  C   UNL     1       1.369   8.352  20.325  0.00  0.00    +0.000 A 
ATOM     13  C   UNL     1       0.803   8.428  21.720  0.00  0.00    +0.000 C 
ATOM     14  C   UNL     1       1.942   7.049  19.911  0.00  0.00    +0.000 A 
ATOM     15  C   UNL     1       1.836   5.868  20.683  0.00  0.00    +0.000 A 
ATOM     16  C   UNL     1       2.328   4.642  20.179  0.00  0.00    +0.000 A 
ENDROOT
BRANCH  11  17
ATOM     17  C   UNL     1       0.773  10.771  19.748  0.00  0.00    +0.000 C 
BRANCH  17  18
ATOM     18  C   UNL     1      -0.623  11.022  19.152  0.00  0.00    +0.000 C 
BRANCH  18  19
ATOM     19  C   UNL     1      -1.504  11.854  20.073  0.00  0.00    +0.000 C 
ATOM     20  O   UNL     1      -1.250  12.049  21.255  0.00  0.00    +0.000 OA
ATOM     21  N   UNL     1      -2.622  12.361  19.444  0.00  0.00    +0.000 N 
ATOM     22  H   UNL     1      -2.824  12.085  18.491  0.00  0.00    +0.000 HD
BRANCH  21  23
ATOM     23  C   UNL     1      -3.639  13.114  20.148  0.00  0.00    +0.000 C 
BRANCH  23  24
ATOM     24  C   UNL     1      -4.984  12.425  20.147  0.00  0.00    +0.000 A 
ATOM     25  C   UNL     1      -5.370  11.733  18.979  0.00  0.00    +0.000 A 
ATOM     26  C   UNL     1      -6.626  11.123  18.889  0.00  0.00    +0.000 A 
ATOM     27  C   UNL     1      -7.509  11.175  19.962  0.00  0.00    +0.000 A 
ATOM     28  C   UNL     1      -7.128  11.832  21.135  0.00  0.00    +0.000 A 
ATOM     29  C   UNL     1      -5.870  12.447  21.228  0.00  0.00    +0.000 A 
ATOM     30 CL   UNL     1      -5.479  13.231  22.717  0.00  0.00    +0.000 Cl
ENDBRANCH  23  24
ENDBRANCH  21  23
ENDBRANCH  18  19
ENDBRANCH  17  18
ENDBRANCH  11  17
TORSDOF 5
ENDMDL
MODEL 2
REMARK VINA RESULT:      -8.1      4.067      6.729
REMARK  Name = 
REMARK  7 active torsions:
REMARK  status: ('A' for Active; 'I' for Inactive)
REMARK    1  A    between atoms: C_1  and  C_2
REMARK    2  A    between atoms: C_11  and  C_12
REMARK    3  A    between atoms: C_12  and  C_13
REMARK    4  A    between atoms: C_13  and  C_14
REMARK    5  A    between atoms: N_16  and  C_17
REMARK    6  A    between atoms: C_17  and  C_18
REMARK    7  A    between atoms: C_25  and  C_26
REMARK                            x       y       z     vdW  Elec       q    Type
REMARK                         _______ _______ _______ _____ _____    ______ ____
ROOT
ATOM      1  C   UNL     1       4.663   3.072  11.520  0.00  0.00    +0.000 C 
ATOM      2  C   UNL     1       5.702   3.680  12.385  0.00  0.00    +0.000 A 
ATOM      3  C   UNL     1       6.908   4.210  11.971  0.00  0.00    +0.000 A 
ATOM      4  O   UNL     1       7.622   4.684  13.020  0.00  0.00    +0.000 OA
ATOM      5  C   UNL     1       6.868   4.488  14.134  0.00  0.00    +0.000 A 
ATOM      6  C   UNL     1       7.224   4.865  15.422  0.00  0.00    +0.000 A 
ATOM      7  C   UNL     1       6.258   4.638  16.410  0.00  0.00    +0.000 A 
ATOM      8  O   UNL     1       6.584   5.114  17.690  0.00  0.00    +0.000 OA
ATOM      9  C   UNL     1       5.658   5.143  18.719  0.00  0.00    +0.000 A 
ATOM     10  O   UNL     1       5.926   5.702  19.777  0.00  0.00    +0.000 OA
ATOM     11  C   UNL     1       4.353   4.447  18.492  0.00  0.00    +0.000 A 
ATOM     12  C   UNL     1       4.077   3.875  17.296  0.00  0.00    +0.000 A 
ATOM     13  C   UNL     1       2.825   3.082  17.021  0.00  0.00    +0.000 C 
ATOM     14  C   UNL     1       5.029   4.025  16.168  0.00  0.00    +0.000 A 
ATOM     15  C   UNL     1       4.745   3.611  14.846  0.00  0.00    +0.000 A 
ATOM     16  C   UNL     1       5.667   3.871  13.805  0.00  0.00    +0.000 A 
ENDROOT
BRANCH  11  17
ATOM     17  C   UNL     1       3.441   4.398  19.716  0.00  0.00    +0.000 C 
BRANCH  17  18
ATOM     18  C   UNL     1       2.125   5.185  19.584  0.00  0.00    +0.000 C 
BRANCH  18  19
ATOM     19  C   UNL     1       2.333   6.686  19.728  0.00  0.00    +0.000 C 
ATOM     20  O   UNL     1       2.996   7.354  18.945  0.00  0.00    +0.000 OA
ATOM     21  N   UNL     1       1.704   7.218  20.835  0.00  0.00    +0.000 N 
ATOM     22  H   UNL     1       1.252   6.598  21.495  0.00  0.00    +0.000 HD
BRANCH  21  23
ATOM     23  C   UNL     1       1.833   8.610  21.212  0.00  0.00    +0.000 C 
BRANCH  23  24
ATOM     24  C   UNL     1       0.724   9.472  20.656  0.00  0.00    +0.000 A 
ATOM     25  C   UNL     1       0.715   9.722  19.266  0.00  0.00    +0.000 A 
ATOM     26  C   UNL     1      -0.249  10.560  18.695  0.00  0.00    +0.000 A 
ATOM     27  C   UNL     1      -1.228  11.147  19.490  0.00  0.00    +0.000 A 
ATOM     28  C   UNL     1      -1.247  10.885  20.862  0.00  0.00    +0.000 A 
ATOM     29  C   UNL     1      -0.282  10.048  21.439  0.00  0.00    +0.000 A 
ATOM     30 CL   UNL     1      -0.385   9.774  23.142  0.00  0.00    +0.000 Cl
ENDBRANCH  23  24
ENDBRANCH  21  23
ENDBRANCH  18  19
ENDBRANCH  17  18
ENDBRANCH  11  17
TORSDOF 5
ENDMDL
MODEL 3
REMARK VINA RESULT:      -8.1      1.594      2.080
REMARK  Name = 
REMARK  7 active torsions:
REMARK  status: ('A' for Active; 'I' for Inactive)
REMARK    1  A    between atoms: C_1  and  C_2
REMARK    2  A    between atoms: C_11  and  C_12
REMARK    3  A    between atoms: C_12  and  C_13
REMARK    4  A    between atoms: C_13  and  C_14
REMARK    5  A    between atoms: N_16  and  C_17
REMARK    6  A    between atoms: C_17  and  C_18
REMARK    7  A    between atoms: C_25  and  C_26
REMARK                            x       y       z     vdW  Elec       q    Type
REMARK                         _______ _______ _______ _____ _____    ______ ____
ROOT
ATOM      1  C   UNL     1       1.769   2.486  21.636  0.00  0.00    +0.000 C 
ATOM      2  C   UNL     1       2.334   3.093  20.407  0.00  0.00    +0.000 A 
ATOM      3  C   UNL     1       2.961   2.424  19.375  0.00  0.00    +0.000 A 
ATOM      4  O   UNL     1       3.359   3.282  18.405  0.00  0.00    +0.000 OA
ATOM      5  C   UNL     1       2.966   4.526  18.789  0.00  0.00    +0.000 A 
ATOM      6  C   UNL     1       3.153   5.689  18.055  0.00  0.00    +0.000 A 
ATOM      7  C   UNL     1       2.596   6.850  18.607  0.00  0.00    +0.000 A 
ATOM      8  O   UNL     1       2.700   8.003  17.812  0.00  0.00    +0.000 OA
ATOM      9  C   UNL     1       2.030   9.172  18.126  0.00  0.00    +0.000 A 
ATOM     10  O   UNL     1       2.019  10.111  17.335  0.00  0.00    +0.000 OA
ATOM     11  C   UNL     1       1.361   9.246  19.462  0.00  0.00    +0.000 A 
ATOM     12  C   UNL     1       1.360   8.175  20.292  0.00  0.00    +0.000 A 
ATOM     13  C   UNL     1       0.786   8.201  21.685  0.00  0.00    +0.000 C 
ATOM     14  C   UNL     1       1.937   6.888  19.835  0.00  0.00    +0.000 A 
ATOM     15  C   UNL     1       1.828   5.681  20.564  0.00  0.00    +0.000 A 
ATOM     16  C   UNL     1       2.325   4.473  20.020  0.00  0.00    +0.000 A 
ENDROOT
BRANCH  11  17
ATOM     17  C   UNL     1       0.765  10.612  19.797  0.00  0.00    +0.000 C 
BRANCH  17  18
ATOM     18  C   UNL     1      -0.719  10.787  19.429  0.00  0.00    +0.000 C 
BRANCH  18  19
ATOM     19  C   UNL     1      -1.247  12.167  19.796  0.00  0.00    +0.000 C 
ATOM     20  O   UNL     1      -1.033  13.171  19.128  0.00  0.00    +0.000 OA
ATOM     21  N   UNL     1      -1.985  12.174  20.961  0.00  0.00    +0.000 N 
ATOM     22  H   UNL     1      -2.045  11.330  21.517  0.00  0.00    +0.000 HD
BRANCH  21  23
ATOM     23  C   UNL     1      -2.516  13.390  21.541  0.00  0.00    +0.000 C 
BRANCH  23  24
ATOM     24  C   UNL     1      -3.684  13.136  22.467  0.00  0.00    +0.000 A 
ATOM     25  C   UNL     1      -3.402  12.762  23.798  0.00  0.00    +0.000 A 
ATOM     26  C   UNL     1      -4.435  12.454  24.690  0.00  0.00    +0.000 A 
ATOM     27  C   UNL     1      -5.762  12.531  24.280  0.00  0.00    +0.000 A 
ATOM     28  C   UNL     1      -6.055  12.928  22.973  0.00  0.00    +0.000 A 
ATOM     29  C   UNL     1      -5.023  13.235  22.075  0.00  0.00    +0.000 A 
ATOM     30 CL   UNL     1      -5.477  13.724  20.481  0.00  0.00    +0.000 Cl
ENDBRANCH  23  24
ENDBRANCH  21  23
ENDBRANCH  18  19
ENDBRANCH  17  18
ENDBRANCH  11  17
TORSDOF 5
ENDMDL
MODEL 4
REMARK VINA RESULT:      -8.0      5.401     10.638
REMARK  Name = 
REMARK  7 active torsions:
REMARK  status: ('A' for Active; 'I' for Inactive)
REMARK    1  A    between atoms: C_1  and  C_2
REMARK    2  A    between atoms: C_11  and  C_12
REMARK    3  A    between atoms: C_12  and  C_13
REMARK    4  A    between atoms: C_13  and  C_14
REMARK    5  A    between atoms: N_16  and  C_17
REMARK    6  A    between atoms: C_17  and  C_18
REMARK    7  A    between atoms: C_25  and  C_26
REMARK                            x       y       z     vdW  Elec       q    Type
REMARK                         _______ _______ _______ _____ _____    ______ ____
ROOT
ATOM      1  C   UNL     1       0.344  12.268  18.306  0.00  0.00    +0.000 C 
ATOM      2  C   UNL     1       0.176  11.316  19.429  0.00  0.00    +0.000 A 
ATOM      3  C   UNL     1      -0.638  11.482  20.531  0.00  0.00    +0.000 A 
ATOM      4  O   UNL     1      -0.554  10.420  21.368  0.00  0.00    +0.000 OA
ATOM      5  C   UNL     1       0.305   9.533  20.799  0.00  0.00    +0.000 A 
ATOM      6  C   UNL     1       0.642   8.292  21.323  0.00  0.00    +0.000 A 
ATOM      7  C   UNL     1       1.485   7.507  20.526  0.00  0.00    +0.000 A 
ATOM      8  O   UNL     1       1.740   6.215  21.014  0.00  0.00    +0.000 OA
ATOM      9  C   UNL     1       2.386   5.258  20.251  0.00  0.00    +0.000 A 
ATOM     10  O   UNL     1       2.460   4.098  20.644  0.00  0.00    +0.000 OA
ATOM     11  C   UNL     1       3.005   5.705  18.964  0.00  0.00    +0.000 A 
ATOM     12  C   UNL     1       2.869   6.985  18.543  0.00  0.00    +0.000 A 
ATOM     13  C   UNL     1       3.536   7.531  17.306  0.00  0.00    +0.000 C 
ATOM     14  C   UNL     1       2.017   7.927  19.308  0.00  0.00    +0.000 A 
ATOM     15  C   UNL     1       1.682   9.224  18.852  0.00  0.00    +0.000 A 
ATOM     16  C   UNL     1       0.789  10.031  19.596  0.00  0.00    +0.000 A 
ENDROOT
BRANCH  11  17
ATOM     17  C   UNL     1       3.821   4.631  18.247  0.00  0.00    +0.000 C 
BRANCH  17  18
ATOM     18  C   UNL     1       5.192   4.323  18.872  0.00  0.00    +0.000 C 
BRANCH  18  19
ATOM     19  C   UNL     1       6.344   4.836  18.020  0.00  0.00    +0.000 C 
ATOM     20  O   UNL     1       7.314   5.426  18.480  0.00  0.00    +0.000 OA
ATOM     21  N   UNL     1       6.184   4.575  16.675  0.00  0.00    +0.000 N 
ATOM     22  H   UNL     1       5.316   4.170  16.348  0.00  0.00    +0.000 HD
BRANCH  21  23
ATOM     23  C   UNL     1       7.118   5.043  15.672  0.00  0.00    +0.000 C 
BRANCH  23  24
ATOM     24  C   UNL     1       6.748   4.602  14.275  0.00  0.00    +0.000 A 
ATOM     25  C   UNL     1       5.579   3.826  14.116  0.00  0.00    +0.000 A 
ATOM     26  C   UNL     1       5.211   3.335  12.859  0.00  0.00    +0.000 A 
ATOM     27  C   UNL     1       5.985   3.621  11.740  0.00  0.00    +0.000 A 
ATOM     28  C   UNL     1       7.128   4.412  11.879  0.00  0.00    +0.000 A 
ATOM     29  C   UNL     1       7.503   4.904  13.138  0.00  0.00    +0.000 A 
ATOM     30 CL   UNL     1       8.927   5.878  13.217  0.00  0.00    +0.000 Cl
ENDBRANCH  23  24
ENDBRANCH  21  23
ENDBRANCH  18  19
ENDBRANCH  17  18
ENDBRANCH  11  17
TORSDOF 5
ENDMDL
MODEL 5
REMARK VINA RESULT:      -8.0      3.040      4.759
REMARK  Name = 
REMARK  7 active torsions:
REMARK  status: ('A' for Active; 'I' for Inactive)
REMARK    1  A    between atoms: C_1  and  C_2
REMARK    2  A    between atoms: C_11  and  C_12
REMARK    3  A    between atoms: C_12  and  C_13
REMARK    4  A    between atoms: C_13  and  C_14
REMARK    5  A    between atoms: N_16  and  C_17
REMARK    6  A    between atoms: C_17  and  C_18
REMARK    7  A    between atoms: C_25  and  C_26
REMARK                            x       y       z     vdW  Elec       q    Type
REMARK                         _______ _______ _______ _____ _____    ______ ____
ROOT
ATOM      1  C   UNL     1       1.568   2.523  21.768  0.00  0.00    +0.000 C 
ATOM      2  C   UNL     1       2.108   3.086  20.508  0.00  0.00    +0.000 A 
ATOM      3  C   UNL     1       2.662   2.375  19.463  0.00  0.00    +0.000 A 
ATOM      4  O   UNL     1       3.058   3.200  18.464  0.00  0.00    +0.000 OA
ATOM      5  C   UNL     1       2.739   4.466  18.844  0.00  0.00    +0.000 A 
ATOM      6  C   UNL     1       2.948   5.609  18.086  0.00  0.00    +0.000 A 
ATOM      7  C   UNL     1       2.467   6.802  18.641  0.00  0.00    +0.000 A 
ATOM      8  O   UNL     1       2.591   7.938  17.824  0.00  0.00    +0.000 OA
ATOM      9  C   UNL     1       1.988   9.141  18.147  0.00  0.00    +0.000 A 
ATOM     10  O   UNL     1       1.988  10.068  17.343  0.00  0.00    +0.000 OA
ATOM     11  C   UNL     1       1.378   9.264  19.508  0.00  0.00    +0.000 A 
ATOM     12  C   UNL     1       1.363   8.206  20.353  0.00  0.00    +0.000 A 
ATOM     13  C   UNL     1       0.848   8.277  21.768  0.00  0.00    +0.000 C 
ATOM     14  C   UNL     1       1.862   6.887  19.894  0.00  0.00    +0.000 A 
ATOM     15  C   UNL     1       1.727   5.696  20.646  0.00  0.00    +0.000 A 
ATOM     16  C   UNL     1       2.147   4.460  20.101  0.00  0.00    +0.000 A 
ENDROOT
BRANCH  11  17
ATOM     17  C   UNL     1       0.859  10.660  19.845  0.00  0.00    +0.000 C 
BRANCH  17  18
ATOM     18  C   UNL     1      -0.672  10.812  19.826  0.00  0.00    +0.000 C 
BRANCH  18  19
ATOM     19  C   UNL     1      -1.108  12.270  19.797  0.00  0.00    +0.000 C 
ATOM     20  O   UNL     1      -2.243  12.640  20.073  0.00  0.00    +0.000 OA
ATOM     21  N   UNL     1      -0.099  13.132  19.422  0.00  0.00    +0.000 N 
ATOM     22  H   UNL     1       0.788  12.755  19.114  0.00  0.00    +0.000 HD
BRANCH  21  23
ATOM     23  C   UNL     1      -0.312  14.555  19.250  0.00  0.00    +0.000 C 
BRANCH  23  24
ATOM     24  C   UNL     1       0.914  15.272  18.735  0.00  0.00    +0.000 A 
ATOM     25  C   UNL     1       2.089  14.515  18.542  0.00  0.00    +0.000 A 
ATOM     26  C   UNL     1       3.276  15.127  18.125  0.00  0.00    +0.000 A 
ATOM     27  C   UNL     1       3.309  16.495  17.874  0.00  0.00    +0.000 A 
ATOM     28  C   UNL     1       2.145  17.251  18.033  0.00  0.00    +0.000 A 
ATOM     29  C   UNL     1       0.954  16.641  18.454  0.00  0.00    +0.000 A 
ATOM     30 CL   UNL     1      -0.439  17.650  18.618  0.00  0.00    +0.000 Cl
ENDBRANCH  23  24
ENDBRANCH  21  23
ENDBRANCH  18  19
ENDBRANCH  17  18
ENDBRANCH  11  17
TORSDOF 5
ENDMDL
MODEL 6
REMARK VINA RESULT:      -7.8      4.143      6.839
REMARK  Name = 
REMARK  7 active torsions:
REMARK  status: ('A' for Active; 'I' for Inactive)
REMARK    1  A    between atoms: C_1  and  C_2
REMARK    2  A    between atoms: C_11  and  C_12
REMARK    3  A    between atoms: C_12  and  C_13
REMARK    4  A    between atoms: C_13  and  C_14
REMARK    5  A    between atoms: N_16  and  C_17
REMARK    6  A    between atoms: C_17  and  C_18
REMARK    7  A    between atoms: C_25  and  C_26
REMARK                            x       y       z     vdW  Elec       q    Type
REMARK                         _______ _______ _______ _____ _____    ______ ____
ROOT
ATOM      1  C   UNL     1       4.464   3.200  11.435  0.00  0.00    +0.000 C 
ATOM      2  C   UNL     1       5.557   3.703  12.301  0.00  0.00    +0.000 A 
ATOM      3  C   UNL     1       6.795   4.150  11.883  0.00  0.00    +0.000 A 
ATOM      4  O   UNL     1       7.556   4.537  12.935  0.00  0.00    +0.000 OA
ATOM      5  C   UNL     1       6.803   4.368  14.054  0.00  0.00    +0.000 A 
ATOM      6  C   UNL     1       7.203   4.681  15.347  0.00  0.00    +0.000 A 
ATOM      7  C   UNL     1       6.234   4.501  16.341  0.00  0.00    +0.000 A 
ATOM      8  O   UNL     1       6.611   4.914  17.630  0.00  0.00    +0.000 OA
ATOM      9  C   UNL     1       5.703   4.985  18.672  0.00  0.00    +0.000 A 
ATOM     10  O   UNL     1       6.027   5.492  19.741  0.00  0.00    +0.000 OA
ATOM     11  C   UNL     1       4.346   4.398  18.445  0.00  0.00    +0.000 A 
ATOM     12  C   UNL     1       4.012   3.883  17.237  0.00  0.00    +0.000 A 
ATOM     13  C   UNL     1       2.699   3.196  16.959  0.00  0.00    +0.000 C 
ATOM     14  C   UNL     1       4.958   3.992  16.101  0.00  0.00    +0.000 A 
ATOM     15  C   UNL     1       4.627   3.637  14.772  0.00  0.00    +0.000 A 
ATOM     16  C   UNL     1       5.555   3.856  13.726  0.00  0.00    +0.000 A 
ENDROOT
BRANCH  11  17
ATOM     17  C   UNL     1       3.447   4.385  19.680  0.00  0.00    +0.000 C 
BRANCH  17  18
ATOM     18  C   UNL     1       3.306   5.737  20.401  0.00  0.00    +0.000 C 
BRANCH  18  19
ATOM     19  C   UNL     1       2.452   6.723  19.618  0.00  0.00    +0.000 C 
ATOM     20  O   UNL     1       2.244   6.629  18.414  0.00  0.00    +0.000 OA
ATOM     21  N   UNL     1       1.941   7.739  20.399  0.00  0.00    +0.000 N 
ATOM     22  H   UNL     1       2.227   7.814  21.367  0.00  0.00    +0.000 HD
BRANCH  21  23
ATOM     23  C   UNL     1       1.166   8.832  19.848  0.00  0.00    +0.000 C 
BRANCH  23  24
ATOM     24  C   UNL     1       0.408   9.602  20.904  0.00  0.00    +0.000 A 
ATOM     25  C   UNL     1       0.425   9.105  22.224  0.00  0.00    +0.000 A 
ATOM     26  C   UNL     1      -0.305   9.735  23.238  0.00  0.00    +0.000 A 
ATOM     27  C   UNL     1      -1.047  10.878  22.960  0.00  0.00    +0.000 A 
ATOM     28  C   UNL     1      -1.050  11.398  21.663  0.00  0.00    +0.000 A 
ATOM     29  C   UNL     1      -0.321  10.767  20.644  0.00  0.00    +0.000 A 
ATOM     30 CL   UNL     1      -0.376  11.482  19.072  0.00  0.00    +0.000 Cl
ENDBRANCH  23  24
ENDBRANCH  21  23
ENDBRANCH  18  19
ENDBRANCH  17  18
ENDBRANCH  11  17
TORSDOF 5
ENDMDL
MODEL 7
REMARK VINA RESULT:      -7.8      1.125      1.593
REMARK  Name = 
REMARK  7 active torsions:
REMARK  status: ('A' for Active; 'I' for Inactive)
REMARK    1  A    between atoms: C_1  and  C_2
REMARK    2  A    between atoms: C_11  and  C_12
REMARK    3  A    between atoms: C_12  and  C_13
REMARK    4  A    between atoms: C_13  and  C_14
REMARK    5  A    between atoms: N_16  and  C_17
REMARK    6  A    between atoms: C_17  and  C_18
REMARK    7  A    between atoms: C_25  and  C_26
REMARK                            x       y       z     vdW  Elec       q    Type
REMARK                         _______ _______ _______ _____ _____    ______ ____
ROOT
ATOM      1  C   UNL     1       2.206   2.537  21.576  0.00  0.00    +0.000 C 
ATOM      2  C   UNL     1       2.694   3.178  20.331  0.00  0.00    +0.000 A 
ATOM      3  C   UNL     1       3.316   2.546  19.273  0.00  0.00    +0.000 A 
ATOM      4  O   UNL     1       3.634   3.428  18.294  0.00  0.00    +0.000 OA
ATOM      5  C   UNL     1       3.193   4.648  18.701  0.00  0.00    +0.000 A 
ATOM      6  C   UNL     1       3.293   5.823  17.968  0.00  0.00    +0.000 A 
ATOM      7  C   UNL     1       2.698   6.950  18.547  0.00  0.00    +0.000 A 
ATOM      8  O   UNL     1       2.714   8.111  17.755  0.00  0.00    +0.000 OA
ATOM      9  C   UNL     1       1.997   9.243  18.101  0.00  0.00    +0.000 A 
ATOM     10  O   UNL     1       1.909  10.183  17.318  0.00  0.00    +0.000 OA
ATOM     11  C   UNL     1       1.374   9.277  19.461  0.00  0.00    +0.000 A 
ATOM     12  C   UNL     1       1.459   8.204  20.283  0.00  0.00    +0.000 A 
ATOM     13  C   UNL     1       0.935   8.194  21.697  0.00  0.00    +0.000 C 
ATOM     14  C   UNL     1       2.084   6.950  19.798  0.00  0.00    +0.000 A 
ATOM     15  C   UNL     1       2.063   5.735  20.523  0.00  0.00    +0.000 A 
ATOM     16  C   UNL     1       2.601   4.557  19.954  0.00  0.00    +0.000 A 
ENDROOT
BRANCH  11  17
ATOM     17  C   UNL     1       0.722  10.609  19.826  0.00  0.00    +0.000 C 
BRANCH  17  18
ATOM     18  C   UNL     1      -0.764  10.736  19.446  0.00  0.00    +0.000 C 
BRANCH  18  19
ATOM     19  C   UNL     1      -1.314  12.129  19.722  0.00  0.00    +0.000 C 
ATOM     20  O   UNL     1      -0.665  13.155  19.559  0.00  0.00    +0.000 OA
ATOM     21  N   UNL     1      -2.614  12.118  20.180  0.00  0.00    +0.000 N 
ATOM     22  H   UNL     1      -3.062  11.234  20.385  0.00  0.00    +0.000 HD
BRANCH  21  23
ATOM     23  C   UNL     1      -3.310  13.324  20.582  0.00  0.00    +0.000 C 
BRANCH  23  24
ATOM     24  C   UNL     1      -4.648  13.041  21.223  0.00  0.00    +0.000 A 
ATOM     25  C   UNL     1      -4.777  13.269  22.610  0.00  0.00    +0.000 A 
ATOM     26  C   UNL     1      -5.970  12.972  23.278  0.00  0.00    +0.000 A 
ATOM     27  C   UNL     1      -7.058  12.462  22.577  0.00  0.00    +0.000 A 
ATOM     28  C   UNL     1      -6.953  12.258  21.198  0.00  0.00    +0.000 A 
ATOM     29  C   UNL     1      -5.758  12.553  20.526  0.00  0.00    +0.000 A 
ATOM     30 CL   UNL     1      -5.718  12.277  18.821  0.00  0.00    +0.000 Cl
ENDBRANCH  23  24
ENDBRANCH  21  23
ENDBRANCH  18  19
ENDBRANCH  17  18
ENDBRANCH  11  17
TORSDOF 5
ENDMDL
MODEL 8
REMARK VINA RESULT:      -7.8      1.871      2.347
REMARK  Name = 
REMARK  7 active torsions:
REMARK  status: ('A' for Active; 'I' for Inactive)
REMARK    1  A    between atoms: C_1  and  C_2
REMARK    2  A    between atoms: C_11  and  C_12
REMARK    3  A    between atoms: C_12  and  C_13
REMARK    4  A    between atoms: C_13  and  C_14
REMARK    5  A    between atoms: N_16  and  C_17
REMARK    6  A    between atoms: C_17  and  C_18
REMARK    7  A    between atoms: C_25  and  C_26
REMARK                            x       y       z     vdW  Elec       q    Type
REMARK                         _______ _______ _______ _____ _____    ______ ____
ROOT
ATOM      1  C   UNL     1       1.784   2.643  21.823  0.00  0.00    +0.000 C 
ATOM      2  C   UNL     1       2.419   3.222  20.615  0.00  0.00    +0.000 A 
ATOM      3  C   UNL     1       3.135   2.534  19.656  0.00  0.00    +0.000 A 
ATOM      4  O   UNL     1       3.580   3.368  18.685  0.00  0.00    +0.000 OA
ATOM      5  C   UNL     1       3.130   4.613  18.994  0.00  0.00    +0.000 A 
ATOM      6  C   UNL     1       3.339   5.755  18.232  0.00  0.00    +0.000 A 
ATOM      7  C   UNL     1       2.715   6.918  18.700  0.00  0.00    +0.000 A 
ATOM      8  O   UNL     1       2.847   8.045  17.872  0.00  0.00    +0.000 OA
ATOM      9  C   UNL     1       2.126   9.206  18.094  0.00  0.00    +0.000 A 
ATOM     10  O   UNL     1       2.148  10.115  17.271  0.00  0.00    +0.000 OA
ATOM     11  C   UNL     1       1.362   9.308  19.376  0.00  0.00    +0.000 A 
ATOM     12  C   UNL     1       1.329   8.268  20.243  0.00  0.00    +0.000 A 
ATOM     13  C   UNL     1       0.656   8.326  21.590  0.00  0.00    +0.000 C 
ATOM     14  C   UNL     1       1.969   6.981  19.876  0.00  0.00    +0.000 A 
ATOM     15  C   UNL     1       1.838   5.798  20.640  0.00  0.00    +0.000 A 
ATOM     16  C   UNL     1       2.404   4.586  20.178  0.00  0.00    +0.000 A 
ENDROOT
BRANCH  11  17
ATOM     17  C   UNL     1       0.709  10.668  19.617  0.00  0.00    +0.000 C 
BRANCH  17  18
ATOM     18  C   UNL     1      -0.701  10.832  19.024  0.00  0.00    +0.000 C 
BRANCH  18  19
ATOM     19  C   UNL     1      -1.278  12.217  19.278  0.00  0.00    +0.000 C 
ATOM     20  O   UNL     1      -0.712  13.254  18.954  0.00  0.00    +0.000 OA
ATOM     21  N   UNL     1      -2.501  12.188  19.916  0.00  0.00    +0.000 N 
ATOM     22  H   UNL     1      -2.870  11.304  20.243  0.00  0.00    +0.000 HD
BRANCH  21  23
ATOM     23  C   UNL     1      -3.195  13.391  20.328  0.00  0.00    +0.000 C 
BRANCH  23  24
ATOM     24  C   UNL     1      -3.382  13.476  21.825  0.00  0.00    +0.000 A 
ATOM     25  C   UNL     1      -3.169  12.305  22.584  0.00  0.00    +0.000 A 
ATOM     26  C   UNL     1      -3.384  12.298  23.967  0.00  0.00    +0.000 A 
ATOM     27  C   UNL     1      -3.793  13.457  24.619  0.00  0.00    +0.000 A 
ATOM     28  C   UNL     1      -3.979  14.630  23.883  0.00  0.00    +0.000 A 
ATOM     29  C   UNL     1      -3.767  14.640  22.496  0.00  0.00    +0.000 A 
ATOM     30 CL   UNL     1      -4.015  16.136  21.668  0.00  0.00    +0.000 Cl
ENDBRANCH  23  24
ENDBRANCH  21  23
ENDBRANCH  18  19
ENDBRANCH  17  18
ENDBRANCH  11  17
TORSDOF 5
ENDMDL
MODEL 9
REMARK VINA RESULT:      -7.8      2.245      3.093
REMARK  Name = 
REMARK  7 active torsions:
REMARK  status: ('A' for Active; 'I' for Inactive)
REMARK    1  A    between atoms: C_1  and  C_2
REMARK    2  A    between atoms: C_11  and  C_12
REMARK    3  A    between atoms: C_12  and  C_13
REMARK    4  A    between atoms: C_13  and  C_14
REMARK    5  A    between atoms: N_16  and  C_17
REMARK    6  A    between atoms: C_17  and  C_18
REMARK    7  A    between atoms: C_25  and  C_26
REMARK                            x       y       z     vdW  Elec       q    Type
REMARK                         _______ _______ _______ _____ _____    ______ ____
ROOT
ATOM      1  C   UNL     1       1.856   2.576  21.692  0.00  0.00    +0.000 C 
ATOM      2  C   UNL     1       2.522   3.262  20.560  0.00  0.00    +0.000 A 
ATOM      3  C   UNL     1       3.344   2.679  19.616  0.00  0.00    +0.000 A 
ATOM      4  O   UNL     1       3.788   3.593  18.720  0.00  0.00    +0.000 OA
ATOM      5  C   UNL     1       3.231   4.786  19.061  0.00  0.00    +0.000 A 
ATOM      6  C   UNL     1       3.405   5.979  18.373  0.00  0.00    +0.000 A 
ATOM      7  C   UNL     1       2.671   7.070  18.856  0.00  0.00    +0.000 A 
ATOM      8  O   UNL     1       2.773   8.247  18.096  0.00  0.00    +0.000 OA
ATOM      9  C   UNL     1       1.959   9.342  18.328  0.00  0.00    +0.000 A 
ATOM     10  O   UNL     1       1.967  10.294  17.554  0.00  0.00    +0.000 OA
ATOM     11  C   UNL     1       1.110   9.321  19.560  0.00  0.00    +0.000 A 
ATOM     12  C   UNL     1       1.098   8.235  20.369  0.00  0.00    +0.000 A 
ATOM     13  C   UNL     1       0.339   8.174  21.670  0.00  0.00    +0.000 C 
ATOM     14  C   UNL     1       1.851   7.017  19.982  0.00  0.00    +0.000 A 
ATOM     15  C   UNL     1       1.758   5.788  20.675  0.00  0.00    +0.000 A 
ATOM     16  C   UNL     1       2.436   4.645  20.191  0.00  0.00    +0.000 A 
ENDROOT
BRANCH  11  17
ATOM     17  C   UNL     1       0.348  10.618  19.825  0.00  0.00    +0.000 C 
BRANCH  17  18
ATOM     18  C   UNL     1       0.722  11.341  21.131  0.00  0.00    +0.000 C 
BRANCH  18  19
ATOM     19  C   UNL     1      -0.493  11.626  22.002  0.00  0.00    +0.000 C 
ATOM     20  O   UNL     1      -0.575  11.289  23.177  0.00  0.00    +0.000 OA
ATOM     21  N   UNL     1      -1.496  12.297  21.334  0.00  0.00    +0.000 N 
ATOM     22  H   UNL     1      -1.406  12.462  20.340  0.00  0.00    +0.000 HD
BRANCH  21  23
ATOM     23  C   UNL     1      -2.774  12.600  21.946  0.00  0.00    +0.000 C 
BRANCH  23  24
ATOM     24  C   UNL     1      -2.696  13.749  22.924  0.00  0.00    +0.000 A 
ATOM     25  C   UNL     1      -1.965  14.894  22.542  0.00  0.00    +0.000 A 
ATOM     26  C   UNL     1      -1.803  15.968  23.423  0.00  0.00    +0.000 A 
ATOM     27  C   UNL     1      -2.379  15.930  24.689  0.00  0.00    +0.000 A 
ATOM     28  C   UNL     1      -3.129  14.815  25.069  0.00  0.00    +0.000 A 
ATOM     29  C   UNL     1      -3.292  13.735  24.190  0.00  0.00    +0.000 A 
ATOM     30 CL   UNL     1      -4.241  12.400  24.740  0.00  0.00    +0.000 Cl
ENDBRANCH  23  24
ENDBRANCH  21  23
ENDBRANCH  18  19
ENDBRANCH  17  18
ENDBRANCH  11  17
TORSDOF 5
ENDMDL
