MODEL 1
REMARK VINA RESULT:      -7.9      0.000      0.000
REMARK  Name = 
REMARK  10 active torsions:
REMARK  status: ('A' for Active; 'I' for Inactive)
REMARK    1  A    between atoms: C_1  and  O_2
REMARK    2  A    between atoms: O_2  and  C_3
REMARK    3  A    between atoms: C_3  and  C_4
REMARK    4  A    between atoms: C_4  and  N_5
REMARK    5  A    between atoms: C_6  and  S_7
REMARK    6  A    between atoms: S_7  and  C_8
REMARK    7  A    between atoms: C_8  and  C_9
REMARK    8  A    between atoms: N_11  and  C_12
REMARK    9  A    between atoms: C_12  and  C_13
REMARK   10  A    between atoms: C_24  and  C_25
REMARK                            x       y       z     vdW  Elec       q    Type
REMARK                         _______ _______ _______ _____ _____    ______ ____
ROOT
ATOM      1  N   UNL     1       5.372   6.196  17.770  0.00  0.00    +0.000 N 
ATOM      2  C   UNL     1       6.666   6.566  18.066  0.00  0.00    +0.000 A 
ATOM      3  N   UNL     1       7.196   5.693  18.889  0.00  0.00    +0.000 NA
ATOM      4  N   UNL     1       6.276   4.694  19.091  0.00  0.00    +0.000 NA
ATOM      5  C   UNL     1       5.215   4.941  18.345  0.00  0.00    +0.000 A 
ENDROOT
BRANCH   5   6
ATOM      6  C   UNL     1       4.089   3.959  18.173  0.00  0.00    +0.000 A 
ATOM      7  C   UNL     1       4.057   2.913  17.273  0.00  0.00    +0.000 A 
ATOM      8  N   UNL     1       2.910   2.192  17.489  0.00  0.00    +0.000 N 
ATOM      9  C   UNL     1       2.192   2.739  18.527  0.00  0.00    +0.000 A 
ATOM     10  C   UNL     1       0.997   2.305  19.114  0.00  0.00    +0.000 A 
ATOM     11  C   UNL     1       0.474   3.067  20.160  0.00  0.00    +0.000 A 
ATOM     12  C   UNL     1       1.117   4.225  20.588  0.00  0.00    +0.000 A 
ATOM     13  C   UNL     1       2.322   4.637  20.000  0.00  0.00    +0.000 A 
ATOM     14  C   UNL     1       2.891   3.872  18.958  0.00  0.00    +0.000 A 
ATOM     15  H   UNL     1       2.638   1.360  16.987  0.00  0.00    +0.000 HD
ENDBRANCH   5   6
BRANCH   1  16
ATOM     16  C   UNL     1       4.287   6.955  17.175  0.00  0.00    +0.000 C 
BRANCH  16  17
ATOM     17  C   UNL     1       3.283   7.590  18.124  0.00  0.00    +0.000 C 
BRANCH  17  19
ATOM     18  C   UNL     1       1.939   9.483  17.947  0.00  0.00    +0.000 C 
ATOM     19  O   UNL     1       2.169   8.163  17.445  0.00  0.00    +0.000 OA
ENDBRANCH  17  19
ENDBRANCH  16  17
ENDBRANCH   1  16
BRANCH   2  20
ATOM     20  S   UNL     1       7.587   7.823  17.299  0.00  0.00    +0.000 S 
BRANCH  20  21
ATOM     21  C   UNL     1       8.656   8.427  18.649  0.00  0.00    +0.000 C 
BRANCH  21  22
ATOM     22  C   UNL     1       8.803   9.949  18.632  0.00  0.00    +0.000 C 
ATOM     23  O   UNL     1       8.187  10.640  17.818  0.00  0.00    +0.000 OA
ATOM     24  N   UNL     1       9.736  10.485  19.493  0.00  0.00    +0.000 N 
ATOM     25  H   UNL     1      10.103   9.889  20.223  0.00  0.00    +0.000 HD
BRANCH  24  26
ATOM     26  C   UNL     1       9.896  11.917  19.670  0.00  0.00    +0.000 C 
BRANCH  26  27
ATOM     27  C   UNL     1       9.407  12.372  21.023  0.00  0.00    +0.000 A 
ATOM     28  C   UNL     1       9.576  13.722  21.410  0.00  0.00    +0.000 A 
ATOM     29  C   UNL     1       9.096  14.189  22.638  0.00  0.00    +0.000 A 
ATOM     30  C   UNL     1       8.461  13.290  23.462  0.00  0.00    +0.000 A 
ATOM     31  C   UNL     1       8.307  11.971  23.107  0.00  0.00    +0.000 A 
ATOM     32  C   UNL     1       8.773  11.480  21.902  0.00  0.00    +0.000 A 
ATOM     33  O   UNL     1       7.652  11.254  24.061  0.00  0.00    +0.000 OA
ATOM     34  C   UNL     1       7.378  12.281  25.036  0.00  0.00    +0.000 C 
ATOM     35  O   UNL     1       7.918  13.570  24.678  0.00  0.00    +0.000 OA
ENDBRANCH  26  27
ENDBRANCH  24  26
ENDBRANCH  21  22
ENDBRANCH  20  21
ENDBRANCH   2  20
TORSDOF 9
ENDMDL
MODEL 2
REMARK VINA RESULT:      -7.8      6.075      9.934
REMARK  Name = 
REMARK  10 active torsions:
REMARK  status: ('A' for Active; 'I' for Inactive)
REMARK    1  A    between atoms: C_1  and  O_2
REMARK    2  A    between atoms: O_2  and  C_3
REMARK    3  A    between atoms: C_3  and  C_4
REMARK    4  A    between atoms: C_4  and  N_5
REMARK    5  A    between atoms: C_6  and  S_7
REMARK    6  A    between atoms: S_7  and  C_8
REMARK    7  A    between atoms: C_8  and  C_9
REMARK    8  A    between atoms: N_11  and  C_12
REMARK    9  A    between atoms: C_12  and  C_13
REMARK   10  A    between atoms: C_24  and  C_25
REMARK                            x       y       z     vdW  Elec       q    Type
REMARK                         _______ _______ _______ _____ _____    ______ ____
ROOT
ATOM      1  N   UNL     1       1.714   8.539  19.291  0.00  0.00    +0.000 N 
ATOM      2  C   UNL     1       1.352   9.800  18.870  0.00  0.00    +0.000 A 
ATOM      3  N   UNL     1       1.862  10.032  17.684  0.00  0.00    +0.000 NA
ATOM      4  N   UNL     1       2.512   8.894  17.277  0.00  0.00    +0.000 NA
ATOM      5  C   UNL     1       2.344   7.961  18.196  0.00  0.00    +0.000 A 
ENDROOT
BRANCH   5   6
ATOM      6  C   UNL     1       2.759   6.529  17.994  0.00  0.00    +0.000 A 
ATOM      7  C   UNL     1       1.968   5.419  18.203  0.00  0.00    +0.000 A 
ATOM      8  N   UNL     1       2.672   4.307  17.817  0.00  0.00    +0.000 N 
ATOM      9  C   UNL     1       3.911   4.669  17.343  0.00  0.00    +0.000 A 
ATOM     10  C   UNL     1       4.930   3.873  16.804  0.00  0.00    +0.000 A 
ATOM     11  C   UNL     1       6.107   4.509  16.407  0.00  0.00    +0.000 A 
ATOM     12  C   UNL     1       6.261   5.884  16.559  0.00  0.00    +0.000 A 
ATOM     13  C   UNL     1       5.224   6.668  17.086  0.00  0.00    +0.000 A 
ATOM     14  C   UNL     1       4.010   6.059  17.471  0.00  0.00    +0.000 A 
ATOM     15  H   UNL     1       2.328   3.358  17.842  0.00  0.00    +0.000 HD
ENDBRANCH   5   6
BRANCH   1  16
ATOM     16  C   UNL     1       1.671   7.936  20.610  0.00  0.00    +0.000 C 
BRANCH  16  17
ATOM     17  C   UNL     1       0.501   8.308  21.506  0.00  0.00    +0.000 C 
BRANCH  17  19
ATOM     18  C   UNL     1      -0.252   9.661  23.245  0.00  0.00    +0.000 C 
ATOM     19  O   UNL     1       0.900   9.053  22.654  0.00  0.00    +0.000 OA
ENDBRANCH  17  19
ENDBRANCH  16  17
ENDBRANCH   1  16
BRANCH   2  20
ATOM     20  S   UNL     1       0.194  10.852  19.624  0.00  0.00    +0.000 S 
BRANCH  20  21
ATOM     21  C   UNL     1      -0.543  11.731  18.206  0.00  0.00    +0.000 C 
BRANCH  21  22
ATOM     22  C   UNL     1      -1.861  11.098  17.755  0.00  0.00    +0.000 C 
ATOM     23  O   UNL     1      -1.918   9.911  17.430  0.00  0.00    +0.000 OA
ATOM     24  N   UNL     1      -2.938  11.948  17.626  0.00  0.00    +0.000 N 
ATOM     25  H   UNL     1      -2.864  12.870  18.036  0.00  0.00    +0.000 HD
BRANCH  24  26
ATOM     26  C   UNL     1      -4.274  11.467  17.325  0.00  0.00    +0.000 C 
BRANCH  26  27
ATOM     27  C   UNL     1      -5.197  11.596  18.511  0.00  0.00    +0.000 A 
ATOM     28  C   UNL     1      -6.445  10.929  18.503  0.00  0.00    +0.000 A 
ATOM     29  C   UNL     1      -7.306  10.991  19.604  0.00  0.00    +0.000 A 
ATOM     30  C   UNL     1      -6.905  11.730  20.690  0.00  0.00    +0.000 A 
ATOM     31  C   UNL     1      -5.705  12.400  20.705  0.00  0.00    +0.000 A 
ATOM     32  C   UNL     1      -4.834  12.359  19.633  0.00  0.00    +0.000 A 
ATOM     33  O   UNL     1      -5.500  13.068  21.873  0.00  0.00    +0.000 OA
ATOM     34  C   UNL     1      -6.691  12.709  22.606  0.00  0.00    +0.000 C 
ATOM     35  O   UNL     1      -7.603  11.886  21.848  0.00  0.00    +0.000 OA
ENDBRANCH  26  27
ENDBRANCH  24  26
ENDBRANCH  21  22
ENDBRANCH  20  21
ENDBRANCH   2  20
TORSDOF 9
ENDMDL
MODEL 3
REMARK VINA RESULT:      -7.8      3.097      4.146
REMARK  Name = 
REMARK  10 active torsions:
REMARK  status: ('A' for Active; 'I' for Inactive)
REMARK    1  A    between atoms: C_1  and  O_2
REMARK    2  A    between atoms: O_2  and  C_3
REMARK    3  A    between atoms: C_3  and  C_4
REMARK    4  A    between atoms: C_4  and  N_5
REMARK    5  A    between atoms: C_6  and  S_7
REMARK    6  A    between atoms: S_7  and  C_8
REMARK    7  A    between atoms: C_8  and  C_9
REMARK    8  A    between atoms: N_11  and  C_12
REMARK    9  A    between atoms: C_12  and  C_13
REMARK   10  A    between atoms: C_24  and  C_25
REMARK                            x       y       z     vdW  Elec       q    Type
REMARK                         _______ _______ _______ _____ _____    ______ ____
ROOT
ATOM      1  N   UNL     1       5.941   5.597  17.489  0.00  0.00    +0.000 N 
ATOM      2  C   UNL     1       6.334   6.915  17.562  0.00  0.00    +0.000 A 
ATOM      3  N   UNL     1       5.276   7.691  17.568  0.00  0.00    +0.000 NA
ATOM      4  N   UNL     1       4.165   6.885  17.568  0.00  0.00    +0.000 NA
ATOM      5  C   UNL     1       4.557   5.625  17.619  0.00  0.00    +0.000 A 
ENDROOT
BRANCH   5   6
ATOM      6  C   UNL     1       3.605   4.479  17.823  0.00  0.00    +0.000 A 
ATOM      7  C   UNL     1       3.314   3.495  16.902  0.00  0.00    +0.000 A 
ATOM      8  N   UNL     1       2.481   2.580  17.495  0.00  0.00    +0.000 N 
ATOM      9  C   UNL     1       2.230   2.940  18.799  0.00  0.00    +0.000 A 
ATOM     10  C   UNL     1       1.480   2.280  19.780  0.00  0.00    +0.000 A 
ATOM     11  C   UNL     1       1.379   2.885  21.034  0.00  0.00    +0.000 A 
ATOM     12  C   UNL     1       1.992   4.109  21.287  0.00  0.00    +0.000 A 
ATOM     13  C   UNL     1       2.752   4.748  20.297  0.00  0.00    +0.000 A 
ATOM     14  C   UNL     1       2.897   4.149  19.027  0.00  0.00    +0.000 A 
ATOM     15  H   UNL     1       2.123   1.743  17.058  0.00  0.00    +0.000 HD
ENDBRANCH   5   6
BRANCH   1  16
ATOM     16  C   UNL     1       6.697   4.404  17.155  0.00  0.00    +0.000 C 
BRANCH  16  17
ATOM     17  C   UNL     1       6.864   4.080  15.679  0.00  0.00    +0.000 C 
BRANCH  17  19
ATOM     18  C   UNL     1       7.283   4.929  13.552  0.00  0.00    +0.000 C 
ATOM     19  O   UNL     1       7.497   5.130  14.953  0.00  0.00    +0.000 OA
ENDBRANCH  17  19
ENDBRANCH  16  17
ENDBRANCH   1  16
BRANCH   2  20
ATOM     20  S   UNL     1       7.939   7.503  17.868  0.00  0.00    +0.000 S 
BRANCH  20  21
ATOM     21  C   UNL     1       7.737   9.314  17.770  0.00  0.00    +0.000 C 
BRANCH  21  22
ATOM     22  C   UNL     1       8.911  10.062  18.403  0.00  0.00    +0.000 C 
ATOM     23  O   UNL     1       9.248   9.848  19.569  0.00  0.00    +0.000 OA
ATOM     24  N   UNL     1       9.489  11.055  17.642  0.00  0.00    +0.000 N 
ATOM     25  H   UNL     1       9.262  11.087  16.656  0.00  0.00    +0.000 HD
BRANCH  24  26
ATOM     26  C   UNL     1      10.683  11.762  18.066  0.00  0.00    +0.000 C 
BRANCH  26  27
ATOM     27  C   UNL     1      10.533  13.256  17.913  0.00  0.00    +0.000 A 
ATOM     28  C   UNL     1      11.421  13.966  17.072  0.00  0.00    +0.000 A 
ATOM     29  C   UNL     1      11.284  15.344  16.873  0.00  0.00    +0.000 A 
ATOM     30  C   UNL     1      10.264  15.988  17.529  0.00  0.00    +0.000 A 
ATOM     31  C   UNL     1       9.405  15.315  18.365  0.00  0.00    +0.000 A 
ATOM     32  C   UNL     1       9.516  13.955  18.584  0.00  0.00    +0.000 A 
ATOM     33  O   UNL     1       8.468  16.136  18.913  0.00  0.00    +0.000 OA
ATOM     34  C   UNL     1       8.812  17.394  18.294  0.00  0.00    +0.000 C 
ATOM     35  O   UNL     1       9.971  17.314  17.440  0.00  0.00    +0.000 OA
ENDBRANCH  26  27
ENDBRANCH  24  26
ENDBRANCH  21  22
ENDBRANCH  20  21
ENDBRANCH   2  20
TORSDOF 9
ENDMDL
MODEL 4
REMARK VINA RESULT:      -7.7      5.080      7.767
REMARK  Name = 
REMARK  10 active torsions:
REMARK  status: ('A' for Active; 'I' for Inactive)
REMARK    1  A    between atoms: C_1  and  O_2
REMARK    2  A    between atoms: O_2  and  C_3
REMARK    3  A    between atoms: C_3  and  C_4
REMARK    4  A    between atoms: C_4  and  N_5
REMARK    5  A    between atoms: C_6  and  S_7
REMARK    6  A    between atoms: S_7  and  C_8
REMARK    7  A    between atoms: C_8  and  C_9
REMARK    8  A    between atoms: N_11  and  C_12
REMARK    9  A    between atoms: C_12  and  C_13
REMARK   10  A    between atoms: C_24  and  C_25
REMARK                            x       y       z     vdW  Elec       q    Type
REMARK                         _______ _______ _______ _____ _____    ______ ____
ROOT
ATOM      1  N   UNL     1       4.324   3.581  17.873  0.00  0.00    +0.000 N 
ATOM      2  C   UNL     1       3.040   3.114  18.051  0.00  0.00    +0.000 A 
ATOM      3  N   UNL     1       2.297   3.467  17.029  0.00  0.00    +0.000 NA
ATOM      4  N   UNL     1       3.104   4.114  16.127  0.00  0.00    +0.000 NA
ATOM      5  C   UNL     1       4.343   4.101  16.584  0.00  0.00    +0.000 A 
ENDROOT
BRANCH   5   6
ATOM      6  C   UNL     1       5.522   4.554  15.768  0.00  0.00    +0.000 A 
ATOM      7  C   UNL     1       6.593   5.289  16.232  0.00  0.00    +0.000 A 
ATOM      8  N   UNL     1       7.503   5.418  15.212  0.00  0.00    +0.000 N 
ATOM      9  C   UNL     1       7.054   4.766  14.088  0.00  0.00    +0.000 A 
ATOM     10  C   UNL     1       7.674   4.597  12.844  0.00  0.00    +0.000 A 
ATOM     11  C   UNL     1       6.977   3.892  11.862  0.00  0.00    +0.000 A 
ATOM     12  C   UNL     1       5.703   3.390  12.115  0.00  0.00    +0.000 A 
ATOM     13  C   UNL     1       5.103   3.554  13.371  0.00  0.00    +0.000 A 
ATOM     14  C   UNL     1       5.794   4.239  14.395  0.00  0.00    +0.000 A 
ATOM     15  H   UNL     1       8.392   5.892  15.277  0.00  0.00    +0.000 HD
ENDBRANCH   5   6
BRANCH   1  16
ATOM     16  C   UNL     1       5.415   3.725  18.819  0.00  0.00    +0.000 C 
BRANCH  16  17
ATOM     17  C   UNL     1       5.772   5.135  19.257  0.00  0.00    +0.000 C 
BRANCH  17  19
ATOM     18  C   UNL     1       7.925   6.022  19.289  0.00  0.00    +0.000 C 
ATOM     19  O   UNL     1       6.994   5.192  19.990  0.00  0.00    +0.000 OA
ENDBRANCH  17  19
ENDBRANCH  16  17
ENDBRANCH   1  16
BRANCH   2  20
ATOM     20  S   UNL     1       2.499   2.009  19.276  0.00  0.00    +0.000 S 
BRANCH  20  21
ATOM     21  C   UNL     1       1.418   3.048  20.316  0.00  0.00    +0.000 C 
BRANCH  21  22
ATOM     22  C   UNL     1       2.075   4.381  20.681  0.00  0.00    +0.000 C 
ATOM     23  O   UNL     1       2.592   4.554  21.786  0.00  0.00    +0.000 OA
ATOM     24  N   UNL     1       1.956   5.397  19.758  0.00  0.00    +0.000 N 
ATOM     25  H   UNL     1       1.646   5.155  18.825  0.00  0.00    +0.000 HD
BRANCH  24  26
ATOM     26  C   UNL     1       2.629   6.673  19.917  0.00  0.00    +0.000 C 
BRANCH  26  27
ATOM     27  C   UNL     1       1.649   7.805  20.103  0.00  0.00    +0.000 A 
ATOM     28  C   UNL     1       0.890   7.886  21.294  0.00  0.00    +0.000 A 
ATOM     29  C   UNL     1       0.005   8.946  21.518  0.00  0.00    +0.000 A 
ATOM     30  C   UNL     1      -0.111   9.902  20.539  0.00  0.00    +0.000 A 
ATOM     31  C   UNL     1       0.604   9.826  19.367  0.00  0.00    +0.000 A 
ATOM     32  C   UNL     1       1.485   8.791  19.116  0.00  0.00    +0.000 A 
ATOM     33  O   UNL     1       0.344  10.871  18.535  0.00  0.00    +0.000 OA
ATOM     34  C   UNL     1      -0.587  11.632  19.333  0.00  0.00    +0.000 C 
ATOM     35  O   UNL     1      -0.906  11.006  20.593  0.00  0.00    +0.000 OA
ENDBRANCH  26  27
ENDBRANCH  24  26
ENDBRANCH  21  22
ENDBRANCH  20  21
ENDBRANCH   2  20
TORSDOF 9
ENDMDL
MODEL 5
REMARK VINA RESULT:      -7.7      6.230      8.998
REMARK  Name = 
REMARK  10 active torsions:
REMARK  status: ('A' for Active; 'I' for Inactive)
REMARK    1  A    between atoms: C_1  and  O_2
REMARK    2  A    between atoms: O_2  and  C_3
REMARK    3  A    between atoms: C_3  and  C_4
REMARK    4  A    between atoms: C_4  and  N_5
REMARK    5  A    between atoms: C_6  and  S_7
REMARK    6  A    between atoms: S_7  and  C_8
REMARK    7  A    between atoms: C_8  and  C_9
REMARK    8  A    between atoms: N_11  and  C_12
REMARK    9  A    between atoms: C_12  and  C_13
REMARK   10  A    between atoms: C_24  and  C_25
REMARK                            x       y       z     vdW  Elec       q    Type
REMARK                         _______ _______ _______ _____ _____    ______ ____
ROOT
ATOM      1  N   UNL     1       2.297   6.482  19.906  0.00  0.00    +0.000 N 
ATOM      2  C   UNL     1       1.736   7.728  20.089  0.00  0.00    +0.000 A 
ATOM      3  N   UNL     1       2.071   8.512  19.093  0.00  0.00    +0.000 NA
ATOM      4  N   UNL     1       2.805   7.770  18.202  0.00  0.00    +0.000 NA
ATOM      5  C   UNL     1       2.861   6.524  18.637  0.00  0.00    +0.000 A 
ENDROOT
BRANCH   5   6
ATOM      6  C   UNL     1       3.424   5.396  17.818  0.00  0.00    +0.000 A 
ATOM      7  C   UNL     1       2.757   4.242  17.462  0.00  0.00    +0.000 A 
ATOM      8  N   UNL     1       3.571   3.508  16.637  0.00  0.00    +0.000 N 
ATOM      9  C   UNL     1       4.760   4.168  16.432  0.00  0.00    +0.000 A 
ATOM     10  C   UNL     1       5.851   3.815  15.629  0.00  0.00    +0.000 A 
ATOM     11  C   UNL     1       6.951   4.675  15.615  0.00  0.00    +0.000 A 
ATOM     12  C   UNL     1       6.959   5.833  16.388  0.00  0.00    +0.000 A 
ATOM     13  C   UNL     1       5.851   6.179  17.174  0.00  0.00    +0.000 A 
ATOM     14  C   UNL     1       4.712   5.345  17.187  0.00  0.00    +0.000 A 
ATOM     15  H   UNL     1       3.329   2.626  16.210  0.00  0.00    +0.000 HD
ENDBRANCH   5   6
BRANCH   1  16
ATOM     16  C   UNL     1       2.483   5.385  20.838  0.00  0.00    +0.000 C 
BRANCH  16  17
ATOM     17  C   UNL     1       1.418   4.301  20.855  0.00  0.00    +0.000 C 
BRANCH  17  19
ATOM     18  C   UNL     1       2.907   2.542  21.188  0.00  0.00    +0.000 C 
ATOM     19  O   UNL     1       1.755   3.211  21.709  0.00  0.00    +0.000 OA
ENDBRANCH  17  19
ENDBRANCH  16  17
ENDBRANCH   1  16
BRANCH   2  20
ATOM     20  S   UNL     1       0.553   8.167  21.282  0.00  0.00    +0.000 S 
BRANCH  20  21
ATOM     21  C   UNL     1       0.153   9.892  20.845  0.00  0.00    +0.000 C 
BRANCH  21  22
ATOM     22  C   UNL     1      -0.211  10.730  22.072  0.00  0.00    +0.000 C 
ATOM     23  O   UNL     1      -0.029  10.301  23.213  0.00  0.00    +0.000 OA
ATOM     24  N   UNL     1      -0.850  11.926  21.831  0.00  0.00    +0.000 N 
ATOM     25  H   UNL     1      -0.845  12.282  20.883  0.00  0.00    +0.000 HD
BRANCH  24  26
ATOM     26  C   UNL     1      -1.145  12.876  22.889  0.00  0.00    +0.000 C 
BRANCH  26  27
ATOM     27  C   UNL     1      -2.619  13.194  22.960  0.00  0.00    +0.000 A 
ATOM     28  C   UNL     1      -3.147  14.245  22.174  0.00  0.00    +0.000 A 
ATOM     29  C   UNL     1      -4.514  14.539  22.182  0.00  0.00    +0.000 A 
ATOM     30  C   UNL     1      -5.328  13.779  22.987  0.00  0.00    +0.000 A 
ATOM     31  C   UNL     1      -4.827  12.768  23.771  0.00  0.00    +0.000 A 
ATOM     32  C   UNL     1      -3.481  12.455  23.786  0.00  0.00    +0.000 A 
ATOM     33  O   UNL     1      -5.799  12.141  24.488  0.00  0.00    +0.000 OA
ATOM     34  C   UNL     1      -6.973  12.848  24.035  0.00  0.00    +0.000 C 
ATOM     35  O   UNL     1      -6.678  13.912  23.106  0.00  0.00    +0.000 OA
ENDBRANCH  26  27
ENDBRANCH  24  26
ENDBRANCH  21  22
ENDBRANCH  20  21
ENDBRANCH   2  20
TORSDOF 9
ENDMDL
MODEL 6
REMARK VINA RESULT:      -7.6      2.584      3.608
REMARK  Name = 
REMARK  10 active torsions:
REMARK  status: ('A' for Active; 'I' for Inactive)
REMARK    1  A    between atoms: C_1  and  O_2
REMARK    2  A    between atoms: O_2  and  C_3
REMARK    3  A    between atoms: C_3  and  C_4
REMARK    4  A    between atoms: C_4  and  N_5
REMARK    5  A    between atoms: C_6  and  S_7
REMARK    6  A    between atoms: S_7  and  C_8
REMARK    7  A    between atoms: C_8  and  C_9
REMARK    8  A    between atoms: N_11  and  C_12
REMARK    9  A    between atoms: C_12  and  C_13
REMARK   10  A    between atoms: C_24  and  C_25
REMARK                            x       y       z     vdW  Elec       q    Type
REMARK                         _______ _______ _______ _____ _____    ______ ____
ROOT
ATOM      1  N   UNL     1       5.658   6.124  17.749  0.00  0.00    +0.000 N 
ATOM      2  C   UNL     1       6.938   6.530  18.058  0.00  0.00    +0.000 A 
ATOM      3  N   UNL     1       7.409   5.798  19.039  0.00  0.00    +0.000 NA
ATOM      4  N   UNL     1       6.464   4.850  19.345  0.00  0.00    +0.000 NA
ATOM      5  C   UNL     1       5.450   4.979  18.509  0.00  0.00    +0.000 A 
ENDROOT
BRANCH   5   6
ATOM      6  C   UNL     1       4.322   3.988  18.431  0.00  0.00    +0.000 A 
ATOM      7  C   UNL     1       4.195   2.978  17.500  0.00  0.00    +0.000 A 
ATOM      8  N   UNL     1       3.088   2.232  17.820  0.00  0.00    +0.000 N 
ATOM      9  C   UNL     1       2.493   2.727  18.957  0.00  0.00    +0.000 A 
ATOM     10  C   UNL     1       1.380   2.252  19.662  0.00  0.00    +0.000 A 
ATOM     11  C   UNL     1       0.978   2.965  20.793  0.00  0.00    +0.000 A 
ATOM     12  C   UNL     1       1.656   4.115  21.189  0.00  0.00    +0.000 A 
ATOM     13  C   UNL     1       2.778   4.567  20.480  0.00  0.00    +0.000 A 
ATOM     14  C   UNL     1       3.227   3.852  19.348  0.00  0.00    +0.000 A 
ATOM     15  H   UNL     1       2.767   1.416  17.320  0.00  0.00    +0.000 HD
ENDBRANCH   5   6
BRANCH   1  16
ATOM     16  C   UNL     1       4.619   6.783  16.979  0.00  0.00    +0.000 C 
BRANCH  16  17
ATOM     17  C   UNL     1       3.395   7.268  17.738  0.00  0.00    +0.000 C 
BRANCH  17  19
ATOM     18  C   UNL     1       1.729   8.875  17.985  0.00  0.00    +0.000 C 
ATOM     19  O   UNL     1       2.878   8.493  17.224  0.00  0.00    +0.000 OA
ENDBRANCH  17  19
ENDBRANCH  16  17
ENDBRANCH   1  16
BRANCH   2  20
ATOM     20  S   UNL     1       7.919   7.643  17.154  0.00  0.00    +0.000 S 
BRANCH  20  21
ATOM     21  C   UNL     1       7.522   9.251  17.919  0.00  0.00    +0.000 C 
BRANCH  21  22
ATOM     22  C   UNL     1       8.771   9.971  18.432  0.00  0.00    +0.000 C 
ATOM     23  O   UNL     1       9.297   9.652  19.500  0.00  0.00    +0.000 OA
ATOM     24  N   UNL     1       9.200  11.055  17.697  0.00  0.00    +0.000 N 
ATOM     25  H   UNL     1       8.815  11.179  16.769  0.00  0.00    +0.000 HD
BRANCH  24  26
ATOM     26  C   UNL     1      10.434  11.756  17.997  0.00  0.00    +0.000 C 
BRANCH  26  27
ATOM     27  C   UNL     1      10.234  13.251  18.037  0.00  0.00    +0.000 A 
ATOM     28  C   UNL     1       9.220  13.800  18.855  0.00  0.00    +0.000 A 
ATOM     29  C   UNL     1       9.036  15.184  18.951  0.00  0.00    +0.000 A 
ATOM     30  C   UNL     1       9.867  15.993  18.215  0.00  0.00    +0.000 A 
ATOM     31  C   UNL     1      10.844  15.473  17.400  0.00  0.00    +0.000 A 
ATOM     32  C   UNL     1      11.050  14.112  17.283  0.00  0.00    +0.000 A 
ATOM     33  O   UNL     1      11.555  16.444  16.762  0.00  0.00    +0.000 OA
ATOM     34  C   UNL     1      10.938  17.633  17.301  0.00  0.00    +0.000 C 
ATOM     35  O   UNL     1       9.844  17.354  18.199  0.00  0.00    +0.000 OA
ENDBRANCH  26  27
ENDBRANCH  24  26
ENDBRANCH  21  22
ENDBRANCH  20  21
ENDBRANCH   2  20
TORSDOF 9
ENDMDL
MODEL 7
REMARK VINA RESULT:      -7.6      2.836      5.328
REMARK  Name = 
REMARK  10 active torsions:
REMARK  status: ('A' for Active; 'I' for Inactive)
REMARK    1  A    between atoms: C_1  and  O_2
REMARK    2  A    between atoms: O_2  and  C_3
REMARK    3  A    between atoms: C_3  and  C_4
REMARK    4  A    between atoms: C_4  and  N_5
REMARK    5  A    between atoms: C_6  and  S_7
REMARK    6  A    between atoms: S_7  and  C_8
REMARK    7  A    between atoms: C_8  and  C_9
REMARK    8  A    between atoms: N_11  and  C_12
REMARK    9  A    between atoms: C_12  and  C_13
REMARK   10  A    between atoms: C_24  and  C_25
REMARK                            x       y       z     vdW  Elec       q    Type
REMARK                         _______ _______ _______ _____ _____    ______ ____
ROOT
ATOM      1  N   UNL     1       3.105   6.241  18.999  0.00  0.00    +0.000 N 
ATOM      2  C   UNL     1       4.051   6.185  17.999  0.00  0.00    +0.000 A 
ATOM      3  N   UNL     1       3.986   7.273  17.269  0.00  0.00    +0.000 NA
ATOM      4  N   UNL     1       3.036   8.095  17.824  0.00  0.00    +0.000 NA
ATOM      5  C   UNL     1       2.572   7.523  18.920  0.00  0.00    +0.000 A 
ENDROOT
BRANCH   5   6
ATOM      6  C   UNL     1       1.656   8.224  19.885  0.00  0.00    +0.000 A 
ATOM      7  C   UNL     1       1.582   7.995  21.243  0.00  0.00    +0.000 A 
ATOM      8  N   UNL     1       0.702   8.897  21.786  0.00  0.00    +0.000 N 
ATOM      9  C   UNL     1       0.205   9.726  20.808  0.00  0.00    +0.000 A 
ATOM     10  C   UNL     1      -0.674  10.810  20.916  0.00  0.00    +0.000 A 
ATOM     11  C   UNL     1      -1.027  11.479  19.743  0.00  0.00    +0.000 A 
ATOM     12  C   UNL     1      -0.529  11.065  18.510  0.00  0.00    +0.000 A 
ATOM     13  C   UNL     1       0.363   9.987  18.422  0.00  0.00    +0.000 A 
ATOM     14  C   UNL     1       0.761   9.308  19.594  0.00  0.00    +0.000 A 
ATOM     15  H   UNL     1       0.469   8.971  22.766  0.00  0.00    +0.000 HD
ENDBRANCH   5   6
BRANCH   1  16
ATOM     16  C   UNL     1       2.574   5.196  19.855  0.00  0.00    +0.000 C 
BRANCH  16  17
ATOM     17  C   UNL     1       1.886   4.024  19.174  0.00  0.00    +0.000 C 
BRANCH  17  19
ATOM     18  C   UNL     1       2.518   2.178  17.905  0.00  0.00    +0.000 C 
ATOM     19  O   UNL     1       2.689   2.848  19.157  0.00  0.00    +0.000 OA
ENDBRANCH  17  19
ENDBRANCH  16  17
ENDBRANCH   1  16
BRANCH   2  20
ATOM     20  S   UNL     1       5.325   5.017  17.842  0.00  0.00    +0.000 S 
BRANCH  20  21
ATOM     21  C   UNL     1       6.756   5.870  18.587  0.00  0.00    +0.000 C 
BRANCH  21  22
ATOM     22  C   UNL     1       7.373   6.899  17.638  0.00  0.00    +0.000 C 
ATOM     23  O   UNL     1       7.477   6.672  16.431  0.00  0.00    +0.000 OA
ATOM     24  N   UNL     1       7.902   8.031  18.220  0.00  0.00    +0.000 N 
ATOM     25  H   UNL     1       7.664   8.221  19.186  0.00  0.00    +0.000 HD
BRANCH  24  26
ATOM     26  C   UNL     1       8.409   9.142  17.437  0.00  0.00    +0.000 C 
BRANCH  26  27
ATOM     27  C   UNL     1       8.810  10.306  18.309  0.00  0.00    +0.000 A 
ATOM     28  C   UNL     1       9.245  10.071  19.634  0.00  0.00    +0.000 A 
ATOM     29  C   UNL     1       9.665  11.122  20.456  0.00  0.00    +0.000 A 
ATOM     30  C   UNL     1       9.634  12.394  19.936  0.00  0.00    +0.000 A 
ATOM     31  C   UNL     1       9.195  12.640  18.657  0.00  0.00    +0.000 A 
ATOM     32  C   UNL     1       8.772  11.623  17.822  0.00  0.00    +0.000 A 
ATOM     33  O   UNL     1       9.245  13.963  18.339  0.00  0.00    +0.000 OA
ATOM     34  C   UNL     1       9.802  14.514  19.551  0.00  0.00    +0.000 C 
ATOM     35  O   UNL     1      10.021  13.528  20.582  0.00  0.00    +0.000 OA
ENDBRANCH  26  27
ENDBRANCH  24  26
ENDBRANCH  21  22
ENDBRANCH  20  21
ENDBRANCH   2  20
TORSDOF 9
ENDMDL
MODEL 8
REMARK VINA RESULT:      -7.6      3.392     11.060
REMARK  Name = 
REMARK  10 active torsions:
REMARK  status: ('A' for Active; 'I' for Inactive)
REMARK    1  A    between atoms: C_1  and  O_2
REMARK    2  A    between atoms: O_2  and  C_3
REMARK    3  A    between atoms: C_3  and  C_4
REMARK    4  A    between atoms: C_4  and  N_5
REMARK    5  A    between atoms: C_6  and  S_7
REMARK    6  A    between atoms: S_7  and  C_8
REMARK    7  A    between atoms: C_8  and  C_9
REMARK    8  A    between atoms: N_11  and  C_12
REMARK    9  A    between atoms: C_12  and  C_13
REMARK   10  A    between atoms: C_24  and  C_25
REMARK                            x       y       z     vdW  Elec       q    Type
REMARK                         _______ _______ _______ _____ _____    ______ ____
ROOT
ATOM      1  N   UNL     1       9.746  12.933  18.144  0.00  0.00    +0.000 N 
ATOM      2  C   UNL     1      10.154  11.628  18.319  0.00  0.00    +0.000 A 
ATOM      3  N   UNL     1      11.418  11.514  17.987  0.00  0.00    +0.000 NA
ATOM      4  N   UNL     1      11.878  12.763  17.653  0.00  0.00    +0.000 NA
ATOM      5  C   UNL     1      10.905  13.636  17.839  0.00  0.00    +0.000 A 
ENDROOT
BRANCH   5   6
ATOM      6  C   UNL     1      11.111  15.123  17.752  0.00  0.00    +0.000 A 
ATOM      7  C   UNL     1      10.921  15.903  16.630  0.00  0.00    +0.000 A 
ATOM      8  N   UNL     1      11.116  17.216  16.978  0.00  0.00    +0.000 N 
ATOM      9  C   UNL     1      11.418  17.314  18.316  0.00  0.00    +0.000 A 
ATOM     10  C   UNL     1      11.644  18.452  19.101  0.00  0.00    +0.000 A 
ATOM     11  C   UNL     1      11.948  18.259  20.449  0.00  0.00    +0.000 A 
ATOM     12  C   UNL     1      12.037  16.976  20.983  0.00  0.00    +0.000 A 
ATOM     13  C   UNL     1      11.793  15.849  20.187  0.00  0.00    +0.000 A 
ATOM     14  C   UNL     1      11.455  16.011  18.826  0.00  0.00    +0.000 A 
ATOM     15  H   UNL     1      11.021  18.006  16.357  0.00  0.00    +0.000 HD
ENDBRANCH   5   6
BRANCH   1  16
ATOM     16  C   UNL     1       8.413  13.503  18.074  0.00  0.00    +0.000 C 
BRANCH  16  17
ATOM     17  C   UNL     1       8.041  14.530  19.131  0.00  0.00    +0.000 C 
BRANCH  17  19
ATOM     18  C   UNL     1       7.473  14.247  21.371  0.00  0.00    +0.000 C 
ATOM     19  O   UNL     1       8.543  14.198  20.423  0.00  0.00    +0.000 OA
ENDBRANCH  17  19
ENDBRANCH  16  17
ENDBRANCH   1  16
BRANCH   2  20
ATOM     20  S   UNL     1       9.263  10.359  19.099  0.00  0.00    +0.000 S 
BRANCH  20  21
ATOM     21  C   UNL     1       8.219   9.705  17.753  0.00  0.00    +0.000 C 
BRANCH  21  22
ATOM     22  C   UNL     1       7.994   8.197  17.877  0.00  0.00    +0.000 C 
ATOM     23  O   UNL     1       8.505   7.550  18.792  0.00  0.00    +0.000 OA
ATOM     24  N   UNL     1       7.290   7.596  16.856  0.00  0.00    +0.000 N 
ATOM     25  H   UNL     1       6.784   8.194  16.214  0.00  0.00    +0.000 HD
BRANCH  24  26
ATOM     26  C   UNL     1       6.899   6.199  16.900  0.00  0.00    +0.000 C 
BRANCH  26  27
ATOM     27  C   UNL     1       5.587   6.007  17.621  0.00  0.00    +0.000 A 
ATOM     28  C   UNL     1       4.518   6.901  17.380  0.00  0.00    +0.000 A 
ATOM     29  C   UNL     1       3.275   6.726  17.997  0.00  0.00    +0.000 A 
ATOM     30  C   UNL     1       3.128   5.662  18.853  0.00  0.00    +0.000 A 
ATOM     31  C   UNL     1       4.164   4.797  19.112  0.00  0.00    +0.000 A 
ATOM     32  C   UNL     1       5.404   4.943  18.520  0.00  0.00    +0.000 A 
ATOM     33  O   UNL     1       3.809   3.814  19.985  0.00  0.00    +0.000 OA
ATOM     34  C   UNL     1       2.422   4.138  20.213  0.00  0.00    +0.000 C 
ATOM     35  O   UNL     1       1.991   5.330  19.523  0.00  0.00    +0.000 OA
ENDBRANCH  26  27
ENDBRANCH  24  26
ENDBRANCH  21  22
ENDBRANCH  20  21
ENDBRANCH   2  20
TORSDOF 9
ENDMDL
MODEL 9
REMARK VINA RESULT:      -7.6      5.590      8.815
REMARK  Name = 
REMARK  10 active torsions:
REMARK  status: ('A' for Active; 'I' for Inactive)
REMARK    1  A    between atoms: C_1  and  O_2
REMARK    2  A    between atoms: O_2  and  C_3
REMARK    3  A    between atoms: C_3  and  C_4
REMARK    4  A    between atoms: C_4  and  N_5
REMARK    5  A    between atoms: C_6  and  S_7
REMARK    6  A    between atoms: S_7  and  C_8
REMARK    7  A    between atoms: C_8  and  C_9
REMARK    8  A    between atoms: N_11  and  C_12
REMARK    9  A    between atoms: C_12  and  C_13
REMARK   10  A    between atoms: C_24  and  C_25
REMARK                            x       y       z     vdW  Elec       q    Type
REMARK                         _______ _______ _______ _____ _____    ______ ____
ROOT
ATOM      1  N   UNL     1       2.297   6.245  19.939  0.00  0.00    +0.000 N 
ATOM      2  C   UNL     1       1.648   7.434  20.190  0.00  0.00    +0.000 A 
ATOM      3  N   UNL     1       1.941   8.302  19.251  0.00  0.00    +0.000 NA
ATOM      4  N   UNL     1       2.737   7.670  18.329  0.00  0.00    +0.000 NA
ATOM      5  C   UNL     1       2.875   6.406  18.686  0.00  0.00    +0.000 A 
ENDROOT
BRANCH   5   6
ATOM      6  C   UNL     1       3.526   5.373  17.808  0.00  0.00    +0.000 A 
ATOM      7  C   UNL     1       2.918   4.245  17.298  0.00  0.00    +0.000 A 
ATOM      8  N   UNL     1       3.809   3.611  16.469  0.00  0.00    +0.000 N 
ATOM      9  C   UNL     1       4.991   4.313  16.415  0.00  0.00    +0.000 A 
ATOM     10  C   UNL     1       6.146   4.061  15.664  0.00  0.00    +0.000 A 
ATOM     11  C   UNL     1       7.219   4.941  15.812  0.00  0.00    +0.000 A 
ATOM     12  C   UNL     1       7.140   6.020  16.689  0.00  0.00    +0.000 A 
ATOM     13  C   UNL     1       5.969   6.266  17.420  0.00  0.00    +0.000 A 
ATOM     14  C   UNL     1       4.856   5.410  17.272  0.00  0.00    +0.000 A 
ATOM     15  H   UNL     1       3.624   2.768  15.944  0.00  0.00    +0.000 HD
ENDBRANCH   5   6
BRANCH   1  16
ATOM     16  C   UNL     1       2.546   5.106  20.804  0.00  0.00    +0.000 C 
BRANCH  16  17
ATOM     17  C   UNL     1       1.409   4.113  20.989  0.00  0.00    +0.000 C 
BRANCH  17  19
ATOM     18  C   UNL     1       1.275   2.228  19.631  0.00  0.00    +0.000 C 
ATOM     19  O   UNL     1       0.914   3.606  19.753  0.00  0.00    +0.000 OA
ENDBRANCH  17  19
ENDBRANCH  16  17
ENDBRANCH   1  16
BRANCH   2  20
ATOM     20  S   UNL     1       0.421   7.714  21.386  0.00  0.00    +0.000 S 
BRANCH  20  21
ATOM     21  C   UNL     1       1.065   9.154  22.302  0.00  0.00    +0.000 C 
BRANCH  21  22
ATOM     22  C   UNL     1       0.354  10.452  21.914  0.00  0.00    +0.000 C 
ATOM     23  O   UNL     1      -0.122  11.199  22.771  0.00  0.00    +0.000 OA
ATOM     24  N   UNL     1       0.179  10.676  20.566  0.00  0.00    +0.000 N 
ATOM     25  H   UNL     1       0.707  10.104  19.919  0.00  0.00    +0.000 HD
BRANCH  24  26
ATOM     26  C   UNL     1      -0.370  11.917  20.050  0.00  0.00    +0.000 C 
BRANCH  26  27
ATOM     27  C   UNL     1      -1.571  11.675  19.169  0.00  0.00    +0.000 A 
ATOM     28  C   UNL     1      -1.425  10.925  17.978  0.00  0.00    +0.000 A 
ATOM     29  C   UNL     1      -2.525  10.645  17.160  0.00  0.00    +0.000 A 
ATOM     30  C   UNL     1      -3.751  11.130  17.546  0.00  0.00    +0.000 A 
ATOM     31  C   UNL     1      -3.904  11.877  18.690  0.00  0.00    +0.000 A 
ATOM     32  C   UNL     1      -2.837  12.173  19.517  0.00  0.00    +0.000 A 
ATOM     33  O   UNL     1      -5.196  12.257  18.888  0.00  0.00    +0.000 OA
ATOM     34  C   UNL     1      -5.843  11.631  17.761  0.00  0.00    +0.000 C 
ATOM     35  O   UNL     1      -4.926  10.941  16.886  0.00  0.00    +0.000 OA
ENDBRANCH  26  27
ENDBRANCH  24  26
ENDBRANCH  21  22
ENDBRANCH  20  21
ENDBRANCH   2  20
TORSDOF 9
ENDMDL
