MODEL 1
REMARK VINA RESULT:      -7.8      0.000      0.000
REMARK  Name = 
REMARK  9 active torsions:
REMARK  status: ('A' for Active; 'I' for Inactive)
REMARK    1  A    between atoms: C_1  and  O_2
REMARK    2  A    between atoms: O_2  and  C_3
REMARK    3  A    between atoms: C_3  and  C_5
REMARK    4  A    between atoms: C_6  and  C_7
REMARK    5  A    between atoms: N_22  and  C_23
REMARK    6  A    between atoms: C_23  and  C_24
REMARK    7  A    between atoms: N_26  and  C_27
REMARK    8  A    between atoms: C_31  and  C_32
REMARK    9  A    between atoms: C_32  and  C_33
REMARK                            x       y       z     vdW  Elec       q    Type
REMARK                         _______ _______ _______ _____ _____    ______ ____
ROOT
ATOM      1  C   UNL     1      -1.597  12.434  20.298  0.00  0.00    +0.000 C 
ATOM      2  C   UNL     1      -2.917  12.647  20.580  0.00  0.00    +0.000 C 
ATOM      3  C   UNL     1      -4.050  12.278  19.661  0.00  0.00    +0.000 A 
ATOM      4  C   UNL     1      -5.393  12.565  19.998  0.00  0.00    +0.000 A 
ATOM      5  C   UNL     1      -6.470  12.155  19.196  0.00  0.00    +0.000 A 
ATOM      6  C   UNL     1      -6.238  11.465  18.017  0.00  0.00    +0.000 A 
ATOM      7  C   UNL     1      -4.930  11.182  17.651  0.00  0.00    +0.000 A 
ATOM      8  C   UNL     1      -3.865  11.581  18.480  0.00  0.00    +0.000 A 
ATOM      9  S   UNL     1      -2.270  11.114  17.996  0.00  0.00    +0.000 S 
ATOM     10  O   UNL     1      -2.131   9.702  18.287  0.00  0.00    +0.000 OA
ATOM     11  O   UNL     1      -2.062  11.628  16.660  0.00  0.00    +0.000 OA
ATOM     12  N   UNL     1      -1.189  11.902  19.003  0.00  0.00    +0.000 N 
ENDROOT
BRANCH   2  13
ATOM     13  C   UNL     1      -3.261  13.282  21.894  0.00  0.00    +0.000 A 
ATOM     14  C   UNL     1      -3.496  12.498  23.034  0.00  0.00    +0.000 A 
ATOM     15  C   UNL     1      -3.798  13.110  24.254  0.00  0.00    +0.000 A 
ATOM     16  C   UNL     1      -3.865  14.500  24.346  0.00  0.00    +0.000 A 
ATOM     17  C   UNL     1      -3.615  15.288  23.220  0.00  0.00    +0.000 A 
ATOM     18  C   UNL     1      -3.305  14.680  22.001  0.00  0.00    +0.000 A 
ENDBRANCH   2  13
BRANCH   1  19
ATOM     19  C   UNL     1      -0.528  12.772  21.337  0.00  0.00    +0.000 C 
ATOM     20  O   UNL     1      -0.157  12.030  22.235  0.00  0.00    +0.000 OA
BRANCH  19  22
ATOM     21  C   UNL     1       1.422  14.092  21.228  0.00  0.00    +0.000 C 
ATOM     22  O   UNL     1      -0.002  13.998  21.104  0.00  0.00    +0.000 OA
ENDBRANCH  19  22
ENDBRANCH   1  19
BRANCH  12  23
ATOM     23  C   UNL     1       0.221  11.573  18.639  0.00  0.00    +0.000 C 
BRANCH  23  24
ATOM     24  C   UNL     1       0.779  10.205  19.015  0.00  0.00    +0.000 C 
ATOM     25  O   UNL     1       0.533   9.726  20.124  0.00  0.00    +0.000 OA
ATOM     26  N   UNL     1       1.645   9.625  18.102  0.00  0.00    +0.000 N 
ATOM     27  H   UNL     1       2.143  10.274  17.492  0.00  0.00    +0.000 HD
BRANCH  26  28
ATOM     28  C   UNL     1       2.262   8.373  18.321  0.00  0.00    +0.000 A 
ATOM     29  C   UNL     1       1.989   7.702  19.514  0.00  0.00    +0.000 A 
ATOM     30  C   UNL     1       2.548   6.444  19.756  0.00  0.00    +0.000 A 
ATOM     31  C   UNL     1       3.439   5.878  18.841  0.00  0.00    +0.000 A 
ATOM     32  C   UNL     1       3.756   6.564  17.663  0.00  0.00    +0.000 A 
ATOM     33  C   UNL     1       3.144   7.802  17.395  0.00  0.00    +0.000 A 
BRANCH  32  34
ATOM     34  C   UNL     1       4.780   6.054  16.702  0.00  0.00    +0.000 C 
ATOM     35  C   UNL     1       5.228   4.613  16.750  0.00  0.00    +0.000 C 
ATOM     36  O   UNL     1       5.269   6.827  15.877  0.00  0.00    +0.000 OA
ENDBRANCH  32  34
ENDBRANCH  26  28
ENDBRANCH  23  24
ENDBRANCH  12  23
TORSDOF 7
ENDMDL
MODEL 2
REMARK VINA RESULT:      -7.8      6.309     10.086
REMARK  Name = 
REMARK  9 active torsions:
REMARK  status: ('A' for Active; 'I' for Inactive)
REMARK    1  A    between atoms: C_1  and  O_2
REMARK    2  A    between atoms: O_2  and  C_3
REMARK    3  A    between atoms: C_3  and  C_5
REMARK    4  A    between atoms: C_6  and  C_7
REMARK    5  A    between atoms: N_22  and  C_23
REMARK    6  A    between atoms: C_23  and  C_24
REMARK    7  A    between atoms: N_26  and  C_27
REMARK    8  A    between atoms: C_31  and  C_32
REMARK    9  A    between atoms: C_32  and  C_33
REMARK                            x       y       z     vdW  Elec       q    Type
REMARK                         _______ _______ _______ _____ _____    ______ ____
ROOT
ATOM      1  C   UNL     1       6.668  14.386  21.266  0.00  0.00    +0.000 C 
ATOM      2  C   UNL     1       7.713  13.612  21.682  0.00  0.00    +0.000 C 
ATOM      3  C   UNL     1       8.864  13.200  20.805  0.00  0.00    +0.000 A 
ATOM      4  C   UNL     1       9.895  12.362  21.289  0.00  0.00    +0.000 A 
ATOM      5  C   UNL     1      11.019  12.034  20.515  0.00  0.00    +0.000 A 
ATOM      6  C   UNL     1      11.138  12.515  19.221  0.00  0.00    +0.000 A 
ATOM      7  C   UNL     1      10.136  13.327  18.712  0.00  0.00    +0.000 A 
ATOM      8  C   UNL     1       9.028  13.663  19.511  0.00  0.00    +0.000 A 
ATOM      9  S   UNL     1       7.864  14.751  18.833  0.00  0.00    +0.000 S 
ATOM     10  O   UNL     1       8.448  16.076  18.865  0.00  0.00    +0.000 OA
ATOM     11  O   UNL     1       7.406  14.166  17.592  0.00  0.00    +0.000 OA
ATOM     12  N   UNL     1       6.553  14.797  19.872  0.00  0.00    +0.000 N 
ENDROOT
BRANCH   2  13
ATOM     13  C   UNL     1       7.721  13.149  23.109  0.00  0.00    +0.000 A 
ATOM     14  C   UNL     1       7.090  11.953  23.482  0.00  0.00    +0.000 A 
ATOM     15  C   UNL     1       7.123  11.530  24.814  0.00  0.00    +0.000 A 
ATOM     16  C   UNL     1       7.785  12.291  25.777  0.00  0.00    +0.000 A 
ATOM     17  C   UNL     1       8.431  13.474  25.410  0.00  0.00    +0.000 A 
ATOM     18  C   UNL     1       8.406  13.896  24.079  0.00  0.00    +0.000 A 
ENDBRANCH   2  13
BRANCH   1  19
ATOM     19  C   UNL     1       5.589  14.816  22.262  0.00  0.00    +0.000 C 
ATOM     20  O   UNL     1       4.579  14.181  22.526  0.00  0.00    +0.000 OA
BRANCH  19  22
ATOM     21  C   UNL     1       5.442  16.153  24.198  0.00  0.00    +0.000 C 
ATOM     22  O   UNL     1       5.926  15.984  22.860  0.00  0.00    +0.000 OA
ENDBRANCH  19  22
ENDBRANCH   1  19
BRANCH  12  23
ATOM     23  C   UNL     1       5.484  15.699  19.349  0.00  0.00    +0.000 C 
BRANCH  23  24
ATOM     24  C   UNL     1       4.217  15.080  18.771  0.00  0.00    +0.000 C 
ATOM     25  O   UNL     1       3.983  15.173  17.564  0.00  0.00    +0.000 OA
ATOM     26  N   UNL     1       3.329  14.536  19.686  0.00  0.00    +0.000 N 
ATOM     27  H   UNL     1       3.372  14.927  20.629  0.00  0.00    +0.000 HD
BRANCH  26  28
ATOM     28  C   UNL     1       2.101  13.951  19.306  0.00  0.00    +0.000 A 
ATOM     29  C   UNL     1       1.005  14.789  19.102  0.00  0.00    +0.000 A 
ATOM     30  C   UNL     1      -0.220  14.256  18.689  0.00  0.00    +0.000 A 
ATOM     31  C   UNL     1      -0.378  12.875  18.545  0.00  0.00    +0.000 A 
ATOM     32  C   UNL     1       0.703  12.021  18.793  0.00  0.00    +0.000 A 
ATOM     33  C   UNL     1       1.950  12.566  19.149  0.00  0.00    +0.000 A 
BRANCH  32  34
ATOM     34  C   UNL     1       0.561  10.535  18.755  0.00  0.00    +0.000 C 
ATOM     35  C   UNL     1       1.547   9.690  17.985  0.00  0.00    +0.000 C 
ATOM     36  O   UNL     1      -0.379  10.005  19.348  0.00  0.00    +0.000 OA
ENDBRANCH  32  34
ENDBRANCH  26  28
ENDBRANCH  23  24
ENDBRANCH  12  23
TORSDOF 7
ENDMDL
MODEL 3
REMARK VINA RESULT:      -7.7      6.478      9.687
REMARK  Name = 
REMARK  9 active torsions:
REMARK  status: ('A' for Active; 'I' for Inactive)
REMARK    1  A    between atoms: C_1  and  O_2
REMARK    2  A    between atoms: O_2  and  C_3
REMARK    3  A    between atoms: C_3  and  C_5
REMARK    4  A    between atoms: C_6  and  C_7
REMARK    5  A    between atoms: N_22  and  C_23
REMARK    6  A    between atoms: C_23  and  C_24
REMARK    7  A    between atoms: N_26  and  C_27
REMARK    8  A    between atoms: C_31  and  C_32
REMARK    9  A    between atoms: C_32  and  C_33
REMARK                            x       y       z     vdW  Elec       q    Type
REMARK                         _______ _______ _______ _____ _____    ______ ____
ROOT
ATOM      1  C   UNL     1       4.618   4.824  18.295  0.00  0.00    +0.000 C 
ATOM      2  C   UNL     1       3.442   5.368  18.728  0.00  0.00    +0.000 C 
ATOM      3  C   UNL     1       3.013   6.785  18.457  0.00  0.00    +0.000 A 
ATOM      4  C   UNL     1       1.800   7.297  18.971  0.00  0.00    +0.000 A 
ATOM      5  C   UNL     1       1.341   8.587  18.661  0.00  0.00    +0.000 A 
ATOM      6  C   UNL     1       2.093   9.418  17.847  0.00  0.00    +0.000 A 
ATOM      7  C   UNL     1       3.297   8.950  17.340  0.00  0.00    +0.000 A 
ATOM      8  C   UNL     1       3.729   7.646  17.643  0.00  0.00    +0.000 A 
ATOM      9  S   UNL     1       5.198   7.107  16.902  0.00  0.00    +0.000 S 
ATOM     10  O   UNL     1       4.896   6.820  15.514  0.00  0.00    +0.000 OA
ATOM     11  O   UNL     1       6.229   8.054  17.262  0.00  0.00    +0.000 OA
ATOM     12  N   UNL     1       5.605   5.642  17.600  0.00  0.00    +0.000 N 
ENDROOT
BRANCH   2  13
ATOM     13  C   UNL     1       2.512   4.495  19.516  0.00  0.00    +0.000 A 
ATOM     14  C   UNL     1       2.656   4.357  20.905  0.00  0.00    +0.000 A 
ATOM     15  C   UNL     1       1.768   3.552  21.624  0.00  0.00    +0.000 A 
ATOM     16  C   UNL     1       0.734   2.884  20.967  0.00  0.00    +0.000 A 
ATOM     17  C   UNL     1       0.574   3.030  19.587  0.00  0.00    +0.000 A 
ATOM     18  C   UNL     1       1.455   3.840  18.867  0.00  0.00    +0.000 A 
ENDBRANCH   2  13
BRANCH   1  19
ATOM     19  C   UNL     1       4.920   3.348  18.555  0.00  0.00    +0.000 C 
ATOM     20  O   UNL     1       5.469   2.905  19.552  0.00  0.00    +0.000 OA
BRANCH  19  22
ATOM     21  C   UNL     1       3.748   1.395  17.946  0.00  0.00    +0.000 C 
ATOM     22  O   UNL     1       4.451   2.576  17.545  0.00  0.00    +0.000 OA
ENDBRANCH  19  22
ENDBRANCH   1  19
BRANCH  12  23
ATOM     23  C   UNL     1       6.881   5.113  17.032  0.00  0.00    +0.000 C 
BRANCH  23  24
ATOM     24  C   UNL     1       6.970   4.858  15.532  0.00  0.00    +0.000 C 
ATOM     25  O   UNL     1       7.806   5.461  14.855  0.00  0.00    +0.000 OA
ATOM     26  N   UNL     1       6.000   4.027  14.994  0.00  0.00    +0.000 N 
ATOM     27  H   UNL     1       5.120   3.985  15.509  0.00  0.00    +0.000 HD
BRANCH  26  28
ATOM     28  C   UNL     1       5.936   3.718  13.617  0.00  0.00    +0.000 A 
ATOM     29  C   UNL     1       7.133   3.572  12.916  0.00  0.00    +0.000 A 
ATOM     30  C   UNL     1       7.116   3.230  11.561  0.00  0.00    +0.000 A 
ATOM     31  C   UNL     1       5.904   3.101  10.878  0.00  0.00    +0.000 A 
ATOM     32  C   UNL     1       4.697   3.291  11.561  0.00  0.00    +0.000 A 
ATOM     33  C   UNL     1       4.717   3.576  12.939  0.00  0.00    +0.000 A 
BRANCH  32  34
ATOM     34  C   UNL     1       3.379   3.268  10.860  0.00  0.00    +0.000 C 
ATOM     35  C   UNL     1       3.089   4.236   9.738  0.00  0.00    +0.000 C 
ATOM     36  O   UNL     1       2.522   2.459  11.216  0.00  0.00    +0.000 OA
ENDBRANCH  32  34
ENDBRANCH  26  28
ENDBRANCH  23  24
ENDBRANCH  12  23
TORSDOF 7
ENDMDL
MODEL 4
REMARK VINA RESULT:      -7.7      6.347     10.201
REMARK  Name = 
REMARK  9 active torsions:
REMARK  status: ('A' for Active; 'I' for Inactive)
REMARK    1  A    between atoms: C_1  and  O_2
REMARK    2  A    between atoms: O_2  and  C_3
REMARK    3  A    between atoms: C_3  and  C_5
REMARK    4  A    between atoms: C_6  and  C_7
REMARK    5  A    between atoms: N_22  and  C_23
REMARK    6  A    between atoms: C_23  and  C_24
REMARK    7  A    between atoms: N_26  and  C_27
REMARK    8  A    between atoms: C_31  and  C_32
REMARK    9  A    between atoms: C_32  and  C_33
REMARK                            x       y       z     vdW  Elec       q    Type
REMARK                         _______ _______ _______ _____ _____    ______ ____
ROOT
ATOM      1  C   UNL     1       7.045  14.618  20.831  0.00  0.00    +0.000 C 
ATOM      2  C   UNL     1       8.033  13.813  21.324  0.00  0.00    +0.000 C 
ATOM      3  C   UNL     1       9.030  13.076  20.471  0.00  0.00    +0.000 A 
ATOM      4  C   UNL     1      10.003  12.226  21.045  0.00  0.00    +0.000 A 
ATOM      5  C   UNL     1      10.994  11.596  20.276  0.00  0.00    +0.000 A 
ATOM      6  C   UNL     1      11.030  11.776  18.902  0.00  0.00    +0.000 A 
ATOM      7  C   UNL     1      10.079  12.593  18.308  0.00  0.00    +0.000 A 
ATOM      8  C   UNL     1       9.108  13.234  19.098  0.00  0.00    +0.000 A 
ATOM      9  S   UNL     1       8.012  14.303  18.291  0.00  0.00    +0.000 S 
ATOM     10  O   UNL     1       8.744  15.516  17.985  0.00  0.00    +0.000 OA
ATOM     11  O   UNL     1       7.361  13.540  17.249  0.00  0.00    +0.000 OA
ATOM     12  N   UNL     1       6.832  14.741  19.394  0.00  0.00    +0.000 N 
ENDROOT
BRANCH   2  13
ATOM     13  C   UNL     1       8.138  13.661  22.812  0.00  0.00    +0.000 A 
ATOM     14  C   UNL     1       8.770  14.638  23.594  0.00  0.00    +0.000 A 
ATOM     15  C   UNL     1       8.843  14.485  24.982  0.00  0.00    +0.000 A 
ATOM     16  C   UNL     1       8.286  13.364  25.596  0.00  0.00    +0.000 A 
ATOM     17  C   UNL     1       7.639  12.394  24.825  0.00  0.00    +0.000 A 
ATOM     18  C   UNL     1       7.558  12.548  23.439  0.00  0.00    +0.000 A 
ENDBRANCH   2  13
BRANCH   1  19
ATOM     19  C   UNL     1       6.134  15.387  21.790  0.00  0.00    +0.000 C 
ATOM     20  O   UNL     1       6.338  16.519  22.201  0.00  0.00    +0.000 OA
BRANCH  19  22
ATOM     21  C   UNL     1       3.998  15.368  22.785  0.00  0.00    +0.000 C 
ATOM     22  O   UNL     1       5.032  14.660  22.093  0.00  0.00    +0.000 OA
ENDBRANCH  19  22
ENDBRANCH   1  19
BRANCH  12  23
ATOM     23  C   UNL     1       5.824  15.650  18.771  0.00  0.00    +0.000 C 
BRANCH  23  24
ATOM     24  C   UNL     1       4.474  15.077  18.355  0.00  0.00    +0.000 C 
ATOM     25  O   UNL     1       4.072  15.229  17.200  0.00  0.00    +0.000 OA
ATOM     26  N   UNL     1       3.715  14.507  19.364  0.00  0.00    +0.000 N 
ATOM     27  H   UNL     1       3.900  14.854  20.307  0.00  0.00    +0.000 HD
BRANCH  26  28
ATOM     28  C   UNL     1       2.432  13.957  19.140  0.00  0.00    +0.000 A 
ATOM     29  C   UNL     1       1.336  14.820  19.136  0.00  0.00    +0.000 A 
ATOM     30  C   UNL     1       0.054  14.326  18.881  0.00  0.00    +0.000 A 
ATOM     31  C   UNL     1      -0.153  12.956  18.698  0.00  0.00    +0.000 A 
ATOM     32  C   UNL     1       0.934  12.076  18.746  0.00  0.00    +0.000 A 
ATOM     33  C   UNL     1       2.231  12.585  18.943  0.00  0.00    +0.000 A 
BRANCH  32  34
ATOM     34  C   UNL     1       0.757  10.595  18.661  0.00  0.00    +0.000 C 
ATOM     35  C   UNL     1       1.800   9.735  17.988  0.00  0.00    +0.000 C 
ATOM     36  O   UNL     1      -0.258  10.082  19.133  0.00  0.00    +0.000 OA
ENDBRANCH  32  34
ENDBRANCH  26  28
ENDBRANCH  23  24
ENDBRANCH  12  23
TORSDOF 7
ENDMDL
MODEL 5
REMARK VINA RESULT:      -7.7      6.415     10.265
REMARK  Name = 
REMARK  9 active torsions:
REMARK  status: ('A' for Active; 'I' for Inactive)
REMARK    1  A    between atoms: C_1  and  O_2
REMARK    2  A    between atoms: O_2  and  C_3
REMARK    3  A    between atoms: C_3  and  C_5
REMARK    4  A    between atoms: C_6  and  C_7
REMARK    5  A    between atoms: N_22  and  C_23
REMARK    6  A    between atoms: C_23  and  C_24
REMARK    7  A    between atoms: N_26  and  C_27
REMARK    8  A    between atoms: C_31  and  C_32
REMARK    9  A    between atoms: C_32  and  C_33
REMARK                            x       y       z     vdW  Elec       q    Type
REMARK                         _______ _______ _______ _____ _____    ______ ____
ROOT
ATOM      1  C   UNL     1       6.848  14.466  21.190  0.00  0.00    +0.000 C 
ATOM      2  C   UNL     1       7.872  13.655  21.589  0.00  0.00    +0.000 C 
ATOM      3  C   UNL     1       8.989  13.196  20.690  0.00  0.00    +0.000 A 
ATOM      4  C   UNL     1       9.997  12.321  21.158  0.00  0.00    +0.000 A 
ATOM      5  C   UNL     1      11.091  11.948  20.363  0.00  0.00    +0.000 A 
ATOM      6  C   UNL     1      11.202  12.418  19.064  0.00  0.00    +0.000 A 
ATOM      7  C   UNL     1      10.221  13.265  18.571  0.00  0.00    +0.000 A 
ATOM      8  C   UNL     1       9.143  13.646  19.391  0.00  0.00    +0.000 A 
ATOM      9  S   UNL     1       8.008  14.775  18.731  0.00  0.00    +0.000 S 
ATOM     10  O   UNL     1       8.642  16.077  18.745  0.00  0.00    +0.000 OA
ATOM     11  O   UNL     1       7.502  14.201  17.503  0.00  0.00    +0.000 OA
ATOM     12  N   UNL     1       6.721  14.875  19.796  0.00  0.00    +0.000 N 
ENDROOT
BRANCH   2  13
ATOM     13  C   UNL     1       7.892  13.198  23.017  0.00  0.00    +0.000 A 
ATOM     14  C   UNL     1       8.506  13.972  24.013  0.00  0.00    +0.000 A 
ATOM     15  C   UNL     1       8.498  13.537  25.342  0.00  0.00    +0.000 A 
ATOM     16  C   UNL     1       7.879  12.335  25.685  0.00  0.00    +0.000 A 
ATOM     17  C   UNL     1       7.249  11.567  24.702  0.00  0.00    +0.000 A 
ATOM     18  C   UNL     1       7.249  12.003  23.374  0.00  0.00    +0.000 A 
ENDBRANCH   2  13
BRANCH   1  19
ATOM     19  C   UNL     1       5.808  14.941  22.206  0.00  0.00    +0.000 C 
ATOM     20  O   UNL     1       4.772  14.355  22.481  0.00  0.00    +0.000 OA
BRANCH  19  22
ATOM     21  C   UNL     1       5.495  16.444  23.994  0.00  0.00    +0.000 C 
ATOM     22  O   UNL     1       6.209  16.088  22.805  0.00  0.00    +0.000 OA
ENDBRANCH  19  22
ENDBRANCH   1  19
BRANCH  12  23
ATOM     23  C   UNL     1       5.676  15.814  19.290  0.00  0.00    +0.000 C 
BRANCH  23  24
ATOM     24  C   UNL     1       4.381  15.241  18.728  0.00  0.00    +0.000 C 
ATOM     25  O   UNL     1       4.168  15.277  17.514  0.00  0.00    +0.000 OA
ATOM     26  N   UNL     1       3.450  14.806  19.659  0.00  0.00    +0.000 N 
ATOM     27  H   UNL     1       3.505  15.248  20.578  0.00  0.00    +0.000 HD
BRANCH  26  28
ATOM     28  C   UNL     1       2.193  14.275  19.293  0.00  0.00    +0.000 A 
ATOM     29  C   UNL     1       1.127  15.158  19.124  0.00  0.00    +0.000 A 
ATOM     30  C   UNL     1      -0.125  14.680  18.726  0.00  0.00    +0.000 A 
ATOM     31  C   UNL     1      -0.340  13.309  18.562  0.00  0.00    +0.000 A 
ATOM     32  C   UNL     1       0.712  12.410  18.775  0.00  0.00    +0.000 A 
ATOM     33  C   UNL     1       1.986  12.900  19.115  0.00  0.00    +0.000 A 
BRANCH  32  34
ATOM     34  C   UNL     1       0.512  10.931  18.715  0.00  0.00    +0.000 C 
ATOM     35  C   UNL     1      -0.803  10.317  19.132  0.00  0.00    +0.000 C 
ATOM     36  O   UNL     1       1.439  10.213  18.336  0.00  0.00    +0.000 OA
ENDBRANCH  32  34
ENDBRANCH  26  28
ENDBRANCH  23  24
ENDBRANCH  12  23
TORSDOF 7
ENDMDL
MODEL 6
REMARK VINA RESULT:      -7.6      6.426     10.270
REMARK  Name = 
REMARK  9 active torsions:
REMARK  status: ('A' for Active; 'I' for Inactive)
REMARK    1  A    between atoms: C_1  and  O_2
REMARK    2  A    between atoms: O_2  and  C_3
REMARK    3  A    between atoms: C_3  and  C_5
REMARK    4  A    between atoms: C_6  and  C_7
REMARK    5  A    between atoms: N_22  and  C_23
REMARK    6  A    between atoms: C_23  and  C_24
REMARK    7  A    between atoms: N_26  and  C_27
REMARK    8  A    between atoms: C_31  and  C_32
REMARK    9  A    between atoms: C_32  and  C_33
REMARK                            x       y       z     vdW  Elec       q    Type
REMARK                         _______ _______ _______ _____ _____    ______ ____
ROOT
ATOM      1  C   UNL     1       7.082  14.921  20.805  0.00  0.00    +0.000 C 
ATOM      2  C   UNL     1       8.064  14.134  21.335  0.00  0.00    +0.000 C 
ATOM      3  C   UNL     1       9.011  13.296  20.519  0.00  0.00    +0.000 A 
ATOM      4  C   UNL     1       9.980  12.471  21.134  0.00  0.00    +0.000 A 
ATOM      5  C   UNL     1      10.927  11.746  20.393  0.00  0.00    +0.000 A 
ATOM      6  C   UNL     1      10.920  11.804  19.009  0.00  0.00    +0.000 A 
ATOM      7  C   UNL     1       9.972  12.593  18.375  0.00  0.00    +0.000 A 
ATOM      8  C   UNL     1       9.046  13.329  19.136  0.00  0.00    +0.000 A 
ATOM      9  S   UNL     1       7.952  14.356  18.272  0.00  0.00    +0.000 S 
ATOM     10  O   UNL     1       8.705  15.515  17.837  0.00  0.00    +0.000 OA
ATOM     11  O   UNL     1       7.245  13.524  17.324  0.00  0.00    +0.000 OA
ATOM     12  N   UNL     1       6.823  14.924  19.370  0.00  0.00    +0.000 N 
ENDROOT
BRANCH   2  13
ATOM     13  C   UNL     1       8.217  14.109  22.826  0.00  0.00    +0.000 A 
ATOM     14  C   UNL     1       7.606  13.109  23.597  0.00  0.00    +0.000 A 
ATOM     15  C   UNL     1       7.775  13.093  24.985  0.00  0.00    +0.000 A 
ATOM     16  C   UNL     1       8.552  14.069  25.610  0.00  0.00    +0.000 A 
ATOM     17  C   UNL     1       9.177  15.059  24.848  0.00  0.00    +0.000 A 
ATOM     18  C   UNL     1       9.016  15.072  23.460  0.00  0.00    +0.000 A 
ENDBRANCH   2  13
BRANCH   1  19
ATOM     19  C   UNL     1       6.226  15.798  21.720  0.00  0.00    +0.000 C 
ATOM     20  O   UNL     1       6.489  16.946  22.045  0.00  0.00    +0.000 OA
BRANCH  19  22
ATOM     21  C   UNL     1       4.646  15.410  23.425  0.00  0.00    +0.000 C 
ATOM     22  O   UNL     1       5.098  15.147  22.092  0.00  0.00    +0.000 OA
ENDBRANCH  19  22
ENDBRANCH   1  19
BRANCH  12  23
ATOM     23  C   UNL     1       5.819  15.804  18.701  0.00  0.00    +0.000 C 
BRANCH  23  24
ATOM     24  C   UNL     1       4.470  15.215  18.305  0.00  0.00    +0.000 C 
ATOM     25  O   UNL     1       4.092  15.278  17.134  0.00  0.00    +0.000 OA
ATOM     26  N   UNL     1       3.686  14.732  19.341  0.00  0.00    +0.000 N 
ATOM     27  H   UNL     1       3.857  15.151  20.257  0.00  0.00    +0.000 HD
BRANCH  26  28
ATOM     28  C   UNL     1       2.401  14.180  19.135  0.00  0.00    +0.000 A 
ATOM     29  C   UNL     1       1.306  15.044  19.121  0.00  0.00    +0.000 A 
ATOM     30  C   UNL     1       0.022  14.545  18.883  0.00  0.00    +0.000 A 
ATOM     31  C   UNL     1      -0.187  13.172  18.729  0.00  0.00    +0.000 A 
ATOM     32  C   UNL     1       0.899  12.292  18.788  0.00  0.00    +0.000 A 
ATOM     33  C   UNL     1       2.198  12.804  18.966  0.00  0.00    +0.000 A 
BRANCH  32  34
ATOM     34  C   UNL     1       0.721  10.810  18.733  0.00  0.00    +0.000 C 
ATOM     35  C   UNL     1      -0.453  10.153  19.417  0.00  0.00    +0.000 C 
ATOM     36  O   UNL     1       1.553  10.126  18.136  0.00  0.00    +0.000 OA
ENDBRANCH  32  34
ENDBRANCH  26  28
ENDBRANCH  23  24
ENDBRANCH  12  23
TORSDOF 7
ENDMDL
MODEL 7
REMARK VINA RESULT:      -7.5      1.584      4.163
REMARK  Name = 
REMARK  9 active torsions:
REMARK  status: ('A' for Active; 'I' for Inactive)
REMARK    1  A    between atoms: C_1  and  O_2
REMARK    2  A    between atoms: O_2  and  C_3
REMARK    3  A    between atoms: C_3  and  C_5
REMARK    4  A    between atoms: C_6  and  C_7
REMARK    5  A    between atoms: N_22  and  C_23
REMARK    6  A    between atoms: C_23  and  C_24
REMARK    7  A    between atoms: N_26  and  C_27
REMARK    8  A    between atoms: C_31  and  C_32
REMARK    9  A    between atoms: C_32  and  C_33
REMARK                            x       y       z     vdW  Elec       q    Type
REMARK                         _______ _______ _______ _____ _____    ______ ____
ROOT
ATOM      1  C   UNL     1      -2.167  11.721  19.047  0.00  0.00    +0.000 C 
ATOM      2  C   UNL     1      -3.261  12.068  19.788  0.00  0.00    +0.000 C 
ATOM      3  C   UNL     1      -3.205  12.508  21.227  0.00  0.00    +0.000 A 
ATOM      4  C   UNL     1      -4.381  12.814  21.948  0.00  0.00    +0.000 A 
ATOM      5  C   UNL     1      -4.347  13.306  23.262  0.00  0.00    +0.000 A 
ATOM      6  C   UNL     1      -3.134  13.486  23.908  0.00  0.00    +0.000 A 
ATOM      7  C   UNL     1      -1.962  13.180  23.231  0.00  0.00    +0.000 A 
ATOM      8  C   UNL     1      -2.016  12.710  21.907  0.00  0.00    +0.000 A 
ATOM      9  S   UNL     1      -0.508  12.433  21.103  0.00  0.00    +0.000 S 
ATOM     10  O   UNL     1       0.034  13.730  20.753  0.00  0.00    +0.000 OA
ATOM     11  O   UNL     1       0.244  11.503  21.916  0.00  0.00    +0.000 OA
ATOM     12  N   UNL     1      -0.843  11.665  19.655  0.00  0.00    +0.000 N 
ENDROOT
BRANCH   2  13
ATOM     13  C   UNL     1      -4.604  12.016  19.125  0.00  0.00    +0.000 A 
ATOM     14  C   UNL     1      -5.314  10.810  19.026  0.00  0.00    +0.000 A 
ATOM     15  C   UNL     1      -6.573  10.786  18.420  0.00  0.00    +0.000 A 
ATOM     16  C   UNL     1      -7.132  11.959  17.912  0.00  0.00    +0.000 A 
ATOM     17  C   UNL     1      -6.439  13.168  18.022  0.00  0.00    +0.000 A 
ATOM     18  C   UNL     1      -5.184  13.196  18.634  0.00  0.00    +0.000 A 
ENDBRANCH   2  13
BRANCH   1  19
ATOM     19  C   UNL     1      -2.326  11.366  17.568  0.00  0.00    +0.000 C 
ATOM     20  O   UNL     1      -2.149  12.135  16.635  0.00  0.00    +0.000 OA
BRANCH  19  22
ATOM     21  C   UNL     1      -2.879   9.631  16.072  0.00  0.00    +0.000 C 
ATOM     22  O   UNL     1      -2.647  10.059  17.419  0.00  0.00    +0.000 OA
ENDBRANCH  19  22
ENDBRANCH   1  19
BRANCH  12  23
ATOM     23  C   UNL     1       0.412  11.365  18.903  0.00  0.00    +0.000 C 
BRANCH  23  24
ATOM     24  C   UNL     1       0.802   9.909  18.672  0.00  0.00    +0.000 C 
ATOM     25  O   UNL     1       0.482   9.346  17.623  0.00  0.00    +0.000 OA
ATOM     26  N   UNL     1       1.409   9.263  19.737  0.00  0.00    +0.000 N 
ATOM     27  H   UNL     1       1.191   9.635  20.662  0.00  0.00    +0.000 HD
BRANCH  26  28
ATOM     28  C   UNL     1       1.804   7.907  19.684  0.00  0.00    +0.000 A 
ATOM     29  C   UNL     1       1.446   7.073  20.744  0.00  0.00    +0.000 A 
ATOM     30  C   UNL     1       1.783   5.717  20.715  0.00  0.00    +0.000 A 
ATOM     31  C   UNL     1       2.542   5.199  19.663  0.00  0.00    +0.000 A 
ATOM     32  C   UNL     1       2.947   6.037  18.618  0.00  0.00    +0.000 A 
ATOM     33  C   UNL     1       2.553   7.388  18.620  0.00  0.00    +0.000 A 
BRANCH  32  34
ATOM     34  C   UNL     1       3.844   5.560  17.523  0.00  0.00    +0.000 C 
ATOM     35  C   UNL     1       4.827   6.503  16.871  0.00  0.00    +0.000 C 
ATOM     36  O   UNL     1       3.764   4.390  17.146  0.00  0.00    +0.000 OA
ENDBRANCH  32  34
ENDBRANCH  26  28
ENDBRANCH  23  24
ENDBRANCH  12  23
TORSDOF 7
ENDMDL
MODEL 8
REMARK VINA RESULT:      -7.4      1.184      1.739
REMARK  Name = 
REMARK  9 active torsions:
REMARK  status: ('A' for Active; 'I' for Inactive)
REMARK    1  A    between atoms: C_1  and  O_2
REMARK    2  A    between atoms: O_2  and  C_3
REMARK    3  A    between atoms: C_3  and  C_5
REMARK    4  A    between atoms: C_6  and  C_7
REMARK    5  A    between atoms: N_22  and  C_23
REMARK    6  A    between atoms: C_23  and  C_24
REMARK    7  A    between atoms: N_26  and  C_27
REMARK    8  A    between atoms: C_31  and  C_32
REMARK    9  A    between atoms: C_32  and  C_33
REMARK                            x       y       z     vdW  Elec       q    Type
REMARK                         _______ _______ _______ _____ _____    ______ ____
ROOT
ATOM      1  C   UNL     1      -1.282  12.274  20.189  0.00  0.00    +0.000 C 
ATOM      2  C   UNL     1      -2.596  12.472  20.504  0.00  0.00    +0.000 C 
ATOM      3  C   UNL     1      -3.746  12.138  19.593  0.00  0.00    +0.000 A 
ATOM      4  C   UNL     1      -5.083  12.407  19.966  0.00  0.00    +0.000 A 
ATOM      5  C   UNL     1      -6.174  12.028  19.169  0.00  0.00    +0.000 A 
ATOM      6  C   UNL     1      -5.963  11.386  17.959  0.00  0.00    +0.000 A 
ATOM      7  C   UNL     1      -4.662  11.122  17.558  0.00  0.00    +0.000 A 
ATOM      8  C   UNL     1      -3.583  11.489  18.381  0.00  0.00    +0.000 A 
ATOM      9  S   UNL     1      -1.995  11.046  17.850  0.00  0.00    +0.000 S 
ATOM     10  O   UNL     1      -1.849   9.623  18.080  0.00  0.00    +0.000 OA
ATOM     11  O   UNL     1      -1.813  11.613  16.532  0.00  0.00    +0.000 OA
ATOM     12  N   UNL     1      -0.897  11.795  18.866  0.00  0.00    +0.000 N 
ENDROOT
BRANCH   2  13
ATOM     13  C   UNL     1      -2.916  13.053  21.849  0.00  0.00    +0.000 A 
ATOM     14  C   UNL     1      -3.132  12.224  22.960  0.00  0.00    +0.000 A 
ATOM     15  C   UNL     1      -3.412  12.785  24.209  0.00  0.00    +0.000 A 
ATOM     16  C   UNL     1      -3.476  14.170  24.359  0.00  0.00    +0.000 A 
ATOM     17  C   UNL     1      -3.246  15.004  23.262  0.00  0.00    +0.000 A 
ATOM     18  C   UNL     1      -2.958  14.445  22.014  0.00  0.00    +0.000 A 
ENDBRANCH   2  13
BRANCH   1  19
ATOM     19  C   UNL     1      -0.193  12.572  21.221  0.00  0.00    +0.000 C 
ATOM     20  O   UNL     1       0.254  11.770  22.026  0.00  0.00    +0.000 OA
BRANCH  19  22
ATOM     21  C   UNL     1       1.603  13.984  20.642  0.00  0.00    +0.000 C 
ATOM     22  O   UNL     1       0.252  13.845  21.095  0.00  0.00    +0.000 OA
ENDBRANCH  19  22
ENDBRANCH   1  19
BRANCH  12  23
ATOM     23  C   UNL     1       0.507  11.485  18.463  0.00  0.00    +0.000 C 
BRANCH  23  24
ATOM     24  C   UNL     1       1.058  10.090  18.732  0.00  0.00    +0.000 C 
ATOM     25  O   UNL     1       0.875   9.558  19.830  0.00  0.00    +0.000 OA
ATOM     26  N   UNL     1       1.850   9.542  17.736  0.00  0.00    +0.000 N 
ATOM     27  H   UNL     1       2.321  10.213  17.127  0.00  0.00    +0.000 HD
BRANCH  26  28
ATOM     28  C   UNL     1       2.453   8.269  17.851  0.00  0.00    +0.000 A 
ATOM     29  C   UNL     1       3.710   8.080  17.276  0.00  0.00    +0.000 A 
ATOM     30  C   UNL     1       4.360   6.848  17.398  0.00  0.00    +0.000 A 
ATOM     31  C   UNL     1       3.729   5.775  18.032  0.00  0.00    +0.000 A 
ATOM     32  C   UNL     1       2.448   5.941  18.571  0.00  0.00    +0.000 A 
ATOM     33  C   UNL     1       1.823   7.200  18.501  0.00  0.00    +0.000 A 
BRANCH  32  34
ATOM     34  C   UNL     1       1.687   4.802  19.167  0.00  0.00    +0.000 C 
ATOM     35  C   UNL     1       1.633   4.616  20.665  0.00  0.00    +0.000 C 
ATOM     36  O   UNL     1       1.116   4.005  18.423  0.00  0.00    +0.000 OA
ENDBRANCH  32  34
ENDBRANCH  26  28
ENDBRANCH  23  24
ENDBRANCH  12  23
TORSDOF 7
ENDMDL
MODEL 9
REMARK VINA RESULT:      -7.4      1.316      1.984
REMARK  Name = 
REMARK  9 active torsions:
REMARK  status: ('A' for Active; 'I' for Inactive)
REMARK    1  A    between atoms: C_1  and  O_2
REMARK    2  A    between atoms: O_2  and  C_3
REMARK    3  A    between atoms: C_3  and  C_5
REMARK    4  A    between atoms: C_6  and  C_7
REMARK    5  A    between atoms: N_22  and  C_23
REMARK    6  A    between atoms: C_23  and  C_24
REMARK    7  A    between atoms: N_26  and  C_27
REMARK    8  A    between atoms: C_31  and  C_32
REMARK    9  A    between atoms: C_32  and  C_33
REMARK                            x       y       z     vdW  Elec       q    Type
REMARK                         _______ _______ _______ _____ _____    ______ ____
ROOT
ATOM      1  C   UNL     1      -1.534  12.611  20.276  0.00  0.00    +0.000 C 
ATOM      2  C   UNL     1      -2.861  12.720  20.577  0.00  0.00    +0.000 C 
ATOM      3  C   UNL     1      -3.975  12.234  19.688  0.00  0.00    +0.000 A 
ATOM      4  C   UNL     1      -5.331  12.415  20.043  0.00  0.00    +0.000 A 
ATOM      5  C   UNL     1      -6.383  11.897  19.271  0.00  0.00    +0.000 A 
ATOM      6  C   UNL     1      -6.113  11.199  18.105  0.00  0.00    +0.000 A 
ATOM      7  C   UNL     1      -4.792  11.017  17.722  0.00  0.00    +0.000 A 
ATOM      8  C   UNL     1      -3.751  11.525  18.521  0.00  0.00    +0.000 A 
ATOM      9  S   UNL     1      -2.130  11.181  18.020  0.00  0.00    +0.000 S 
ATOM     10  O   UNL     1      -1.868   9.793  18.342  0.00  0.00    +0.000 OA
ATOM     11  O   UNL     1      -1.988  11.675  16.668  0.00  0.00    +0.000 OA
ATOM     12  N   UNL     1      -1.103  12.082  18.987  0.00  0.00    +0.000 N 
ENDROOT
BRANCH   2  13
ATOM     13  C   UNL     1      -3.236  13.357  21.882  0.00  0.00    +0.000 A 
ATOM     14  C   UNL     1      -3.436  14.742  21.977  0.00  0.00    +0.000 A 
ATOM     15  C   UNL     1      -3.802  15.315  23.198  0.00  0.00    +0.000 A 
ATOM     16  C   UNL     1      -3.973  14.514  24.327  0.00  0.00    +0.000 A 
ATOM     17  C   UNL     1      -3.792  13.131  24.237  0.00  0.00    +0.000 A 
ATOM     18  C   UNL     1      -3.434  12.555  23.016  0.00  0.00    +0.000 A 
ENDBRANCH   2  13
BRANCH   1  19
ATOM     19  C   UNL     1      -0.479  13.064  21.287  0.00  0.00    +0.000 C 
ATOM     20  O   UNL     1      -0.022  12.375  22.186  0.00  0.00    +0.000 OA
BRANCH  19  22
ATOM     21  C   UNL     1       0.465  15.047  22.141  0.00  0.00    +0.000 C 
ATOM     22  O   UNL     1      -0.075  14.330  21.025  0.00  0.00    +0.000 OA
ENDBRANCH  19  22
ENDBRANCH   1  19
BRANCH  12  23
ATOM     23  C   UNL     1       0.324  11.863  18.605  0.00  0.00    +0.000 C 
BRANCH  23  24
ATOM     24  C   UNL     1       0.991  10.544  18.977  0.00  0.00    +0.000 C 
ATOM     25  O   UNL     1       1.108  10.228  20.163  0.00  0.00    +0.000 OA
ATOM     26  N   UNL     1       1.541   9.820  17.931  0.00  0.00    +0.000 N 
ATOM     27  H   UNL     1       1.815  10.365  17.112  0.00  0.00    +0.000 HD
BRANCH  26  28
ATOM     28  C   UNL     1       2.214   8.592  18.121  0.00  0.00    +0.000 A 
ATOM     29  C   UNL     1       3.256   8.270  17.251  0.00  0.00    +0.000 A 
ATOM     30  C   UNL     1       3.974   7.083  17.426  0.00  0.00    +0.000 A 
ATOM     31  C   UNL     1       3.611   6.177  18.425  0.00  0.00    +0.000 A 
ATOM     32  C   UNL     1       2.537   6.469  19.273  0.00  0.00    +0.000 A 
ATOM     33  C   UNL     1       1.856   7.692  19.133  0.00  0.00    +0.000 A 
BRANCH  32  34
ATOM     34  C   UNL     1       2.041   5.491  20.288  0.00  0.00    +0.000 C 
ATOM     35  C   UNL     1       2.793   4.209  20.549  0.00  0.00    +0.000 C 
ATOM     36  O   UNL     1       1.001   5.736  20.900  0.00  0.00    +0.000 OA
ENDBRANCH  32  34
ENDBRANCH  26  28
ENDBRANCH  23  24
ENDBRANCH  12  23
TORSDOF 7
ENDMDL
