MODEL 1
REMARK VINA RESULT:      -9.2      0.000      0.000
REMARK  Name = 
REMARK  5 active torsions:
REMARK  status: ('A' for Active; 'I' for Inactive)
REMARK    1  A    between atoms: C_2  and  C_3
REMARK    2  A    between atoms: C_3  and  C_4
REMARK    3  A    between atoms: C_3  and  C_13
REMARK    4  A    between atoms: N_18  and  C_19
REMARK    5  A    between atoms: C_19  and  C_20
REMARK                            x       y       z     vdW  Elec       q    Type
REMARK                         _______ _______ _______ _____ _____    ______ ____
ROOT
ATOM      1  C   UNL     1       1.082   9.748  19.728  0.00  0.00    +0.000 A 
ATOM      2  C   UNL     1       0.951   9.059  20.855  0.00  0.00    +0.000 A 
ATOM      3 CL   UNL     1       0.161   9.658  22.243  0.00  0.00    +0.000 Cl
ATOM      4  C   UNL     1       1.554   7.744  20.883  0.00  0.00    +0.000 A 
ATOM      5  N   UNL     1       2.180   7.180  19.903  0.00  0.00    +0.000 NA
ATOM      6  N   UNL     1       2.276   7.887  18.730  0.00  0.00    +0.000 N 
ATOM      7  C   UNL     1       1.751   9.139  18.580  0.00  0.00    +0.000 A 
ATOM      8  O   UNL     1       1.781   9.817  17.574  0.00  0.00    +0.000 OA
ENDROOT
BRANCH   1   9
ATOM      9  C   UNL     1       0.612  11.161  19.682  0.00  0.00    +0.000 C 
BRANCH   9  10
ATOM     10  C   UNL     1      -0.749  11.328  19.030  0.00  0.00    +0.000 A 
ATOM     11  N   UNL     1      -1.024  10.872  17.831  0.00  0.00    +0.000 NA
ATOM     12  C   UNL     1      -2.344  11.075  17.547  0.00  0.00    +0.000 A 
ATOM     13  C   UNL     1      -2.965  10.734  16.349  0.00  0.00    +0.000 A 
ATOM     14  C   UNL     1      -4.317  10.988  16.179  0.00  0.00    +0.000 A 
ATOM     15  C   UNL     1      -5.053  11.571  17.172  0.00  0.00    +0.000 A 
ATOM     16  C   UNL     1      -4.456  11.928  18.369  0.00  0.00    +0.000 A 
ATOM     17  C   UNL     1      -3.101  11.679  18.542  0.00  0.00    +0.000 A 
ATOM     18  S   UNL     1      -2.105  12.057  19.881  0.00  0.00    +0.000 S 
ENDBRANCH   9  10
BRANCH   9  20
ATOM     19  N   UNL     1       2.487  12.653  18.270  0.00  0.00    +0.000 NA
ATOM     20  C   UNL     1       1.637  11.976  18.910  0.00  0.00    +0.000 C 
ENDBRANCH   9  20
ENDBRANCH   1   9
BRANCH   6  21
ATOM     21  C   UNL     1       2.986   7.290  17.585  0.00  0.00    +0.000 C 
BRANCH  21  22
ATOM     22  C   UNL     1       3.759   6.059  17.938  0.00  0.00    +0.000 A 
ATOM     23  C   UNL     1       5.114   6.138  18.206  0.00  0.00    +0.000 A 
ATOM     24  C   UNL     1       5.797   5.048  18.684  0.00  0.00    +0.000 A 
ATOM     25  C   UNL     1       5.153   3.891  18.938  0.00  0.00    +0.000 A 
ATOM     26  C   UNL     1       3.879   3.816  18.601  0.00  0.00    +0.000 A 
ATOM     27  C   UNL     1       3.373   2.540  18.841  0.00  0.00    +0.000 A 
ATOM     28  C   UNL     1       1.876   2.445  18.784  0.00  0.00    +0.000 A 
ATOM     29  C   UNL     1       0.642   2.335  18.745  0.00  0.00    +0.000 A 
ATOM     30  C   UNL     1       1.510   3.949  18.263  0.00  0.00    +0.000 A 
ATOM     31  C   UNL     1       3.074   4.750  18.187  0.00  0.00    +0.000 A 
ENDBRANCH  21  22
ENDBRANCH   6  21
TORSDOF 5
ENDMDL
MODEL 2
REMARK VINA RESULT:      -8.9      1.246      2.370
REMARK  Name = 
REMARK  5 active torsions:
REMARK  status: ('A' for Active; 'I' for Inactive)
REMARK    1  A    between atoms: C_2  and  C_3
REMARK    2  A    between atoms: C_3  and  C_4
REMARK    3  A    between atoms: C_3  and  C_13
REMARK    4  A    between atoms: N_18  and  C_19
REMARK    5  A    between atoms: C_19  and  C_20
REMARK                            x       y       z     vdW  Elec       q    Type
REMARK                         _______ _______ _______ _____ _____    ______ ____
ROOT
ATOM      1  C   UNL     1       0.774   9.720  20.184  0.00  0.00    +0.000 A 
ATOM      2  C   UNL     1       0.633   8.916  21.230  0.00  0.00    +0.000 A 
ATOM      3 CL   UNL     1      -0.272   9.320  22.618  0.00  0.00    +0.000 Cl
ATOM      4  C   UNL     1       1.330   7.649  21.170  0.00  0.00    +0.000 A 
ATOM      5  N   UNL     1       2.047   7.229  20.181  0.00  0.00    +0.000 NA
ATOM      6  N   UNL     1       2.155   8.053  19.089  0.00  0.00    +0.000 N 
ATOM      7  C   UNL     1       1.547   9.275  19.026  0.00  0.00    +0.000 A 
ATOM      8  O   UNL     1       1.582  10.050  18.093  0.00  0.00    +0.000 OA
ENDROOT
BRANCH   1   9
ATOM      9  C   UNL     1       0.205  11.096  20.243  0.00  0.00    +0.000 C 
BRANCH   9  10
ATOM     10  C   UNL     1      -1.038  11.277  19.390  0.00  0.00    +0.000 A 
ATOM     11  N   UNL     1      -1.181  10.714  18.214  0.00  0.00    +0.000 NA
ATOM     12  C   UNL     1      -2.430  10.967  17.724  0.00  0.00    +0.000 A 
ATOM     13  C   UNL     1      -2.906  10.539  16.489  0.00  0.00    +0.000 A 
ATOM     14  C   UNL     1      -4.200  10.857  16.102  0.00  0.00    +0.000 A 
ATOM     15  C   UNL     1      -5.017  11.587  16.918  0.00  0.00    +0.000 A 
ATOM     16  C   UNL     1      -4.563  12.032  18.149  0.00  0.00    +0.000 A 
ATOM     17  C   UNL     1      -3.267  11.719  18.537  0.00  0.00    +0.000 A 
ATOM     18  S   UNL     1      -2.437  12.175  19.962  0.00  0.00    +0.000 S 
ENDBRANCH   9  10
BRANCH   9  20
ATOM     19  N   UNL     1       2.160  12.882  19.393  0.00  0.00    +0.000 NA
ATOM     20  C   UNL     1       1.273  12.072  19.779  0.00  0.00    +0.000 C 
ENDBRANCH   9  20
ENDBRANCH   1   9
BRANCH   6  21
ATOM     21  C   UNL     1       2.967   7.622  17.938  0.00  0.00    +0.000 C 
BRANCH  21  22
ATOM     22  C   UNL     1       3.046   6.136  17.785  0.00  0.00    +0.000 A 
ATOM     23  C   UNL     1       1.961   5.342  18.109  0.00  0.00    +0.000 A 
ATOM     24  C   UNL     1       1.966   4.000  17.823  0.00  0.00    +0.000 A 
ATOM     25  C   UNL     1       3.013   3.438  17.186  0.00  0.00    +0.000 A 
ATOM     26  C   UNL     1       4.068   4.197  16.958  0.00  0.00    +0.000 A 
ATOM     27  C   UNL     1       5.097   3.461  16.375  0.00  0.00    +0.000 A 
ATOM     28  C   UNL     1       6.206   4.293  15.800  0.00  0.00    +0.000 A 
ATOM     29  C   UNL     1       7.137   4.953  15.315  0.00  0.00    +0.000 A 
ATOM     30  C   UNL     1       5.748   5.777  16.307  0.00  0.00    +0.000 A 
ATOM     31  C   UNL     1       4.216   5.480  17.117  0.00  0.00    +0.000 A 
ENDBRANCH  21  22
ENDBRANCH   6  21
TORSDOF 5
ENDMDL
MODEL 3
REMARK VINA RESULT:      -8.8      0.776      1.182
REMARK  Name = 
REMARK  5 active torsions:
REMARK  status: ('A' for Active; 'I' for Inactive)
REMARK    1  A    between atoms: C_2  and  C_3
REMARK    2  A    between atoms: C_3  and  C_4
REMARK    3  A    between atoms: C_3  and  C_13
REMARK    4  A    between atoms: N_18  and  C_19
REMARK    5  A    between atoms: C_19  and  C_20
REMARK                            x       y       z     vdW  Elec       q    Type
REMARK                         _______ _______ _______ _____ _____    ______ ____
ROOT
ATOM      1  C   UNL     1       0.961   9.638  19.764  0.00  0.00    +0.000 A 
ATOM      2  C   UNL     1       0.874   8.917  20.875  0.00  0.00    +0.000 A 
ATOM      3 CL   UNL     1       0.051   9.434  22.276  0.00  0.00    +0.000 Cl
ATOM      4  C   UNL     1       1.558   7.642  20.873  0.00  0.00    +0.000 A 
ATOM      5  N   UNL     1       2.216   7.140  19.880  0.00  0.00    +0.000 NA
ATOM      6  N   UNL     1       2.267   7.878  18.724  0.00  0.00    +0.000 N 
ATOM      7  C   UNL     1       1.665   9.099  18.603  0.00  0.00    +0.000 A 
ATOM      8  O   UNL     1       1.652   9.800  17.612  0.00  0.00    +0.000 OA
ENDROOT
BRANCH   1   9
ATOM      9  C   UNL     1       0.404  11.020  19.750  0.00  0.00    +0.000 C 
BRANCH   9  10
ATOM     10  C   UNL     1      -1.008  11.101  19.200  0.00  0.00    +0.000 A 
ATOM     11  N   UNL     1      -1.961  11.788  19.783  0.00  0.00    +0.000 NA
ATOM     12  C   UNL     1      -3.090  11.764  19.017  0.00  0.00    +0.000 A 
ATOM     13  C   UNL     1      -4.297  12.371  19.352  0.00  0.00    +0.000 A 
ATOM     14  C   UNL     1      -5.377  12.279  18.487  0.00  0.00    +0.000 A 
ATOM     15  C   UNL     1      -5.276  11.597  17.307  0.00  0.00    +0.000 A 
ATOM     16  C   UNL     1      -4.088  10.977  16.955  0.00  0.00    +0.000 A 
ATOM     17  C   UNL     1      -3.006  11.064  17.821  0.00  0.00    +0.000 A 
ATOM     18  S   UNL     1      -1.454  10.360  17.668  0.00  0.00    +0.000 S 
ENDBRANCH   9  10
BRANCH   9  20
ATOM     19  N   UNL     1       2.077  12.614  18.203  0.00  0.00    +0.000 NA
ATOM     20  C   UNL     1       1.319  11.891  18.905  0.00  0.00    +0.000 C 
ENDBRANCH   9  20
ENDBRANCH   1   9
BRANCH   6  21
ATOM     21  C   UNL     1       3.011   7.353  17.566  0.00  0.00    +0.000 C 
BRANCH  21  22
ATOM     22  C   UNL     1       3.788   6.111  17.868  0.00  0.00    +0.000 A 
ATOM     23  C   UNL     1       5.151   6.177  18.092  0.00  0.00    +0.000 A 
ATOM     24  C   UNL     1       5.844   5.075  18.526  0.00  0.00    +0.000 A 
ATOM     25  C   UNL     1       5.201   3.917  18.779  0.00  0.00    +0.000 A 
ATOM     26  C   UNL     1       3.917   3.855  18.484  0.00  0.00    +0.000 A 
ATOM     27  C   UNL     1       3.411   2.577  18.717  0.00  0.00    +0.000 A 
ATOM     28  C   UNL     1       1.913   2.492  18.708  0.00  0.00    +0.000 A 
ATOM     29  C   UNL     1       0.677   2.390  18.709  0.00  0.00    +0.000 A 
ATOM     30  C   UNL     1       1.539   4.008  18.229  0.00  0.00    +0.000 A 
ATOM     31  C   UNL     1       3.104   4.801  18.115  0.00  0.00    +0.000 A 
ENDBRANCH  21  22
ENDBRANCH   6  21
TORSDOF 5
ENDMDL
MODEL 4
REMARK VINA RESULT:      -8.6      1.694      2.921
REMARK  Name = 
REMARK  5 active torsions:
REMARK  status: ('A' for Active; 'I' for Inactive)
REMARK    1  A    between atoms: C_2  and  C_3
REMARK    2  A    between atoms: C_3  and  C_4
REMARK    3  A    between atoms: C_3  and  C_13
REMARK    4  A    between atoms: N_18  and  C_19
REMARK    5  A    between atoms: C_19  and  C_20
REMARK                            x       y       z     vdW  Elec       q    Type
REMARK                         _______ _______ _______ _____ _____    ______ ____
ROOT
ATOM      1  C   UNL     1       1.134   9.468  19.766  0.00  0.00    +0.000 A 
ATOM      2  C   UNL     1       1.723   9.857  18.643  0.00  0.00    +0.000 A 
ATOM      3 CL   UNL     1       1.546  11.416  17.973  0.00  0.00    +0.000 Cl
ATOM      4  C   UNL     1       2.525   8.867  17.956  0.00  0.00    +0.000 A 
ATOM      5  N   UNL     1       2.734   7.657  18.357  0.00  0.00    +0.000 NA
ATOM      6  N   UNL     1       2.150   7.277  19.539  0.00  0.00    +0.000 N 
ATOM      7  C   UNL     1       1.368   8.120  20.278  0.00  0.00    +0.000 A 
ATOM      8  O   UNL     1       0.833   7.863  21.337  0.00  0.00    +0.000 OA
ENDROOT
BRANCH   1   9
ATOM      9  C   UNL     1       0.179  10.391  20.443  0.00  0.00    +0.000 C 
BRANCH   9  10
ATOM     10  C   UNL     1      -1.018  10.761  19.587  0.00  0.00    +0.000 A 
ATOM     11  N   UNL     1      -1.354  10.096  18.507  0.00  0.00    +0.000 NA
ATOM     12  C   UNL     1      -2.522  10.588  18.001  0.00  0.00    +0.000 A 
ATOM     13  C   UNL     1      -3.149  10.129  16.847  0.00  0.00    +0.000 A 
ATOM     14  C   UNL     1      -4.339  10.708  16.433  0.00  0.00    +0.000 A 
ATOM     15  C   UNL     1      -4.908  11.728  17.143  0.00  0.00    +0.000 A 
ATOM     16  C   UNL     1      -4.298  12.209  18.290  0.00  0.00    +0.000 A 
ATOM     17  C   UNL     1      -3.105  11.633  18.705  0.00  0.00    +0.000 A 
ATOM     18  S   UNL     1      -2.120  12.056  20.039  0.00  0.00    +0.000 S 
ENDBRANCH   9  10
BRANCH   9  20
ATOM     19  N   UNL     1       1.556  12.706  21.136  0.00  0.00    +0.000 NA
ATOM     20  C   UNL     1       0.931  11.656  20.822  0.00  0.00    +0.000 C 
ENDBRANCH   9  20
ENDBRANCH   1   9
BRANCH   6  21
ATOM     21  C   UNL     1       2.352   5.905  20.035  0.00  0.00    +0.000 C 
BRANCH  21  22
ATOM     22  C   UNL     1       2.922   4.977  19.009  0.00  0.00    +0.000 A 
ATOM     23  C   UNL     1       2.085   4.229  18.202  0.00  0.00    +0.000 A 
ATOM     24  C   UNL     1       2.591   3.500  17.155  0.00  0.00    +0.000 A 
ATOM     25  C   UNL     1       3.908   3.528  16.871  0.00  0.00    +0.000 A 
ATOM     26  C   UNL     1       4.697   4.184  17.701  0.00  0.00    +0.000 A 
ATOM     27  C   UNL     1       6.034   4.054  17.330  0.00  0.00    +0.000 A 
ATOM     28  C   UNL     1       6.965   5.007  18.020  0.00  0.00    +0.000 A 
ATOM     29  C   UNL     1       7.760   5.782  18.573  0.00  0.00    +0.000 A 
ATOM     30  C   UNL     1       5.938   5.693  19.089  0.00  0.00    +0.000 A 
ATOM     31  C   UNL     1       4.389   4.958  18.700  0.00  0.00    +0.000 A 
ENDBRANCH  21  22
ENDBRANCH   6  21
TORSDOF 5
ENDMDL
MODEL 5
REMARK VINA RESULT:      -8.6      1.431      2.633
REMARK  Name = 
REMARK  5 active torsions:
REMARK  status: ('A' for Active; 'I' for Inactive)
REMARK    1  A    between atoms: C_2  and  C_3
REMARK    2  A    between atoms: C_3  and  C_4
REMARK    3  A    between atoms: C_3  and  C_13
REMARK    4  A    between atoms: N_18  and  C_19
REMARK    5  A    between atoms: C_19  and  C_20
REMARK                            x       y       z     vdW  Elec       q    Type
REMARK                         _______ _______ _______ _____ _____    ______ ____
ROOT
ATOM      1  C   UNL     1       0.741   9.817  20.016  0.00  0.00    +0.000 A 
ATOM      2  C   UNL     1       0.619   9.060  21.099  0.00  0.00    +0.000 A 
ATOM      3 CL   UNL     1      -0.292   9.509  22.469  0.00  0.00    +0.000 Cl
ATOM      4  C   UNL     1       1.341   7.806  21.096  0.00  0.00    +0.000 A 
ATOM      5  N   UNL     1       2.066   7.355  20.126  0.00  0.00    +0.000 NA
ATOM      6  N   UNL     1       2.154   8.129  18.996  0.00  0.00    +0.000 N 
ATOM      7  C   UNL     1       1.521   9.335  18.879  0.00  0.00    +0.000 A 
ATOM      8  O   UNL     1       1.538  10.066  17.910  0.00  0.00    +0.000 OA
ENDROOT
BRANCH   1   9
ATOM      9  C   UNL     1       0.144  11.182  20.013  0.00  0.00    +0.000 C 
BRANCH   9  10
ATOM     10  C   UNL     1      -1.241  11.238  19.392  0.00  0.00    +0.000 A 
ATOM     11  N   UNL     1      -2.229  11.922  19.917  0.00  0.00    +0.000 NA
ATOM     12  C   UNL     1      -3.318  11.873  19.096  0.00  0.00    +0.000 A 
ATOM     13  C   UNL     1      -4.547  12.470  19.361  0.00  0.00    +0.000 A 
ATOM     14  C   UNL     1      -5.581  12.353  18.444  0.00  0.00    +0.000 A 
ATOM     15  C   UNL     1      -5.413  11.656  17.281  0.00  0.00    +0.000 A 
ATOM     16  C   UNL     1      -4.203  11.044  16.999  0.00  0.00    +0.000 A 
ATOM     17  C   UNL     1      -3.166  11.157  17.916  0.00  0.00    +0.000 A 
ATOM     18  S   UNL     1      -1.600  10.470  17.851  0.00  0.00    +0.000 S 
ENDBRANCH   9  10
BRANCH   9  20
ATOM     19  N   UNL     1       1.844  12.871  18.602  0.00  0.00    +0.000 NA
ATOM     20  C   UNL     1       1.073  12.105  19.242  0.00  0.00    +0.000 C 
ENDBRANCH   9  20
ENDBRANCH   1   9
BRANCH   6  21
ATOM     21  C   UNL     1       2.973   7.663  17.864  0.00  0.00    +0.000 C 
BRANCH  21  22
ATOM     22  C   UNL     1       3.043   6.172  17.752  0.00  0.00    +0.000 A 
ATOM     23  C   UNL     1       1.952   5.394  18.094  0.00  0.00    +0.000 A 
ATOM     24  C   UNL     1       1.949   4.045  17.844  0.00  0.00    +0.000 A 
ATOM     25  C   UNL     1       2.994   3.459  17.226  0.00  0.00    +0.000 A 
ATOM     26  C   UNL     1       4.054   4.205  16.981  0.00  0.00    +0.000 A 
ATOM     27  C   UNL     1       5.081   3.447  16.421  0.00  0.00    +0.000 A 
ATOM     28  C   UNL     1       6.197   4.256  15.828  0.00  0.00    +0.000 A 
ATOM     29  C   UNL     1       7.133   4.897  15.328  0.00  0.00    +0.000 A 
ATOM     30  C   UNL     1       5.746   5.756  16.292  0.00  0.00    +0.000 A 
ATOM     31  C   UNL     1       4.210   5.490  17.105  0.00  0.00    +0.000 A 
ENDBRANCH  21  22
ENDBRANCH   6  21
TORSDOF 5
ENDMDL
MODEL 6
REMARK VINA RESULT:      -8.6      0.988      2.336
REMARK  Name = 
REMARK  5 active torsions:
REMARK  status: ('A' for Active; 'I' for Inactive)
REMARK    1  A    between atoms: C_2  and  C_3
REMARK    2  A    between atoms: C_3  and  C_4
REMARK    3  A    between atoms: C_3  and  C_13
REMARK    4  A    between atoms: N_18  and  C_19
REMARK    5  A    between atoms: C_19  and  C_20
REMARK                            x       y       z     vdW  Elec       q    Type
REMARK                         _______ _______ _______ _____ _____    ______ ____
ROOT
ATOM      1  C   UNL     1       0.727  10.147  20.275  0.00  0.00    +0.000 A 
ATOM      2  C   UNL     1       0.669   9.422  21.386  0.00  0.00    +0.000 A 
ATOM      3 CL   UNL     1      -0.039   9.968  22.837  0.00  0.00    +0.000 Cl
ATOM      4  C   UNL     1       1.284   8.113  21.334  0.00  0.00    +0.000 A 
ATOM      5  N   UNL     1       1.854   7.587  20.301  0.00  0.00    +0.000 NA
ATOM      6  N   UNL     1       1.874   8.331  19.148  0.00  0.00    +0.000 N 
ATOM      7  C   UNL     1       1.329   9.583  19.070  0.00  0.00    +0.000 A 
ATOM      8  O   UNL     1       1.293  10.293  18.087  0.00  0.00    +0.000 OA
ENDROOT
BRANCH   1   9
ATOM      9  C   UNL     1       0.243  11.557  20.304  0.00  0.00    +0.000 C 
BRANCH   9  10
ATOM     10  C   UNL     1      -1.130  11.740  19.683  0.00  0.00    +0.000 A 
ATOM     11  N   UNL     1      -1.424  11.332  18.471  0.00  0.00    +0.000 NA
ATOM     12  C   UNL     1      -2.749  11.537  18.218  0.00  0.00    +0.000 A 
ATOM     13  C   UNL     1      -3.389  11.241  17.019  0.00  0.00    +0.000 A 
ATOM     14  C   UNL     1      -4.746  11.492  16.882  0.00  0.00    +0.000 A 
ATOM     15  C   UNL     1      -5.468  12.029  17.911  0.00  0.00    +0.000 A 
ATOM     16  C   UNL     1      -4.852  12.341  19.112  0.00  0.00    +0.000 A 
ATOM     17  C   UNL     1      -3.493  12.095  19.250  0.00  0.00    +0.000 A 
ATOM     18  S   UNL     1      -2.476  12.424  20.586  0.00  0.00    +0.000 S 
ENDBRANCH   9  10
BRANCH   9  20
ATOM     19  N   UNL     1       2.080  13.131  18.933  0.00  0.00    +0.000 NA
ATOM     20  C   UNL     1       1.247  12.417  19.555  0.00  0.00    +0.000 C 
ENDBRANCH   9  20
ENDBRANCH   1   9
BRANCH   6  21
ATOM     21  C   UNL     1       2.517   7.779  17.943  0.00  0.00    +0.000 C 
BRANCH  21  22
ATOM     22  C   UNL     1       2.757   6.304  18.018  0.00  0.00    +0.000 A 
ATOM     23  C   UNL     1       1.711   5.417  17.847  0.00  0.00    +0.000 A 
ATOM     24  C   UNL     1       1.945   4.068  17.754  0.00  0.00    +0.000 A 
ATOM     25  C   UNL     1       3.204   3.586  17.788  0.00  0.00    +0.000 A 
ATOM     26  C   UNL     1       4.178   4.442  18.030  0.00  0.00    +0.000 A 
ATOM     27  C   UNL     1       5.406   3.789  18.122  0.00  0.00    +0.000 A 
ATOM     28  C   UNL     1       6.598   4.701  18.085  0.00  0.00    +0.000 A 
ATOM     29  C   UNL     1       7.602   5.428  18.055  0.00  0.00    +0.000 A 
ATOM     30  C   UNL     1       5.852   6.154  18.127  0.00  0.00    +0.000 A 
ATOM     31  C   UNL     1       4.143   5.740  18.097  0.00  0.00    +0.000 A 
ENDBRANCH  21  22
ENDBRANCH   6  21
TORSDOF 5
ENDMDL
MODEL 7
REMARK VINA RESULT:      -8.4      1.684      2.797
REMARK  Name = 
REMARK  5 active torsions:
REMARK  status: ('A' for Active; 'I' for Inactive)
REMARK    1  A    between atoms: C_2  and  C_3
REMARK    2  A    between atoms: C_3  and  C_4
REMARK    3  A    between atoms: C_3  and  C_13
REMARK    4  A    between atoms: N_18  and  C_19
REMARK    5  A    between atoms: C_19  and  C_20
REMARK                            x       y       z     vdW  Elec       q    Type
REMARK                         _______ _______ _______ _____ _____    ______ ____
ROOT
ATOM      1  C   UNL     1       1.078   9.392  20.026  0.00  0.00    +0.000 A 
ATOM      2  C   UNL     1       1.630   9.532  18.827  0.00  0.00    +0.000 A 
ATOM      3 CL   UNL     1       1.482  10.940  17.876  0.00  0.00    +0.000 Cl
ATOM      4  C   UNL     1       2.361   8.393  18.315  0.00  0.00    +0.000 A 
ATOM      5  N   UNL     1       2.543   7.273  18.934  0.00  0.00    +0.000 NA
ATOM      6  N   UNL     1       2.000   7.154  20.189  0.00  0.00    +0.000 N 
ATOM      7  C   UNL     1       1.285   8.158  20.780  0.00  0.00    +0.000 A 
ATOM      8  O   UNL     1       0.789   8.133  21.888  0.00  0.00    +0.000 OA
ENDROOT
BRANCH   1   9
ATOM      9  C   UNL     1       0.191  10.470  20.548  0.00  0.00    +0.000 C 
BRANCH   9  10
ATOM     10  C   UNL     1      -0.984  10.782  19.639  0.00  0.00    +0.000 A 
ATOM     11  N   UNL     1      -1.313  10.030  18.616  0.00  0.00    +0.000 NA
ATOM     12  C   UNL     1      -2.463  10.493  18.046  0.00  0.00    +0.000 A 
ATOM     13  C   UNL     1      -3.077   9.943  16.925  0.00  0.00    +0.000 A 
ATOM     14  C   UNL     1      -4.249  10.503  16.438  0.00  0.00    +0.000 A 
ATOM     15  C   UNL     1      -4.812  11.590  17.044  0.00  0.00    +0.000 A 
ATOM     16  C   UNL     1      -4.214  12.162  18.155  0.00  0.00    +0.000 A 
ATOM     17  C   UNL     1      -3.039  11.606  18.643  0.00  0.00    +0.000 A 
ATOM     18  S   UNL     1      -2.071  12.130  19.953  0.00  0.00    +0.000 S 
ENDBRANCH   9  10
BRANCH   9  20
ATOM     19  N   UNL     1       1.722  12.768  20.878  0.00  0.00    +0.000 NA
ATOM     20  C   UNL     1       1.028  11.726  20.728  0.00  0.00    +0.000 C 
ENDBRANCH   9  20
ENDBRANCH   1   9
BRANCH   6  21
ATOM     21  C   UNL     1       2.173   5.895  20.933  0.00  0.00    +0.000 C 
BRANCH  21  22
ATOM     22  C   UNL     1       2.018   4.673  20.083  0.00  0.00    +0.000 A 
ATOM     23  C   UNL     1       0.854   3.929  20.134  0.00  0.00    +0.000 A 
ATOM     24  C   UNL     1       0.639   2.904  19.248  0.00  0.00    +0.000 A 
ATOM     25  C   UNL     1       1.541   2.629  18.284  0.00  0.00    +0.000 A 
ATOM     26  C   UNL     1       2.677   3.299  18.304  0.00  0.00    +0.000 A 
ATOM     27  C   UNL     1       3.541   2.848  17.307  0.00  0.00    +0.000 A 
ATOM     28  C   UNL     1       4.716   3.746  17.051  0.00  0.00    +0.000 A 
ATOM     29  C   UNL     1       5.697   4.468  16.817  0.00  0.00    +0.000 A 
ATOM     30  C   UNL     1       4.521   4.828  18.259  0.00  0.00    +0.000 A 
ATOM     31  C   UNL     1       3.025   4.319  19.031  0.00  0.00    +0.000 A 
ENDBRANCH  21  22
ENDBRANCH   6  21
TORSDOF 5
ENDMDL
MODEL 8
REMARK VINA RESULT:      -8.3      2.017      3.812
REMARK  Name = 
REMARK  5 active torsions:
REMARK  status: ('A' for Active; 'I' for Inactive)
REMARK    1  A    between atoms: C_2  and  C_3
REMARK    2  A    between atoms: C_3  and  C_4
REMARK    3  A    between atoms: C_3  and  C_13
REMARK    4  A    between atoms: N_18  and  C_19
REMARK    5  A    between atoms: C_19  and  C_20
REMARK                            x       y       z     vdW  Elec       q    Type
REMARK                         _______ _______ _______ _____ _____    ______ ____
ROOT
ATOM      1  C   UNL     1       0.962   9.357  18.995  0.00  0.00    +0.000 A 
ATOM      2  C   UNL     1       0.499   9.274  20.236  0.00  0.00    +0.000 A 
ATOM      3 CL   UNL     1      -0.740  10.269  20.852  0.00  0.00    +0.000 Cl
ATOM      4  C   UNL     1       1.130   8.296  21.096  0.00  0.00    +0.000 A 
ATOM      5  N   UNL     1       2.077   7.487  20.751  0.00  0.00    +0.000 NA
ATOM      6  N   UNL     1       2.521   7.557  19.455  0.00  0.00    +0.000 N 
ATOM      7  C   UNL     1       2.008   8.441  18.547  0.00  0.00    +0.000 A 
ATOM      8  O   UNL     1       2.335   8.550  17.384  0.00  0.00    +0.000 OA
ENDROOT
BRANCH   1   9
ATOM      9  C   UNL     1       0.457  10.440  18.103  0.00  0.00    +0.000 C 
BRANCH   9  10
ATOM     10  C   UNL     1       0.740  11.837  18.625  0.00  0.00    +0.000 A 
ATOM     11  N   UNL     1       1.919  12.207  19.065  0.00  0.00    +0.000 NA
ATOM     12  C   UNL     1       1.906  13.537  19.373  0.00  0.00    +0.000 A 
ATOM     13  C   UNL     1       2.984  14.248  19.890  0.00  0.00    +0.000 A 
ATOM     14  C   UNL     1       2.849  15.602  20.160  0.00  0.00    +0.000 A 
ATOM     15  C   UNL     1       1.669  16.251  19.928  0.00  0.00    +0.000 A 
ATOM     16  C   UNL     1       0.579  15.562  19.422  0.00  0.00    +0.000 A 
ATOM     17  C   UNL     1       0.709  14.206  19.153  0.00  0.00    +0.000 A 
ATOM     18  S   UNL     1      -0.473  13.110  18.580  0.00  0.00    +0.000 S 
ENDBRANCH   9  10
BRANCH   9  20
ATOM     19  N   UNL     1      -2.289  10.114  17.812  0.00  0.00    +0.000 NA
ATOM     20  C   UNL     1      -1.044  10.262  17.944  0.00  0.00    +0.000 C 
ENDBRANCH   9  20
ENDBRANCH   1   9
BRANCH   6  21
ATOM     21  C   UNL     1       3.604   6.661  19.014  0.00  0.00    +0.000 C 
BRANCH  21  22
ATOM     22  C   UNL     1       3.116   5.351  18.480  0.00  0.00    +0.000 A 
ATOM     23  C   UNL     1       3.412   4.970  17.185  0.00  0.00    +0.000 A 
ATOM     24  C   UNL     1       3.108   3.709  16.739  0.00  0.00    +0.000 A 
ATOM     25  C   UNL     1       2.550   2.804  17.568  0.00  0.00    +0.000 A 
ATOM     26  C   UNL     1       2.204   3.213  18.774  0.00  0.00    +0.000 A 
ATOM     27  C   UNL     1       1.563   2.198  19.482  0.00  0.00    +0.000 A 
ATOM     28  C   UNL     1       1.416   2.465  20.951  0.00  0.00    +0.000 A 
ATOM     29  C   UNL     1       1.279   2.657  22.169  0.00  0.00    +0.000 A 
ATOM     30  C   UNL     1       1.959   4.004  21.022  0.00  0.00    +0.000 A 
ATOM     31  C   UNL     1       2.455   4.342  19.370  0.00  0.00    +0.000 A 
ENDBRANCH  21  22
ENDBRANCH   6  21
TORSDOF 5
ENDMDL
MODEL 9
REMARK VINA RESULT:      -8.3      1.731      2.514
REMARK  Name = 
REMARK  5 active torsions:
REMARK  status: ('A' for Active; 'I' for Inactive)
REMARK    1  A    between atoms: C_2  and  C_3
REMARK    2  A    between atoms: C_3  and  C_4
REMARK    3  A    between atoms: C_3  and  C_13
REMARK    4  A    between atoms: N_18  and  C_19
REMARK    5  A    between atoms: C_19  and  C_20
REMARK                            x       y       z     vdW  Elec       q    Type
REMARK                         _______ _______ _______ _____ _____    ______ ____
ROOT
ATOM      1  C   UNL     1       1.406   8.928  19.520  0.00  0.00    +0.000 A 
ATOM      2  C   UNL     1       1.237   8.433  20.740  0.00  0.00    +0.000 A 
ATOM      3 CL   UNL     1       0.599   9.327  22.045  0.00  0.00    +0.000 Cl
ATOM      4  C   UNL     1       1.663   7.065  20.946  0.00  0.00    +0.000 A 
ATOM      5  N   UNL     1       2.163   6.287  20.044  0.00  0.00    +0.000 NA
ATOM      6  N   UNL     1       2.297   6.798  18.778  0.00  0.00    +0.000 N 
ATOM      7  C   UNL     1       1.934   8.076  18.458  0.00  0.00    +0.000 A 
ATOM      8  O   UNL     1       2.007   8.593  17.362  0.00  0.00    +0.000 OA
ENDROOT
BRANCH   1   9
ATOM      9  C   UNL     1       1.124  10.372  19.278  0.00  0.00    +0.000 C 
BRANCH   9  10
ATOM     10  C   UNL     1      -0.263  10.635  18.720  0.00  0.00    +0.000 A 
ATOM     11  N   UNL     1      -0.695  10.098  17.604  0.00  0.00    +0.000 NA
ATOM     12  C   UNL     1      -2.004  10.429  17.403  0.00  0.00    +0.000 A 
ATOM     13  C   UNL     1      -2.764  10.047  16.302  0.00  0.00    +0.000 A 
ATOM     14  C   UNL     1      -4.090  10.443  16.211  0.00  0.00    +0.000 A 
ATOM     15  C   UNL     1      -4.664  11.208  17.188  0.00  0.00    +0.000 A 
ATOM     16  C   UNL     1      -3.924  11.609  18.289  0.00  0.00    +0.000 A 
ATOM     17  C   UNL     1      -2.596  11.216  18.381  0.00  0.00    +0.000 A 
ATOM     18  S   UNL     1      -1.447  11.604  19.589  0.00  0.00    +0.000 S 
ENDBRANCH   9  10
BRANCH   9  20
ATOM     19  N   UNL     1       3.023  11.337  17.490  0.00  0.00    +0.000 NA
ATOM     20  C   UNL     1       2.162  10.899  18.301  0.00  0.00    +0.000 C 
ENDBRANCH   9  20
ENDBRANCH   1   9
BRANCH   6  21
ATOM     21  C   UNL     1       2.868   5.952  17.715  0.00  0.00    +0.000 C 
BRANCH  21  22
ATOM     22  C   UNL     1       4.341   5.732  17.854  0.00  0.00    +0.000 A 
ATOM     23  C   UNL     1       4.946   5.816  19.094  0.00  0.00    +0.000 A 
ATOM     24  C   UNL     1       6.261   5.460  19.257  0.00  0.00    +0.000 A 
ATOM     25  C   UNL     1       6.977   4.984  18.218  0.00  0.00    +0.000 A 
ATOM     26  C   UNL     1       6.403   4.987  17.030  0.00  0.00    +0.000 A 
ATOM     27  C   UNL     1       7.289   4.552  16.046  0.00  0.00    +0.000 A 
ATOM     28  C   UNL     1       6.644   4.226  14.731  0.00  0.00    +0.000 A 
ATOM     29  C   UNL     1       6.140   3.949  13.632  0.00  0.00    +0.000 A 
ATOM     30  C   UNL     1       5.117   4.729  15.024  0.00  0.00    +0.000 A 
ATOM     31  C   UNL     1       5.170   5.242  16.706  0.00  0.00    +0.000 A 
ENDBRANCH  21  22
ENDBRANCH   6  21
TORSDOF 5
ENDMDL
