MODEL 1
REMARK VINA RESULT:      -8.0      0.000      0.000
REMARK  Name = 
REMARK  4 active torsions:
REMARK  status: ('A' for Active; 'I' for Inactive)
REMARK    1  A    between atoms: C_2  and  C_3
REMARK    2  A    between atoms: C_6  and  O_7
REMARK    3  A    between atoms: O_7  and  C_8
REMARK    4  A    between atoms: N_21  and  C_22
REMARK                            x       y       z     vdW  Elec       q    Type
REMARK                         _______ _______ _______ _____ _____    ______ ____
ROOT
ATOM      1  C   UNL     1       0.584   9.813  19.022  0.00  0.00    +0.000 A 
ATOM      2  C   UNL     1       1.219   9.328  17.884  0.00  0.00    +0.000 A 
ATOM      3  C   UNL     1       2.073   8.240  18.026  0.00  0.00    +0.000 A 
ATOM      4  C   UNL     1       2.209   7.640  19.279  0.00  0.00    +0.000 A 
ATOM      5  C   UNL     1       1.552   8.205  20.361  0.00  0.00    +0.000 A 
ATOM      6  N   UNL     1       0.737   9.275  20.265  0.00  0.00    +0.000 NA
ENDROOT
BRANCH   1   8
ATOM      7  O   UNL     1      -1.518  10.809  18.785  0.00  0.00    +0.000 OA
ATOM      8  C   UNL     1      -0.309  11.005  18.914  0.00  0.00    +0.000 C 
ATOM      9  N   UNL     1       0.272  12.280  18.967  0.00  0.00    +0.000 N 
ATOM     10  C   UNL     1      -0.606  13.439  19.001  0.00  0.00    +0.000 C 
ATOM     11  C   UNL     1      -0.367  14.429  20.136  0.00  0.00    +0.000 C 
ATOM     12  C   UNL     1       1.052  14.723  20.628  0.00  0.00    +0.000 C 
ATOM     13  N   UNL     1       2.196  14.669  19.719  0.00  0.00    +0.000 NA
ATOM     14  C   UNL     1       2.560  13.286  19.385  0.00  0.00    +0.000 C 
ATOM     15  C   UNL     1       1.628  12.514  18.447  0.00  0.00    +0.000 C 
BRANCH  13  16
ATOM     16  C   UNL     1       2.066  15.547  18.551  0.00  0.00    +0.000 C 
ATOM     17  C   UNL     1       2.547  16.975  18.915  0.00  0.00    +0.000 C 
ATOM     18  C   UNL     1       3.329  16.983  17.588  0.00  0.00    +0.000 C 
ATOM     19  C   UNL     1       3.335  15.444  17.660  0.00  0.00    +0.000 C 
ENDBRANCH  13  16
ENDBRANCH   1   8
BRANCH   4  20
ATOM     20  O   UNL     1       2.983   6.537  19.525  0.00  0.00    +0.000 OA
BRANCH  20  21
ATOM     21  C   UNL     1       2.417   5.294  19.381  0.00  0.00    +0.000 A 
ATOM     22  C   UNL     1       2.035   4.735  18.152  0.00  0.00    +0.000 A 
ATOM     23  C   UNL     1       1.516   3.442  18.101  0.00  0.00    +0.000 A 
ATOM     24  C   UNL     1       1.326   2.726  19.281  0.00  0.00    +0.000 A 
ATOM     25  C   UNL     1       1.648   3.308  20.508  0.00  0.00    +0.000 A 
ATOM     26 CL   UNL     1       1.372   2.436  21.964  0.00  0.00    +0.000 Cl
ATOM     27  C   UNL     1       2.194   4.585  20.564  0.00  0.00    +0.000 A 
ENDBRANCH  20  21
ENDBRANCH   4  20
TORSDOF 4
ENDMDL
MODEL 2
REMARK VINA RESULT:      -7.8      0.949      1.130
REMARK  Name = 
REMARK  4 active torsions:
REMARK  status: ('A' for Active; 'I' for Inactive)
REMARK    1  A    between atoms: C_2  and  C_3
REMARK    2  A    between atoms: C_6  and  O_7
REMARK    3  A    between atoms: O_7  and  C_8
REMARK    4  A    between atoms: N_21  and  C_22
REMARK                            x       y       z     vdW  Elec       q    Type
REMARK                         _______ _______ _______ _____ _____    ______ ____
ROOT
ATOM      1  C   UNL     1       0.663   9.654  18.959  0.00  0.00    +0.000 A 
ATOM      2  C   UNL     1       1.337   9.166  17.846  0.00  0.00    +0.000 A 
ATOM      3  C   UNL     1       2.222   8.108  18.031  0.00  0.00    +0.000 A 
ATOM      4  C   UNL     1       2.350   7.541  19.300  0.00  0.00    +0.000 A 
ATOM      5  C   UNL     1       1.652   8.109  20.355  0.00  0.00    +0.000 A 
ATOM      6  N   UNL     1       0.806   9.150  20.217  0.00  0.00    +0.000 NA
ENDROOT
BRANCH   1   8
ATOM      7  O   UNL     1      -1.461  10.576  18.634  0.00  0.00    +0.000 OA
ATOM      8  C   UNL     1      -0.265  10.815  18.805  0.00  0.00    +0.000 C 
ATOM      9  N   UNL     1       0.271  12.110  18.864  0.00  0.00    +0.000 N 
ATOM     10  C   UNL     1      -0.646  13.238  18.853  0.00  0.00    +0.000 C 
ATOM     11  C   UNL     1      -0.482  14.247  19.984  0.00  0.00    +0.000 C 
ATOM     12  C   UNL     1       0.907  14.594  20.524  0.00  0.00    +0.000 C 
ATOM     13  N   UNL     1       2.085  14.570  19.658  0.00  0.00    +0.000 NA
ATOM     14  C   UNL     1       2.507  13.196  19.353  0.00  0.00    +0.000 C 
ATOM     15  C   UNL     1       1.636  12.383  18.391  0.00  0.00    +0.000 C 
BRANCH  13  16
ATOM     16  C   UNL     1       1.969  15.430  18.476  0.00  0.00    +0.000 C 
ATOM     17  C   UNL     1       2.259  16.901  18.871  0.00  0.00    +0.000 C 
ATOM     18  C   UNL     1       3.153  16.995  17.620  0.00  0.00    +0.000 C 
ATOM     19  C   UNL     1       3.317  15.465  17.704  0.00  0.00    +0.000 C 
ENDBRANCH  13  16
ENDBRANCH   1   8
BRANCH   4  20
ATOM     20  O   UNL     1       3.153   6.470  19.588  0.00  0.00    +0.000 OA
BRANCH  20  21
ATOM     21  C   UNL     1       3.042   5.341  18.813  0.00  0.00    +0.000 A 
ATOM     22  C   UNL     1       3.896   5.024  17.746  0.00  0.00    +0.000 A 
ATOM     23  C   UNL     1       3.735   3.827  17.050  0.00  0.00    +0.000 A 
ATOM     24  C   UNL     1       2.688   2.970  17.382  0.00  0.00    +0.000 A 
ATOM     25  C   UNL     1       1.802   3.316  18.403  0.00  0.00    +0.000 A 
ATOM     26 CL   UNL     1       0.487   2.274  18.780  0.00  0.00    +0.000 Cl
ATOM     27  C   UNL     1       1.974   4.494  19.121  0.00  0.00    +0.000 A 
ENDBRANCH  20  21
ENDBRANCH   4  20
TORSDOF 4
ENDMDL
MODEL 3
REMARK VINA RESULT:      -7.8      1.043      1.267
REMARK  Name = 
REMARK  4 active torsions:
REMARK  status: ('A' for Active; 'I' for Inactive)
REMARK    1  A    between atoms: C_2  and  C_3
REMARK    2  A    between atoms: C_6  and  O_7
REMARK    3  A    between atoms: O_7  and  C_8
REMARK    4  A    between atoms: N_21  and  C_22
REMARK                            x       y       z     vdW  Elec       q    Type
REMARK                         _______ _______ _______ _____ _____    ______ ____
ROOT
ATOM      1  C   UNL     1       0.631   9.589  19.040  0.00  0.00    +0.000 A 
ATOM      2  C   UNL     1       1.284   9.006  17.960  0.00  0.00    +0.000 A 
ATOM      3  C   UNL     1       2.149   7.946  18.215  0.00  0.00    +0.000 A 
ATOM      4  C   UNL     1       2.277   7.470  19.521  0.00  0.00    +0.000 A 
ATOM      5  C   UNL     1       1.601   8.128  20.537  0.00  0.00    +0.000 A 
ATOM      6  N   UNL     1       0.776   9.174  20.330  0.00  0.00    +0.000 NA
ENDROOT
BRANCH   1   8
ATOM      7  O   UNL     1      -1.464  10.524  18.591  0.00  0.00    +0.000 OA
ATOM      8  C   UNL     1      -0.275  10.754  18.809  0.00  0.00    +0.000 C 
ATOM      9  N   UNL     1       0.275  12.044  18.855  0.00  0.00    +0.000 N 
ATOM     10  C   UNL     1      -0.626  13.182  18.768  0.00  0.00    +0.000 C 
ATOM     11  C   UNL     1      -0.502  14.222  19.876  0.00  0.00    +0.000 C 
ATOM     12  C   UNL     1       0.865  14.570  20.469  0.00  0.00    +0.000 C 
ATOM     13  N   UNL     1       2.081  14.506  19.659  0.00  0.00    +0.000 NA
ATOM     14  C   UNL     1       2.499  13.119  19.415  0.00  0.00    +0.000 C 
ATOM     15  C   UNL     1       1.663  12.288  18.438  0.00  0.00    +0.000 C 
BRANCH  13  16
ATOM     16  C   UNL     1       2.030  15.332  18.448  0.00  0.00    +0.000 C 
ATOM     17  C   UNL     1       2.319  16.811  18.813  0.00  0.00    +0.000 C 
ATOM     18  C   UNL     1       3.271  16.858  17.602  0.00  0.00    +0.000 C 
ATOM     19  C   UNL     1       3.413  15.330  17.739  0.00  0.00    +0.000 C 
ENDBRANCH  13  16
ENDBRANCH   1   8
BRANCH   4  20
ATOM     20  O   UNL     1       3.061   6.406  19.880  0.00  0.00    +0.000 OA
BRANCH  20  21
ATOM     21  C   UNL     1       2.517   5.146  19.829  0.00  0.00    +0.000 A 
ATOM     22  C   UNL     1       1.410   4.729  20.584  0.00  0.00    +0.000 A 
ATOM     23  C   UNL     1       0.897   3.442  20.425  0.00  0.00    +0.000 A 
ATOM     24  C   UNL     1       1.521   2.552  19.554  0.00  0.00    +0.000 A 
ATOM     25  C   UNL     1       2.660   2.948  18.852  0.00  0.00    +0.000 A 
ATOM     26 CL   UNL     1       3.451   1.830  17.811  0.00  0.00    +0.000 Cl
ATOM     27  C   UNL     1       3.160   4.239  18.982  0.00  0.00    +0.000 A 
ENDBRANCH  20  21
ENDBRANCH   4  20
TORSDOF 4
ENDMDL
MODEL 4
REMARK VINA RESULT:      -7.7      1.543      1.791
REMARK  Name = 
REMARK  4 active torsions:
REMARK  status: ('A' for Active; 'I' for Inactive)
REMARK    1  A    between atoms: C_2  and  C_3
REMARK    2  A    between atoms: C_6  and  O_7
REMARK    3  A    between atoms: O_7  and  C_8
REMARK    4  A    between atoms: N_21  and  C_22
REMARK                            x       y       z     vdW  Elec       q    Type
REMARK                         _______ _______ _______ _____ _____    ______ ____
ROOT
ATOM      1  C   UNL     1       0.591   9.765  19.059  0.00  0.00    +0.000 A 
ATOM      2  C   UNL     1       1.243   9.259  17.940  0.00  0.00    +0.000 A 
ATOM      3  C   UNL     1       2.107   8.184  18.119  0.00  0.00    +0.000 A 
ATOM      4  C   UNL     1       2.237   7.617  19.387  0.00  0.00    +0.000 A 
ATOM      5  C   UNL     1       1.563   8.202  20.448  0.00  0.00    +0.000 A 
ATOM      6  N   UNL     1       0.738   9.261  20.317  0.00  0.00    +0.000 NA
ENDROOT
BRANCH   1   8
ATOM      7  O   UNL     1      -1.518  10.731  18.772  0.00  0.00    +0.000 OA
ATOM      8  C   UNL     1      -0.314  10.944  18.912  0.00  0.00    +0.000 C 
ATOM      9  N   UNL     1       0.253  12.227  18.943  0.00  0.00    +0.000 N 
ATOM     10  C   UNL     1      -0.638  13.376  18.939  0.00  0.00    +0.000 C 
ATOM     11  C   UNL     1      -0.426  14.394  20.054  0.00  0.00    +0.000 C 
ATOM     12  C   UNL     1       0.983  14.716  20.558  0.00  0.00    +0.000 C 
ATOM     13  N   UNL     1       2.140  14.654  19.665  0.00  0.00    +0.000 NA
ATOM     14  C   UNL     1       2.523  13.268  19.368  0.00  0.00    +0.000 C 
ATOM     15  C   UNL     1       1.613  12.464  18.436  0.00  0.00    +0.000 C 
BRANCH  13  16
ATOM     16  C   UNL     1       2.016  15.503  18.476  0.00  0.00    +0.000 C 
ATOM     17  C   UNL     1       2.367  16.968  18.842  0.00  0.00    +0.000 C 
ATOM     18  C   UNL     1       3.224  17.016  17.562  0.00  0.00    +0.000 C 
ATOM     19  C   UNL     1       3.340  15.483  17.662  0.00  0.00    +0.000 C 
ENDBRANCH  13  16
ENDBRANCH   1   8
BRANCH   4  20
ATOM     20  O   UNL     1       3.021   6.530  19.670  0.00  0.00    +0.000 OA
BRANCH  20  21
ATOM     21  C   UNL     1       2.907   5.416  18.874  0.00  0.00    +0.000 A 
ATOM     22  C   UNL     1       1.816   4.534  18.896  0.00  0.00    +0.000 A 
ATOM     23  C   UNL     1       1.766   3.458  18.012  0.00  0.00    +0.000 A 
ATOM     24  C   UNL     1       2.830   3.227  17.142  0.00  0.00    +0.000 A 
ATOM     25  C   UNL     1       3.943   4.069  17.166  0.00  0.00    +0.000 A 
ATOM     26 CL   UNL     1       5.272   3.754  16.121  0.00  0.00    +0.000 Cl
ATOM     27  C   UNL     1       3.987   5.162  18.024  0.00  0.00    +0.000 A 
ENDBRANCH  20  21
ENDBRANCH   4  20
TORSDOF 4
ENDMDL
MODEL 5
REMARK VINA RESULT:      -7.4      3.008      4.029
REMARK  Name = 
REMARK  4 active torsions:
REMARK  status: ('A' for Active; 'I' for Inactive)
REMARK    1  A    between atoms: C_2  and  C_3
REMARK    2  A    between atoms: C_6  and  O_7
REMARK    3  A    between atoms: O_7  and  C_8
REMARK    4  A    between atoms: N_21  and  C_22
REMARK                            x       y       z     vdW  Elec       q    Type
REMARK                         _______ _______ _______ _____ _____    ______ ____
ROOT
ATOM      1  C   UNL     1      -0.515  10.384  19.542  0.00  0.00    +0.000 A 
ATOM      2  C   UNL     1       0.418  10.268  18.517  0.00  0.00    +0.000 A 
ATOM      3  C   UNL     1       1.454   9.354  18.678  0.00  0.00    +0.000 A 
ATOM      4  C   UNL     1       1.483   8.550  19.818  0.00  0.00    +0.000 A 
ATOM      5  C   UNL     1       0.522   8.750  20.796  0.00  0.00    +0.000 A 
ATOM      6  N   UNL     1      -0.481   9.645  20.686  0.00  0.00    +0.000 NA
ENDROOT
BRANCH   1   8
ATOM      7  O   UNL     1      -2.190  11.482  18.336  0.00  0.00    +0.000 OA
ATOM      8  C   UNL     1      -1.618  11.383  19.422  0.00  0.00    +0.000 C 
ATOM      9  N   UNL     1      -1.946  12.152  20.548  0.00  0.00    +0.000 N 
ATOM     10  C   UNL     1      -3.107  13.025  20.474  0.00  0.00    +0.000 C 
ATOM     11  C   UNL     1      -4.141  12.861  21.583  0.00  0.00    +0.000 C 
ATOM     12  C   UNL     1      -3.705  12.544  23.015  0.00  0.00    +0.000 C 
ATOM     13  N   UNL     1      -2.430  13.027  23.544  0.00  0.00    +0.000 NA
ATOM     14  C   UNL     1      -1.294  12.276  22.993  0.00  0.00    +0.000 C 
ATOM     15  C   UNL     1      -0.919  12.529  21.530  0.00  0.00    +0.000 C 
BRANCH  13  16
ATOM     16  C   UNL     1      -2.271  14.483  23.468  0.00  0.00    +0.000 C 
ATOM     17  C   UNL     1      -3.309  15.171  24.391  0.00  0.00    +0.000 C 
ATOM     18  C   UNL     1      -2.168  16.073  24.898  0.00  0.00    +0.000 C 
ATOM     19  C   UNL     1      -1.190  14.958  24.478  0.00  0.00    +0.000 C 
ENDBRANCH  13  16
ENDBRANCH   1   8
BRANCH   4  20
ATOM     20  O   UNL     1       2.426   7.587  20.058  0.00  0.00    +0.000 OA
BRANCH  20  21
ATOM     21  C   UNL     1       2.200   6.317  19.585  0.00  0.00    +0.000 A 
ATOM     22  C   UNL     1       2.271   5.949  18.233  0.00  0.00    +0.000 A 
ATOM     23  C   UNL     1       2.076   4.621  17.856  0.00  0.00    +0.000 A 
ATOM     24  C   UNL     1       1.756   3.668  18.821  0.00  0.00    +0.000 A 
ATOM     25  C   UNL     1       1.624   4.048  20.158  0.00  0.00    +0.000 A 
ATOM     26 CL   UNL     1       1.187   2.876  21.337  0.00  0.00    +0.000 Cl
ATOM     27  C   UNL     1       1.846   5.364  20.545  0.00  0.00    +0.000 A 
ENDBRANCH  20  21
ENDBRANCH   4  20
TORSDOF 4
ENDMDL
MODEL 6
REMARK VINA RESULT:      -7.3      3.474      5.108
REMARK  Name = 
REMARK  4 active torsions:
REMARK  status: ('A' for Active; 'I' for Inactive)
REMARK    1  A    between atoms: C_2  and  C_3
REMARK    2  A    between atoms: C_6  and  O_7
REMARK    3  A    between atoms: O_7  and  C_8
REMARK    4  A    between atoms: N_21  and  C_22
REMARK                            x       y       z     vdW  Elec       q    Type
REMARK                         _______ _______ _______ _____ _____    ______ ____
ROOT
ATOM      1  C   UNL     1       1.481   8.576  19.976  0.00  0.00    +0.000 A 
ATOM      2  C   UNL     1       2.036   8.644  18.703  0.00  0.00    +0.000 A 
ATOM      3  C   UNL     1       2.648   7.503  18.196  0.00  0.00    +0.000 A 
ATOM      4  C   UNL     1       2.626   6.327  18.946  0.00  0.00    +0.000 A 
ATOM      5  C   UNL     1       2.067   6.359  20.215  0.00  0.00    +0.000 A 
ATOM      6  N   UNL     1       1.489   7.453  20.749  0.00  0.00    +0.000 NA
ENDROOT
BRANCH   1   8
ATOM      7  O   UNL     1       1.309  10.220  21.629  0.00  0.00    +0.000 OA
ATOM      8  C   UNL     1       0.850   9.793  20.569  0.00  0.00    +0.000 C 
ATOM      9  N   UNL     1      -0.225  10.384  19.890  0.00  0.00    +0.000 N 
ATOM     10  C   UNL     1      -0.750  11.644  20.391  0.00  0.00    +0.000 C 
ATOM     11  C   UNL     1      -0.844  12.782  19.381  0.00  0.00    +0.000 C 
ATOM     12  C   UNL     1      -1.220  12.501  17.924  0.00  0.00    +0.000 C 
ATOM     13  N   UNL     1      -2.113  11.398  17.570  0.00  0.00    +0.000 NA
ATOM     14  C   UNL     1      -1.442  10.096  17.687  0.00  0.00    +0.000 C 
ATOM     15  C   UNL     1      -1.156   9.569  19.096  0.00  0.00    +0.000 C 
BRANCH  13  16
ATOM     16  C   UNL     1      -3.417  11.455  18.239  0.00  0.00    +0.000 C 
ATOM     17  C   UNL     1      -4.478  12.031  17.266  0.00  0.00    +0.000 C 
ATOM     18  C   UNL     1      -5.415  10.893  17.714  0.00  0.00    +0.000 C 
ATOM     19  C   UNL     1      -4.154  10.094  18.095  0.00  0.00    +0.000 C 
ENDBRANCH  13  16
ENDBRANCH   1   8
BRANCH   4  20
ATOM     20  O   UNL     1       3.154   5.135  18.527  0.00  0.00    +0.000 OA
BRANCH  20  21
ATOM     21  C   UNL     1       4.490   5.086  18.209  0.00  0.00    +0.000 A 
ATOM     22  C   UNL     1       5.529   5.402  19.097  0.00  0.00    +0.000 A 
ATOM     23  C   UNL     1       6.858   5.272  18.697  0.00  0.00    +0.000 A 
ATOM     24  C   UNL     1       7.152   4.880  17.393  0.00  0.00    +0.000 A 
ATOM     25  C   UNL     1       6.117   4.627  16.492  0.00  0.00    +0.000 A 
ATOM     26 CL   UNL     1       6.487   4.185  14.872  0.00  0.00    +0.000 Cl
ATOM     27  C   UNL     1       4.789   4.726  16.892  0.00  0.00    +0.000 A 
ENDBRANCH  20  21
ENDBRANCH   4  20
TORSDOF 4
ENDMDL
MODEL 7
REMARK VINA RESULT:      -7.3      1.976      2.260
REMARK  Name = 
REMARK  4 active torsions:
REMARK  status: ('A' for Active; 'I' for Inactive)
REMARK    1  A    between atoms: C_2  and  C_3
REMARK    2  A    between atoms: C_6  and  O_7
REMARK    3  A    between atoms: O_7  and  C_8
REMARK    4  A    between atoms: N_21  and  C_22
REMARK                            x       y       z     vdW  Elec       q    Type
REMARK                         _______ _______ _______ _____ _____    ______ ____
ROOT
ATOM      1  C   UNL     1       0.749   9.651  18.829  0.00  0.00    +0.000 A 
ATOM      2  C   UNL     1       1.496   9.085  17.802  0.00  0.00    +0.000 A 
ATOM      3  C   UNL     1       2.319   8.007  18.111  0.00  0.00    +0.000 A 
ATOM      4  C   UNL     1       2.314   7.496  19.409  0.00  0.00    +0.000 A 
ATOM      5  C   UNL     1       1.551   8.138  20.373  0.00  0.00    +0.000 A 
ATOM      6  N   UNL     1       0.763   9.202  20.115  0.00  0.00    +0.000 NA
ENDROOT
BRANCH   1   8
ATOM      7  O   UNL     1      -1.150  10.651  17.902  0.00  0.00    +0.000 OA
ATOM      8  C   UNL     1      -0.115  10.835  18.542  0.00  0.00    +0.000 C 
ATOM      9  N   UNL     1       0.295  12.090  19.018  0.00  0.00    +0.000 N 
ATOM     10  C   UNL     1      -0.609  13.217  18.861  0.00  0.00    +0.000 C 
ATOM     11  C   UNL     1      -0.925  14.006  20.127  0.00  0.00    +0.000 C 
ATOM     12  C   UNL     1       0.148  14.228  21.195  0.00  0.00    +0.000 C 
ATOM     13  N   UNL     1       1.562  14.338  20.838  0.00  0.00    +0.000 NA
ATOM     14  C   UNL     1       2.135  13.034  20.481  0.00  0.00    +0.000 C 
ATOM     15  C   UNL     1       1.723  12.420  19.140  0.00  0.00    +0.000 C 
BRANCH  13  16
ATOM     16  C   UNL     1       1.846  15.398  19.865  0.00  0.00    +0.000 C 
ATOM     17  C   UNL     1       1.610  16.784  20.517  0.00  0.00    +0.000 C 
ATOM     18  C   UNL     1       2.948  17.232  19.900  0.00  0.00    +0.000 C 
ATOM     19  C   UNL     1       3.360  15.748  19.879  0.00  0.00    +0.000 C 
ENDBRANCH  13  16
ENDBRANCH   1   8
BRANCH   4  20
ATOM     20  O   UNL     1       3.046   6.412  19.814  0.00  0.00    +0.000 OA
BRANCH  20  21
ATOM     21  C   UNL     1       3.449   5.503  18.866  0.00  0.00    +0.000 A 
ATOM     22  C   UNL     1       2.592   4.603  18.214  0.00  0.00    +0.000 A 
ATOM     23  C   UNL     1       3.087   3.753  17.226  0.00  0.00    +0.000 A 
ATOM     24  C   UNL     1       4.448   3.761  16.926  0.00  0.00    +0.000 A 
ATOM     25  C   UNL     1       5.309   4.612  17.620  0.00  0.00    +0.000 A 
ATOM     26 CL   UNL     1       6.994   4.586  17.274  0.00  0.00    +0.000 Cl
ATOM     27  C   UNL     1       4.818   5.484  18.585  0.00  0.00    +0.000 A 
ENDBRANCH  20  21
ENDBRANCH   4  20
TORSDOF 4
ENDMDL
MODEL 8
REMARK VINA RESULT:      -7.3      6.595     10.461
REMARK  Name = 
REMARK  4 active torsions:
REMARK  status: ('A' for Active; 'I' for Inactive)
REMARK    1  A    between atoms: C_2  and  C_3
REMARK    2  A    between atoms: C_6  and  O_7
REMARK    3  A    between atoms: O_7  and  C_8
REMARK    4  A    between atoms: N_21  and  C_22
REMARK                            x       y       z     vdW  Elec       q    Type
REMARK                         _______ _______ _______ _____ _____    ______ ____
ROOT
ATOM      1  C   UNL     1       7.073   7.143  17.388  0.00  0.00    +0.000 A 
ATOM      2  C   UNL     1       7.842   6.655  18.438  0.00  0.00    +0.000 A 
ATOM      3  C   UNL     1       8.652   7.553  19.126  0.00  0.00    +0.000 A 
ATOM      4  C   UNL     1       8.613   8.905  18.784  0.00  0.00    +0.000 A 
ATOM      5  C   UNL     1       7.830   9.297  17.708  0.00  0.00    +0.000 A 
ATOM      6  N   UNL     1       7.053   8.449  17.002  0.00  0.00    +0.000 NA
ENDROOT
BRANCH   1   8
ATOM      7  O   UNL     1       6.433   6.107  15.392  0.00  0.00    +0.000 OA
ATOM      8  C   UNL     1       6.222   6.200  16.601  0.00  0.00    +0.000 C 
ATOM      9  N   UNL     1       5.232   5.472  17.278  0.00  0.00    +0.000 N 
ATOM     10  C   UNL     1       4.498   4.456  16.543  0.00  0.00    +0.000 C 
ATOM     11  C   UNL     1       4.471   3.064  17.165  0.00  0.00    +0.000 C 
ATOM     12  C   UNL     1       4.398   2.891  18.684  0.00  0.00    +0.000 C 
ATOM     13  N   UNL     1       3.703   3.864  19.525  0.00  0.00    +0.000 NA
ATOM     14  C   UNL     1       4.473   5.107  19.667  0.00  0.00    +0.000 C 
ATOM     15  C   UNL     1       4.551   6.036  18.453  0.00  0.00    +0.000 C 
BRANCH  13  16
ATOM     16  C   UNL     1       2.301   4.074  19.153  0.00  0.00    +0.000 C 
ATOM     17  C   UNL     1       1.527   2.735  19.254  0.00  0.00    +0.000 C 
ATOM     18  C   UNL     1       0.411   3.507  19.983  0.00  0.00    +0.000 C 
ATOM     19  C   UNL     1       1.481   4.538  20.389  0.00  0.00    +0.000 C 
ENDBRANCH  13  16
ENDBRANCH   1   8
BRANCH   4  20
ATOM     20  O   UNL     1       9.329   9.883  19.422  0.00  0.00    +0.000 OA
BRANCH  20  21
ATOM     21  C   UNL     1       9.700  10.996  18.707  0.00  0.00    +0.000 A 
ATOM     22  C   UNL     1      10.932  11.143  18.051  0.00  0.00    +0.000 A 
ATOM     23  C   UNL     1      11.196  12.291  17.305  0.00  0.00    +0.000 A 
ATOM     24  C   UNL     1      10.255  13.317  17.258  0.00  0.00    +0.000 A 
ATOM     25  C   UNL     1       9.057  13.195  17.963  0.00  0.00    +0.000 A 
ATOM     26 CL   UNL     1       7.918  14.483  17.936  0.00  0.00    +0.000 Cl
ATOM     27  C   UNL     1       8.773  12.041  18.684  0.00  0.00    +0.000 A 
ENDBRANCH  20  21
ENDBRANCH   4  20
TORSDOF 4
ENDMDL
MODEL 9
REMARK VINA RESULT:      -7.1      3.374      4.964
REMARK  Name = 
REMARK  4 active torsions:
REMARK  status: ('A' for Active; 'I' for Inactive)
REMARK    1  A    between atoms: C_2  and  C_3
REMARK    2  A    between atoms: C_6  and  O_7
REMARK    3  A    between atoms: O_7  and  C_8
REMARK    4  A    between atoms: N_21  and  C_22
REMARK                            x       y       z     vdW  Elec       q    Type
REMARK                         _______ _______ _______ _____ _____    ______ ____
ROOT
ATOM      1  C   UNL     1       1.443   8.551  20.000  0.00  0.00    +0.000 A 
ATOM      2  C   UNL     1       2.000   8.626  18.728  0.00  0.00    +0.000 A 
ATOM      3  C   UNL     1       2.604   7.484  18.212  0.00  0.00    +0.000 A 
ATOM      4  C   UNL     1       2.571   6.302  18.952  0.00  0.00    +0.000 A 
ATOM      5  C   UNL     1       2.011   6.328  20.221  0.00  0.00    +0.000 A 
ATOM      6  N   UNL     1       1.441   7.423  20.763  0.00  0.00    +0.000 NA
ENDROOT
BRANCH   1   8
ATOM      7  O   UNL     1       1.283  10.184  21.666  0.00  0.00    +0.000 OA
ATOM      8  C   UNL     1       0.822   9.769  20.603  0.00  0.00    +0.000 C 
ATOM      9  N   UNL     1      -0.249  10.374  19.928  0.00  0.00    +0.000 N 
ATOM     10  C   UNL     1      -0.763  11.634  20.439  0.00  0.00    +0.000 C 
ATOM     11  C   UNL     1      -0.849  12.780  19.437  0.00  0.00    +0.000 C 
ATOM     12  C   UNL     1      -1.226  12.514  17.978  0.00  0.00    +0.000 C 
ATOM     13  N   UNL     1      -2.128  11.421  17.616  0.00  0.00    +0.000 NA
ATOM     14  C   UNL     1      -1.467  10.113  17.722  0.00  0.00    +0.000 C 
ATOM     15  C   UNL     1      -1.186   9.573  19.127  0.00  0.00    +0.000 C 
BRANCH  13  16
ATOM     16  C   UNL     1      -3.432  11.483  18.285  0.00  0.00    +0.000 C 
ATOM     17  C   UNL     1      -4.495  12.044  17.306  0.00  0.00    +0.000 C 
ATOM     18  C   UNL     1      -5.429  10.909  17.768  0.00  0.00    +0.000 C 
ATOM     19  C   UNL     1      -4.165  10.119  18.158  0.00  0.00    +0.000 C 
ENDBRANCH  13  16
ENDBRANCH   1   8
BRANCH   4  20
ATOM     20  O   UNL     1       3.090   5.109  18.524  0.00  0.00    +0.000 OA
BRANCH  20  21
ATOM     21  C   UNL     1       4.359   5.098  17.999  0.00  0.00    +0.000 A 
ATOM     22  C   UNL     1       4.662   4.794  16.663  0.00  0.00    +0.000 A 
ATOM     23  C   UNL     1       5.979   4.860  16.209  0.00  0.00    +0.000 A 
ATOM     24  C   UNL     1       7.002   5.177  17.101  0.00  0.00    +0.000 A 
ATOM     25  C   UNL     1       6.706   5.417  18.443  0.00  0.00    +0.000 A 
ATOM     26 CL   UNL     1       7.978   5.765  19.547  0.00  0.00    +0.000 Cl
ATOM     27  C   UNL     1       5.392   5.382  18.896  0.00  0.00    +0.000 A 
ENDBRANCH  20  21
ENDBRANCH   4  20
TORSDOF 4
ENDMDL
