MODEL 1
REMARK VINA RESULT:      -6.8      0.000      0.000
REMARK  Name = 
REMARK  5 active torsions:
REMARK  status: ('A' for Active; 'I' for Inactive)
REMARK    1  A    between atoms: C_1  and  N_2
REMARK    2  A    between atoms: N_2  and  C_3
REMARK    3  A    between atoms: C_3  and  C_4
REMARK    4  A    between atoms: C_11  and  O_12
REMARK    5  A    between atoms: O_12  and  C_13
REMARK                            x       y       z     vdW  Elec       q    Type
REMARK                         _______ _______ _______ _____ _____    ______ ____
ROOT
ATOM      1  C   UNL     1       1.878   3.287  18.565  0.00  0.00    +0.000 C 
ATOM      2  C   UNL     1       2.121   4.603  18.517  0.00  0.00    +0.000 C 
ATOM      3  C   UNL     1       3.261   5.172  17.773  0.00  0.00    +0.000 A 
ATOM      4  C   UNL     1       3.452   6.569  17.729  0.00  0.00    +0.000 A 
ATOM      5 CL   UNL     1       2.372   7.700  18.539  0.00  0.00    +0.000 Cl
ATOM      6  C   UNL     1       4.531   7.102  17.023  0.00  0.00    +0.000 A 
ATOM      7  C   UNL     1       5.423   6.266  16.361  0.00  0.00    +0.000 A 
ATOM      8  C   UNL     1       5.253   4.869  16.391  0.00  0.00    +0.000 A 
ATOM      9  C   UNL     1       4.162   4.318  17.100  0.00  0.00    +0.000 A 
ATOM     10  C   UNL     1       3.994   2.815  17.130  0.00  0.00    +0.000 C 
ATOM     11  C   UNL     1       2.756   2.270  17.875  0.00  0.00    +0.000 C 
ENDROOT
BRANCH   8  12
ATOM     12  O   UNL     1       6.114   4.029  15.754  0.00  0.00    +0.000 OA
ATOM     13  C   UNL     1       6.332   3.981  14.391  0.00  0.00    +0.000 C 
ENDBRANCH   8  12
BRANCH   1  14
ATOM     14  C   UNL     1       0.659   2.796  19.310  0.00  0.00    +0.000 C 
BRANCH  14  16
ATOM     15  C   UNL     1       1.651   2.559  21.525  0.00  0.00    +0.000 C 
ATOM     16  N   UNL     1       0.655   3.259  20.706  0.00  0.00    +0.000 NA
ATOM     17  H   UNL     1       0.895   4.278  20.708  0.00  0.00    +0.000 HD
ENDBRANCH  14  16
ENDBRANCH   1  14
TORSDOF 3
ENDMDL
MODEL 2
REMARK VINA RESULT:      -6.4      3.440      5.901
REMARK  Name = 
REMARK  5 active torsions:
REMARK  status: ('A' for Active; 'I' for Inactive)
REMARK    1  A    between atoms: C_1  and  N_2
REMARK    2  A    between atoms: N_2  and  C_3
REMARK    3  A    between atoms: C_3  and  C_4
REMARK    4  A    between atoms: C_11  and  O_12
REMARK    5  A    between atoms: O_12  and  C_13
REMARK                            x       y       z     vdW  Elec       q    Type
REMARK                         _______ _______ _______ _____ _____    ______ ____
ROOT
ATOM      1  C   UNL     1       5.369   4.861  15.864  0.00  0.00    +0.000 C 
ATOM      2  C   UNL     1       4.740   3.959  16.627  0.00  0.00    +0.000 C 
ATOM      3  C   UNL     1       3.813   4.343  17.708  0.00  0.00    +0.000 A 
ATOM      4  C   UNL     1       3.152   3.349  18.461  0.00  0.00    +0.000 A 
ATOM      5 CL   UNL     1       3.383   1.627  18.169  0.00  0.00    +0.000 Cl
ATOM      6  C   UNL     1       2.276   3.718  19.483  0.00  0.00    +0.000 A 
ATOM      7  C   UNL     1       2.047   5.060  19.766  0.00  0.00    +0.000 A 
ATOM      8  C   UNL     1       2.696   6.068  19.029  0.00  0.00    +0.000 A 
ATOM      9  C   UNL     1       3.583   5.706  17.990  0.00  0.00    +0.000 A 
ATOM     10  C   UNL     1       4.278   6.800  17.209  0.00  0.00    +0.000 C 
ATOM     11  C   UNL     1       5.196   6.350  16.052  0.00  0.00    +0.000 C 
ENDROOT
BRANCH   8  12
ATOM     12  O   UNL     1       2.492   7.389  19.289  0.00  0.00    +0.000 OA
ATOM     13  C   UNL     1       1.704   7.897  20.303  0.00  0.00    +0.000 C 
ENDBRANCH   8  12
BRANCH   1  14
ATOM     14  C   UNL     1       6.263   4.378  14.746  0.00  0.00    +0.000 C 
BRANCH  14  16
ATOM     15  C   UNL     1       7.862   5.279  13.142  0.00  0.00    +0.000 C 
ATOM     16  N   UNL     1       7.403   5.282  14.535  0.00  0.00    +0.000 NA
ATOM     17  H   UNL     1       7.091   6.254  14.769  0.00  0.00    +0.000 HD
ENDBRANCH  14  16
ENDBRANCH   1  14
TORSDOF 3
ENDMDL
MODEL 3
REMARK VINA RESULT:      -6.2      3.478      5.616
REMARK  Name = 
REMARK  5 active torsions:
REMARK  status: ('A' for Active; 'I' for Inactive)
REMARK    1  A    between atoms: C_1  and  N_2
REMARK    2  A    between atoms: N_2  and  C_3
REMARK    3  A    between atoms: C_3  and  C_4
REMARK    4  A    between atoms: C_11  and  O_12
REMARK    5  A    between atoms: O_12  and  C_13
REMARK                            x       y       z     vdW  Elec       q    Type
REMARK                         _______ _______ _______ _____ _____    ______ ____
ROOT
ATOM      1  C   UNL     1       4.888   4.982  16.574  0.00  0.00    +0.000 C 
ATOM      2  C   UNL     1       4.240   4.106  17.353  0.00  0.00    +0.000 C 
ATOM      3  C   UNL     1       3.321   4.529  18.427  0.00  0.00    +0.000 A 
ATOM      4  C   UNL     1       2.640   3.564  19.198  0.00  0.00    +0.000 A 
ATOM      5 CL   UNL     1       2.835   1.832  18.938  0.00  0.00    +0.000 Cl
ATOM      6  C   UNL     1       1.772   3.969  20.212  0.00  0.00    +0.000 A 
ATOM      7  C   UNL     1       1.572   5.321  20.472  0.00  0.00    +0.000 A 
ATOM      8  C   UNL     1       2.242   6.302  19.716  0.00  0.00    +0.000 A 
ATOM      9  C   UNL     1       3.120   5.903  18.684  0.00  0.00    +0.000 A 
ATOM     10  C   UNL     1       3.838   6.967  17.884  0.00  0.00    +0.000 C 
ATOM     11  C   UNL     1       4.746   6.477  16.736  0.00  0.00    +0.000 C 
ENDROOT
BRANCH   8  12
ATOM     12  O   UNL     1       2.065   7.631  19.953  0.00  0.00    +0.000 OA
ATOM     13  C   UNL     1       1.312   8.174  20.974  0.00  0.00    +0.000 C 
ENDBRANCH   8  12
BRANCH   1  14
ATOM     14  C   UNL     1       5.771   4.459  15.466  0.00  0.00    +0.000 C 
BRANCH  14  16
ATOM     15  C   UNL     1       7.602   4.484  17.075  0.00  0.00    +0.000 C 
ATOM     16  N   UNL     1       7.186   4.785  15.701  0.00  0.00    +0.000 NA
ATOM     17  H   UNL     1       7.764   4.199  15.054  0.00  0.00    +0.000 HD
ENDBRANCH  14  16
ENDBRANCH   1  14
TORSDOF 3
ENDMDL
MODEL 4
REMARK VINA RESULT:      -6.1      2.919      5.171
REMARK  Name = 
REMARK  5 active torsions:
REMARK  status: ('A' for Active; 'I' for Inactive)
REMARK    1  A    between atoms: C_1  and  N_2
REMARK    2  A    between atoms: N_2  and  C_3
REMARK    3  A    between atoms: C_3  and  C_4
REMARK    4  A    between atoms: C_11  and  O_12
REMARK    5  A    between atoms: O_12  and  C_13
REMARK                            x       y       z     vdW  Elec       q    Type
REMARK                         _______ _______ _______ _____ _____    ______ ____
ROOT
ATOM      1  C   UNL     1       4.877   5.234  16.527  0.00  0.00    +0.000 C 
ATOM      2  C   UNL     1       4.115   6.197  17.060  0.00  0.00    +0.000 C 
ATOM      3  C   UNL     1       3.358   6.008  18.311  0.00  0.00    +0.000 A 
ATOM      4  C   UNL     1       2.595   7.067  18.846  0.00  0.00    +0.000 A 
ATOM      5 CL   UNL     1       2.499   8.649  18.076  0.00  0.00    +0.000 Cl
ATOM      6  C   UNL     1       1.881   6.883  20.030  0.00  0.00    +0.000 A 
ATOM      7  C   UNL     1       1.912   5.659  20.690  0.00  0.00    +0.000 A 
ATOM      8  C   UNL     1       2.665   4.587  20.175  0.00  0.00    +0.000 A 
ATOM      9  C   UNL     1       3.396   4.764  18.979  0.00  0.00    +0.000 A 
ATOM     10  C   UNL     1       4.195   3.602  18.433  0.00  0.00    +0.000 C 
ATOM     11  C   UNL     1       5.015   3.865  17.151  0.00  0.00    +0.000 C 
ENDROOT
BRANCH   8  12
ATOM     12  O   UNL     1       2.710   3.378  20.801  0.00  0.00    +0.000 OA
ATOM     13  C   UNL     1       1.662   2.780  21.472  0.00  0.00    +0.000 C 
ENDBRANCH   8  12
BRANCH   1  14
ATOM     14  C   UNL     1       5.658   5.532  15.269  0.00  0.00    +0.000 C 
BRANCH  14  16
ATOM     15  C   UNL     1       6.198   3.830  13.609  0.00  0.00    +0.000 C 
ATOM     16  N   UNL     1       6.547   4.418  14.907  0.00  0.00    +0.000 NA
ATOM     17  H   UNL     1       7.523   4.793  14.838  0.00  0.00    +0.000 HD
ENDBRANCH  14  16
ENDBRANCH   1  14
TORSDOF 3
ENDMDL
MODEL 5
REMARK VINA RESULT:      -6.1      3.060      4.418
REMARK  Name = 
REMARK  5 active torsions:
REMARK  status: ('A' for Active; 'I' for Inactive)
REMARK    1  A    between atoms: C_1  and  N_2
REMARK    2  A    between atoms: N_2  and  C_3
REMARK    3  A    between atoms: C_3  and  C_4
REMARK    4  A    between atoms: C_11  and  O_12
REMARK    5  A    between atoms: O_12  and  C_13
REMARK                            x       y       z     vdW  Elec       q    Type
REMARK                         _______ _______ _______ _____ _____    ______ ____
ROOT
ATOM      1  C   UNL     1       1.906   6.893  20.113  0.00  0.00    +0.000 C 
ATOM      2  C   UNL     1       1.804   5.606  20.467  0.00  0.00    +0.000 C 
ATOM      3  C   UNL     1       2.357   4.512  19.647  0.00  0.00    +0.000 A 
ATOM      4  C   UNL     1       2.250   3.174  20.083  0.00  0.00    +0.000 A 
ATOM      5 CL   UNL     1       1.467   2.731  21.598  0.00  0.00    +0.000 Cl
ATOM      6  C   UNL     1       2.775   2.143  19.304  0.00  0.00    +0.000 A 
ATOM      7  C   UNL     1       3.406   2.422  18.096  0.00  0.00    +0.000 A 
ATOM      8  C   UNL     1       3.524   3.749  17.640  0.00  0.00    +0.000 A 
ATOM      9  C   UNL     1       2.999   4.801  18.423  0.00  0.00    +0.000 A 
ATOM     10  C   UNL     1       3.128   6.221  17.918  0.00  0.00    +0.000 C 
ATOM     11  C   UNL     1       2.582   7.336  18.837  0.00  0.00    +0.000 C 
ENDROOT
BRANCH   8  12
ATOM     12  O   UNL     1       4.134   4.048  16.460  0.00  0.00    +0.000 OA
ATOM     13  C   UNL     1       5.482   3.913  16.194  0.00  0.00    +0.000 C 
ENDBRANCH   8  12
BRANCH   1  14
ATOM     14  C   UNL     1       1.353   7.952  21.038  0.00  0.00    +0.000 C 
BRANCH  14  16
ATOM     15  C   UNL     1      -0.218   9.798  20.784  0.00  0.00    +0.000 C 
ATOM     16  N   UNL     1       1.031   9.190  20.313  0.00  0.00    +0.000 NA
ATOM     17  H   UNL     1       1.806   9.873  20.483  0.00  0.00    +0.000 HD
ENDBRANCH  14  16
ENDBRANCH   1  14
TORSDOF 3
ENDMDL
MODEL 6
REMARK VINA RESULT:      -6.1      3.312      5.622
REMARK  Name = 
REMARK  5 active torsions:
REMARK  status: ('A' for Active; 'I' for Inactive)
REMARK    1  A    between atoms: C_1  and  N_2
REMARK    2  A    between atoms: N_2  and  C_3
REMARK    3  A    between atoms: C_3  and  C_4
REMARK    4  A    between atoms: C_11  and  O_12
REMARK    5  A    between atoms: O_12  and  C_13
REMARK                            x       y       z     vdW  Elec       q    Type
REMARK                         _______ _______ _______ _____ _____    ______ ____
ROOT
ATOM      1  C   UNL     1       5.476   4.480  15.813  0.00  0.00    +0.000 C 
ATOM      2  C   UNL     1       4.680   3.817  16.661  0.00  0.00    +0.000 C 
ATOM      3  C   UNL     1       3.756   4.505  17.583  0.00  0.00    +0.000 A 
ATOM      4  C   UNL     1       2.916   3.756  18.434  0.00  0.00    +0.000 A 
ATOM      5 CL   UNL     1       2.914   1.994  18.454  0.00  0.00    +0.000 Cl
ATOM      6  C   UNL     1       2.044   4.411  19.303  0.00  0.00    +0.000 A 
ATOM      7  C   UNL     1       1.994   5.800  19.339  0.00  0.00    +0.000 A 
ATOM      8  C   UNL     1       2.824   6.568  18.501  0.00  0.00    +0.000 A 
ATOM      9  C   UNL     1       3.709   5.915  17.613  0.00  0.00    +0.000 A 
ATOM     10  C   UNL     1       4.598   6.752  16.721  0.00  0.00    +0.000 C 
ATOM     11  C   UNL     1       5.509   5.988  15.735  0.00  0.00    +0.000 C 
ENDROOT
BRANCH   8  12
ATOM     12  O   UNL     1       2.797   7.930  18.519  0.00  0.00    +0.000 OA
ATOM     13  C   UNL     1       1.826   8.723  17.943  0.00  0.00    +0.000 C 
ENDBRANCH   8  12
BRANCH   1  14
ATOM     14  C   UNL     1       6.355   3.693  14.869  0.00  0.00    +0.000 C 
BRANCH  14  16
ATOM     15  C   UNL     1       6.256   3.480  12.443  0.00  0.00    +0.000 C 
ATOM     16  N   UNL     1       6.509   4.376  13.576  0.00  0.00    +0.000 NA
ATOM     17  H   UNL     1       5.807   5.152  13.537  0.00  0.00    +0.000 HD
ENDBRANCH  14  16
ENDBRANCH   1  14
TORSDOF 3
ENDMDL
MODEL 7
REMARK VINA RESULT:      -6.1      3.514      5.810
REMARK  Name = 
REMARK  5 active torsions:
REMARK  status: ('A' for Active; 'I' for Inactive)
REMARK    1  A    between atoms: C_1  and  N_2
REMARK    2  A    between atoms: N_2  and  C_3
REMARK    3  A    between atoms: C_3  and  C_4
REMARK    4  A    between atoms: C_11  and  O_12
REMARK    5  A    between atoms: O_12  and  C_13
REMARK                            x       y       z     vdW  Elec       q    Type
REMARK                         _______ _______ _______ _____ _____    ______ ____
ROOT
ATOM      1  C   UNL     1       5.758   5.196  16.977  0.00  0.00    +0.000 C 
ATOM      2  C   UNL     1       5.258   4.354  17.890  0.00  0.00    +0.000 C 
ATOM      3  C   UNL     1       4.130   4.716  18.769  0.00  0.00    +0.000 A 
ATOM      4  C   UNL     1       3.621   3.778  19.692  0.00  0.00    +0.000 A 
ATOM      5 CL   UNL     1       4.280   2.152  19.853  0.00  0.00    +0.000 Cl
ATOM      6  C   UNL     1       2.554   4.126  20.521  0.00  0.00    +0.000 A 
ATOM      7  C   UNL     1       1.987   5.394  20.447  0.00  0.00    +0.000 A 
ATOM      8  C   UNL     1       2.479   6.346  19.535  0.00  0.00    +0.000 A 
ATOM      9  C   UNL     1       3.556   6.003  18.687  0.00  0.00    +0.000 A 
ATOM     10  C   UNL     1       4.079   7.038  17.716  0.00  0.00    +0.000 C 
ATOM     11  C   UNL     1       5.223   6.594  16.779  0.00  0.00    +0.000 C 
ENDROOT
BRANCH   8  12
ATOM     12  O   UNL     1       1.942   7.594  19.444  0.00  0.00    +0.000 OA
ATOM     13  C   UNL     1       1.480   8.351  20.503  0.00  0.00    +0.000 C 
ENDBRANCH   8  12
BRANCH   1  14
ATOM     14  C   UNL     1       6.882   4.723  16.084  0.00  0.00    +0.000 C 
BRANCH  14  16
ATOM     15  C   UNL     1       6.245   4.024  13.837  0.00  0.00    +0.000 C 
ATOM     16  N   UNL     1       6.675   5.138  14.689  0.00  0.00    +0.000 NA
ATOM     17  H   UNL     1       5.920   5.863  14.677  0.00  0.00    +0.000 HD
ENDBRANCH  14  16
ENDBRANCH   1  14
TORSDOF 3
ENDMDL
MODEL 8
REMARK VINA RESULT:      -6.1      2.095      2.503
REMARK  Name = 
REMARK  5 active torsions:
REMARK  status: ('A' for Active; 'I' for Inactive)
REMARK    1  A    between atoms: C_1  and  N_2
REMARK    2  A    between atoms: N_2  and  C_3
REMARK    3  A    between atoms: C_3  and  C_4
REMARK    4  A    between atoms: C_11  and  O_12
REMARK    5  A    between atoms: O_12  and  C_13
REMARK                            x       y       z     vdW  Elec       q    Type
REMARK                         _______ _______ _______ _____ _____    ______ ____
ROOT
ATOM      1  C   UNL     1       3.134   4.705  19.362  0.00  0.00    +0.000 C 
ATOM      2  C   UNL     1       4.450   4.935  19.449  0.00  0.00    +0.000 C 
ATOM      3  C   UNL     1       5.355   4.813  18.291  0.00  0.00    +0.000 A 
ATOM      4  C   UNL     1       6.730   5.099  18.432  0.00  0.00    +0.000 A 
ATOM      5 CL   UNL     1       7.440   5.606  19.962  0.00  0.00    +0.000 Cl
ATOM      6  C   UNL     1       7.581   4.982  17.333  0.00  0.00    +0.000 A 
ATOM      7  C   UNL     1       7.087   4.586  16.096  0.00  0.00    +0.000 A 
ATOM      8  C   UNL     1       5.719   4.295  15.931  0.00  0.00    +0.000 A 
ATOM      9  C   UNL     1       4.847   4.413  17.036  0.00  0.00    +0.000 A 
ATOM     10  C   UNL     1       3.381   4.091  16.847  0.00  0.00    +0.000 C 
ATOM     11  C   UNL     1       2.464   4.286  18.074  0.00  0.00    +0.000 C 
ENDROOT
BRANCH   8  12
ATOM     12  O   UNL     1       5.210   3.901  14.731  0.00  0.00    +0.000 OA
ATOM     13  C   UNL     1       5.912   3.827  13.544  0.00  0.00    +0.000 C 
ENDBRANCH   8  12
BRANCH   1  14
ATOM     14  C   UNL     1       2.274   4.902  20.588  0.00  0.00    +0.000 C 
BRANCH  14  16
ATOM     15  C   UNL     1       1.523   2.793  21.553  0.00  0.00    +0.000 C 
ATOM     16  N   UNL     1       1.193   3.907  20.657  0.00  0.00    +0.000 NA
ATOM     17  H   UNL     1       0.341   4.383  21.036  0.00  0.00    +0.000 HD
ENDBRANCH  14  16
ENDBRANCH   1  14
TORSDOF 3
ENDMDL
MODEL 9
REMARK VINA RESULT:      -5.9      2.942      5.089
REMARK  Name = 
REMARK  5 active torsions:
REMARK  status: ('A' for Active; 'I' for Inactive)
REMARK    1  A    between atoms: C_1  and  N_2
REMARK    2  A    between atoms: N_2  and  C_3
REMARK    3  A    between atoms: C_3  and  C_4
REMARK    4  A    between atoms: C_11  and  O_12
REMARK    5  A    between atoms: O_12  and  C_13
REMARK                            x       y       z     vdW  Elec       q    Type
REMARK                         _______ _______ _______ _____ _____    ______ ____
ROOT
ATOM      1  C   UNL     1       4.903   5.156  16.535  0.00  0.00    +0.000 C 
ATOM      2  C   UNL     1       4.147   6.089  17.126  0.00  0.00    +0.000 C 
ATOM      3  C   UNL     1       3.326   5.805  18.319  0.00  0.00    +0.000 A 
ATOM      4  C   UNL     1       2.571   6.833  18.921  0.00  0.00    +0.000 A 
ATOM      5 CL   UNL     1       2.557   8.484  18.306  0.00  0.00    +0.000 Cl
ATOM      6  C   UNL     1       1.797   6.559  20.049  0.00  0.00    +0.000 A 
ATOM      7  C   UNL     1       1.761   5.277  20.586  0.00  0.00    +0.000 A 
ATOM      8  C   UNL     1       2.505   4.235  20.001  0.00  0.00    +0.000 A 
ATOM      9  C   UNL     1       3.296   4.502  18.861  0.00  0.00    +0.000 A 
ATOM     10  C   UNL     1       4.085   3.372  18.239  0.00  0.00    +0.000 C 
ATOM     11  C   UNL     1       4.972   3.730  17.027  0.00  0.00    +0.000 C 
ENDROOT
BRANCH   8  12
ATOM     12  O   UNL     1       2.485   2.971  20.506  0.00  0.00    +0.000 OA
ATOM     13  C   UNL     1       1.755   2.552  21.601  0.00  0.00    +0.000 C 
ENDBRANCH   8  12
BRANCH   1  14
ATOM     14  C   UNL     1       5.751   5.548  15.347  0.00  0.00    +0.000 C 
BRANCH  14  16
ATOM     15  C   UNL     1       7.341   6.422  16.977  0.00  0.00    +0.000 C 
ATOM     16  N   UNL     1       7.168   5.690  15.717  0.00  0.00    +0.000 NA
ATOM     17  H   UNL     1       7.565   4.730  15.845  0.00  0.00    +0.000 HD
ENDBRANCH  14  16
ENDBRANCH   1  14
TORSDOF 3
ENDMDL
