MODEL 1
REMARK VINA RESULT:      -7.5      0.000      0.000
REMARK  Name = 
REMARK  12 active torsions:
REMARK  status: ('A' for Active; 'I' for Inactive)
REMARK    1  A    between atoms: C_1  and  C_2
REMARK    2  A    between atoms: C_3  and  N_4
REMARK    3  A    between atoms: C_5  and  C_7
REMARK    4  A    between atoms: C_7  and  C_16
REMARK    5  A    between atoms: N_8  and  C_9
REMARK    6  A    between atoms: C_9  and  C_10
REMARK    7  A    between atoms: C_10  and  C_11
REMARK    8  A    between atoms: C_10  and  C_12
REMARK    9  A    between atoms: C_10  and  C_13
REMARK   10  A    between atoms: C_13  and  O_15
REMARK   11  A    between atoms: N_24  and  S_25
REMARK   12  A    between atoms: S_25  and  O_28
REMARK                            x       y       z     vdW  Elec       q    Type
REMARK                         _______ _______ _______ _____ _____    ______ ____
ROOT
ATOM      1  C   UNL     1       2.685   6.298  18.982  0.00  0.00    +0.000 C 
ATOM      2  N   UNL     1       3.581   6.561  18.069  0.00  0.00    +0.000 NA
ENDROOT
BRANCH   1   3
ATOM      3  C   UNL     1       2.190   4.955  19.368  0.00  0.00    +0.000 A 
ATOM      4  C   UNL     1       1.408   4.125  18.578  0.00  0.00    +0.000 A 
ATOM      5  S   UNL     1       1.053   2.657  19.395  0.00  0.00    +0.000 S 
ATOM      6  C   UNL     1       1.932   3.212  20.750  0.00  0.00    +0.000 A 
ATOM      7  N   UNL     1       2.069   2.488  21.867  0.00  0.00    +0.000 N 
ATOM      8  N   UNL     1       2.472   4.393  20.608  0.00  0.00    +0.000 NA
ATOM      9  H   UNL     1       1.939   1.487  21.818  0.00  0.00    +0.000 HD
ATOM     10  H   UNL     1       2.806   2.784  22.501  0.00  0.00    +0.000 HD
ENDBRANCH   1   3
BRANCH   1  12
ATOM     11  N   UNL     1       1.851   8.637  18.893  0.00  0.00    +0.000 N 
ATOM     12  C   UNL     1       2.098   7.537  19.698  0.00  0.00    +0.000 C 
ATOM     13  O   UNL     1       1.850   7.497  20.899  0.00  0.00    +0.000 OA
ATOM     14  H   UNL     1       2.043   8.515  17.900  0.00  0.00    +0.000 HD
BRANCH  11  17
ATOM     15  C   UNL     1       1.490  12.464  18.668  0.00  0.00    +0.000 C 
ATOM     16  C   UNL     1       1.001  11.051  18.401  0.00  0.00    +0.000 C 
ATOM     17  C   UNL     1       1.390   9.957  19.447  0.00  0.00    +0.000 C 
ATOM     18  C   UNL     1      -0.144  10.025  19.847  0.00  0.00    +0.000 C 
ATOM     19  O   UNL     1      -0.879   9.484  20.640  0.00  0.00    +0.000 OA
ATOM     20  N   UNL     1      -0.410  10.916  18.812  0.00  0.00    +0.000 N 
BRANCH  20  21
ATOM     21  S   UNL     1      -1.796  11.027  17.932  0.00  0.00    +0.000 S 
ATOM     22  O   UNL     1      -1.966   9.851  17.118  0.00  0.00    +0.000 OA
ATOM     23  O   UNL     1      -2.835  11.497  18.823  0.00  0.00    +0.000 OA
BRANCH  21  24
ATOM     24  O   UNL     1      -1.484  12.226  16.908  0.00  0.00    +0.000 OA
ATOM     25  H   UNL     1      -2.241  12.276  16.279  0.00  0.00    +0.000 HD
ENDBRANCH  21  24
ENDBRANCH  20  21
ENDBRANCH  11  17
ENDBRANCH   1  12
BRANCH   2  26
ATOM     26  C   UNL     1       4.109   5.438  17.270  0.00  0.00    +0.000 C 
BRANCH  26  27
ATOM     27  C   UNL     1       5.645   5.485  17.088  0.00  0.00    +0.000 C 
ATOM     28  C   UNL     1       6.034   4.980  15.691  0.00  0.00    +0.000 C 
ATOM     29  C   UNL     1       6.150   6.915  17.321  0.00  0.00    +0.000 C 
BRANCH  27  30
ATOM     30  C   UNL     1       6.247   4.545  18.150  0.00  0.00    +0.000 C 
ATOM     31  O   UNL     1       5.644   4.120  19.127  0.00  0.00    +0.000 OA
BRANCH  30  32
ATOM     32  O   UNL     1       7.533   4.198  17.933  0.00  0.00    +0.000 OA
ATOM     33  H   UNL     1       8.159   4.456  18.633  0.00  0.00    +0.000 HD
ENDBRANCH  30  32
ENDBRANCH  27  30
ENDBRANCH  26  27
ENDBRANCH   2  26
TORSDOF 9
ENDMDL
MODEL 2
REMARK VINA RESULT:      -7.5      0.931      1.023
REMARK  Name = 
REMARK  12 active torsions:
REMARK  status: ('A' for Active; 'I' for Inactive)
REMARK    1  A    between atoms: C_1  and  C_2
REMARK    2  A    between atoms: C_3  and  N_4
REMARK    3  A    between atoms: C_5  and  C_7
REMARK    4  A    between atoms: C_7  and  C_16
REMARK    5  A    between atoms: N_8  and  C_9
REMARK    6  A    between atoms: C_9  and  C_10
REMARK    7  A    between atoms: C_10  and  C_11
REMARK    8  A    between atoms: C_10  and  C_12
REMARK    9  A    between atoms: C_10  and  C_13
REMARK   10  A    between atoms: C_13  and  O_15
REMARK   11  A    between atoms: N_24  and  S_25
REMARK   12  A    between atoms: S_25  and  O_28
REMARK                            x       y       z     vdW  Elec       q    Type
REMARK                         _______ _______ _______ _____ _____    ______ ____
ROOT
ATOM      1  C   UNL     1       2.576   6.286  19.147  0.00  0.00    +0.000 C 
ATOM      2  N   UNL     1       3.422   6.520  18.181  0.00  0.00    +0.000 NA
ENDROOT
BRANCH   1   3
ATOM      3  C   UNL     1       2.122   4.955  19.616  0.00  0.00    +0.000 A 
ATOM      4  C   UNL     1       2.278   4.453  20.900  0.00  0.00    +0.000 A 
ATOM      5  S   UNL     1       1.611   2.876  21.028  0.00  0.00    +0.000 S 
ATOM      6  C   UNL     1       1.175   2.940  19.378  0.00  0.00    +0.000 A 
ATOM      7  N   UNL     1       0.557   1.928  18.756  0.00  0.00    +0.000 N 
ATOM      8  N   UNL     1       1.481   4.055  18.771  0.00  0.00    +0.000 NA
ATOM      9  H   UNL     1       0.050   1.252  19.311  0.00  0.00    +0.000 HD
ATOM     10  H   UNL     1       0.119   2.155  17.867  0.00  0.00    +0.000 HD
ENDBRANCH   1   3
BRANCH   1  12
ATOM     11  N   UNL     1       1.839   8.656  19.022  0.00  0.00    +0.000 N 
ATOM     12  C   UNL     1       2.005   7.547  19.836  0.00  0.00    +0.000 C 
ATOM     13  O   UNL     1       1.697   7.517  21.024  0.00  0.00    +0.000 OA
ATOM     14  H   UNL     1       2.074   8.526  18.040  0.00  0.00    +0.000 HD
BRANCH  11  17
ATOM     15  C   UNL     1       1.584  12.489  18.754  0.00  0.00    +0.000 C 
ATOM     16  C   UNL     1       1.062  11.086  18.493  0.00  0.00    +0.000 C 
ATOM     17  C   UNL     1       1.405   9.993  19.557  0.00  0.00    +0.000 C 
ATOM     18  C   UNL     1      -0.133  10.105  19.930  0.00  0.00    +0.000 C 
ATOM     19  O   UNL     1      -0.895   9.591  20.716  0.00  0.00    +0.000 OA
ATOM     20  N   UNL     1      -0.359  10.992  18.882  0.00  0.00    +0.000 N 
BRANCH  20  21
ATOM     21  S   UNL     1      -1.727  11.131  17.979  0.00  0.00    +0.000 S 
ATOM     22  O   UNL     1      -1.842  10.017  17.074  0.00  0.00    +0.000 OA
ATOM     23  O   UNL     1      -2.800  11.502  18.876  0.00  0.00    +0.000 OA
BRANCH  21  24
ATOM     24  O   UNL     1      -1.428  12.414  17.057  0.00  0.00    +0.000 OA
ATOM     25  H   UNL     1      -1.374  12.097  16.125  0.00  0.00    +0.000 HD
ENDBRANCH  21  24
ENDBRANCH  20  21
ENDBRANCH  11  17
ENDBRANCH   1  12
BRANCH   2  26
ATOM     26  C   UNL     1       3.929   5.370  17.406  0.00  0.00    +0.000 C 
BRANCH  26  27
ATOM     27  C   UNL     1       5.450   5.440  17.131  0.00  0.00    +0.000 C 
ATOM     28  C   UNL     1       5.768   4.881  15.737  0.00  0.00    +0.000 C 
ATOM     29  C   UNL     1       5.935   6.890  17.270  0.00  0.00    +0.000 C 
BRANCH  27  30
ATOM     30  C   UNL     1       6.135   4.562  18.196  0.00  0.00    +0.000 C 
ATOM     31  O   UNL     1       5.591   4.146  19.211  0.00  0.00    +0.000 OA
BRANCH  30  32
ATOM     32  O   UNL     1       7.424   4.260  17.935  0.00  0.00    +0.000 OA
ATOM     33  H   UNL     1       7.576   3.383  17.539  0.00  0.00    +0.000 HD
ENDBRANCH  30  32
ENDBRANCH  27  30
ENDBRANCH  26  27
ENDBRANCH   2  26
TORSDOF 9
ENDMDL
MODEL 3
REMARK VINA RESULT:      -7.5      2.802      4.349
REMARK  Name = 
REMARK  12 active torsions:
REMARK  status: ('A' for Active; 'I' for Inactive)
REMARK    1  A    between atoms: C_1  and  C_2
REMARK    2  A    between atoms: C_3  and  N_4
REMARK    3  A    between atoms: C_5  and  C_7
REMARK    4  A    between atoms: C_7  and  C_16
REMARK    5  A    between atoms: N_8  and  C_9
REMARK    6  A    between atoms: C_9  and  C_10
REMARK    7  A    between atoms: C_10  and  C_11
REMARK    8  A    between atoms: C_10  and  C_12
REMARK    9  A    between atoms: C_10  and  C_13
REMARK   10  A    between atoms: C_13  and  O_15
REMARK   11  A    between atoms: N_24  and  S_25
REMARK   12  A    between atoms: S_25  and  O_28
REMARK                            x       y       z     vdW  Elec       q    Type
REMARK                         _______ _______ _______ _____ _____    ______ ____
ROOT
ATOM      1  C   UNL     1       3.388   6.317  18.561  0.00  0.00    +0.000 C 
ATOM      2  N   UNL     1       2.690   5.898  19.582  0.00  0.00    +0.000 NA
ENDROOT
BRANCH   1   3
ATOM      3  C   UNL     1       4.624   5.697  18.027  0.00  0.00    +0.000 A 
ATOM      4  C   UNL     1       5.916   5.971  18.454  0.00  0.00    +0.000 A 
ATOM      5  S   UNL     1       7.062   5.038  17.580  0.00  0.00    +0.000 S 
ATOM      6  C   UNL     1       5.790   4.345  16.675  0.00  0.00    +0.000 A 
ATOM      7  N   UNL     1       6.001   3.441  15.710  0.00  0.00    +0.000 N 
ATOM      8  N   UNL     1       4.594   4.755  17.004  0.00  0.00    +0.000 NA
ATOM      9  H   UNL     1       6.864   2.915  15.716  0.00  0.00    +0.000 HD
ATOM     10  H   UNL     1       5.187   2.910  15.414  0.00  0.00    +0.000 HD
ENDBRANCH   1   3
BRANCH   1  12
ATOM     11  N   UNL     1       1.798   8.227  18.528  0.00  0.00    +0.000 N 
ATOM     12  C   UNL     1       2.848   7.596  17.880  0.00  0.00    +0.000 C 
ATOM     13  O   UNL     1       3.366   8.012  16.848  0.00  0.00    +0.000 OA
ATOM     14  H   UNL     1       1.506   7.811  19.410  0.00  0.00    +0.000 HD
BRANCH  11  17
ATOM     15  C   UNL     1      -1.384  10.317  17.955  0.00  0.00    +0.000 C 
ATOM     16  C   UNL     1      -0.143   9.951  18.750  0.00  0.00    +0.000 C 
ATOM     17  C   UNL     1       1.083   9.412  17.942  0.00  0.00    +0.000 C 
ATOM     18  C   UNL     1       1.721  10.824  18.283  0.00  0.00    +0.000 C 
ATOM     19  O   UNL     1       2.762  11.402  18.071  0.00  0.00    +0.000 OA
ATOM     20  N   UNL     1       0.629  11.167  19.074  0.00  0.00    +0.000 N 
BRANCH  20  21
ATOM     21  S   UNL     1       0.642  12.095  20.432  0.00  0.00    +0.000 S 
ATOM     22  O   UNL     1      -0.629  12.750  20.602  0.00  0.00    +0.000 OA
ATOM     23  O   UNL     1       1.244  11.308  21.487  0.00  0.00    +0.000 OA
BRANCH  21  24
ATOM     24  O   UNL     1       1.688  13.260  20.069  0.00  0.00    +0.000 OA
ATOM     25  H   UNL     1       2.520  13.070  20.562  0.00  0.00    +0.000 HD
ENDBRANCH  21  24
ENDBRANCH  20  21
ENDBRANCH  11  17
ENDBRANCH   1  12
BRANCH   2  26
ATOM     26  C   UNL     1       3.202   4.745  20.348  0.00  0.00    +0.000 C 
BRANCH  26  27
ATOM     27  C   UNL     1       2.234   3.537  20.356  0.00  0.00    +0.000 C 
ATOM     28  C   UNL     1       2.393   2.733  21.654  0.00  0.00    +0.000 C 
ATOM     29  C   UNL     1       0.791   4.029  20.181  0.00  0.00    +0.000 C 
BRANCH  27  30
ATOM     30  C   UNL     1       2.625   2.647  19.160  0.00  0.00    +0.000 C 
ATOM     31  O   UNL     1       1.832   2.155  18.368  0.00  0.00    +0.000 OA
BRANCH  30  32
ATOM     32  O   UNL     1       3.951   2.434  19.025  0.00  0.00    +0.000 OA
ATOM     33  H   UNL     1       4.419   2.189  19.843  0.00  0.00    +0.000 HD
ENDBRANCH  30  32
ENDBRANCH  27  30
ENDBRANCH  26  27
ENDBRANCH   2  26
TORSDOF 9
ENDMDL
MODEL 4
REMARK VINA RESULT:      -7.4      1.102      1.474
REMARK  Name = 
REMARK  12 active torsions:
REMARK  status: ('A' for Active; 'I' for Inactive)
REMARK    1  A    between atoms: C_1  and  C_2
REMARK    2  A    between atoms: C_3  and  N_4
REMARK    3  A    between atoms: C_5  and  C_7
REMARK    4  A    between atoms: C_7  and  C_16
REMARK    5  A    between atoms: N_8  and  C_9
REMARK    6  A    between atoms: C_9  and  C_10
REMARK    7  A    between atoms: C_10  and  C_11
REMARK    8  A    between atoms: C_10  and  C_12
REMARK    9  A    between atoms: C_10  and  C_13
REMARK   10  A    between atoms: C_13  and  O_15
REMARK   11  A    between atoms: N_24  and  S_25
REMARK   12  A    between atoms: S_25  and  O_28
REMARK                            x       y       z     vdW  Elec       q    Type
REMARK                         _______ _______ _______ _____ _____    ______ ____
ROOT
ATOM      1  C   UNL     1       2.613   6.174  19.051  0.00  0.00    +0.000 C 
ATOM      2  N   UNL     1       3.510   6.384  18.125  0.00  0.00    +0.000 NA
ENDROOT
BRANCH   1   3
ATOM      3  C   UNL     1       2.073   4.859  19.470  0.00  0.00    +0.000 A 
ATOM      4  C   UNL     1       1.324   4.003  18.675  0.00  0.00    +0.000 A 
ATOM      5  S   UNL     1       0.897   2.581  19.538  0.00  0.00    +0.000 S 
ATOM      6  C   UNL     1       1.705   3.188  20.914  0.00  0.00    +0.000 A 
ATOM      7  N   UNL     1       1.764   2.516  22.071  0.00  0.00    +0.000 N 
ATOM      8  N   UNL     1       2.272   4.353  20.750  0.00  0.00    +0.000 NA
ATOM      9  H   UNL     1       1.619   1.516  22.061  0.00  0.00    +0.000 HD
ATOM     10  H   UNL     1       2.467   2.832  22.733  0.00  0.00    +0.000 HD
ENDBRANCH   1   3
BRANCH   1  12
ATOM     11  N   UNL     1       1.876   8.544  18.919  0.00  0.00    +0.000 N 
ATOM     12  C   UNL     1       2.077   7.448  19.744  0.00  0.00    +0.000 C 
ATOM     13  O   UNL     1       1.826   7.439  20.945  0.00  0.00    +0.000 OA
ATOM     14  H   UNL     1       2.065   8.396  17.929  0.00  0.00    +0.000 HD
BRANCH  11  17
ATOM     15  C   UNL     1       1.667  12.377  18.623  0.00  0.00    +0.000 C 
ATOM     16  C   UNL     1       1.122  10.980  18.384  0.00  0.00    +0.000 C 
ATOM     17  C   UNL     1       1.471   9.891  19.450  0.00  0.00    +0.000 C 
ATOM     18  C   UNL     1      -0.058  10.027  19.852  0.00  0.00    +0.000 C 
ATOM     19  O   UNL     1      -0.813   9.531  20.656  0.00  0.00    +0.000 OA
ATOM     20  N   UNL     1      -0.292  10.908  18.801  0.00  0.00    +0.000 N 
BRANCH  20  21
ATOM     21  S   UNL     1      -1.676  11.058  17.922  0.00  0.00    +0.000 S 
ATOM     22  O   UNL     1      -1.786   9.977  16.978  0.00  0.00    +0.000 OA
ATOM     23  O   UNL     1      -2.741  11.378  18.848  0.00  0.00    +0.000 OA
BRANCH  21  24
ATOM     24  O   UNL     1      -1.411  12.379  17.046  0.00  0.00    +0.000 OA
ATOM     25  H   UNL     1      -0.570  12.237  16.551  0.00  0.00    +0.000 HD
ENDBRANCH  21  24
ENDBRANCH  20  21
ENDBRANCH  11  17
ENDBRANCH   1  12
BRANCH   2  26
ATOM     26  C   UNL     1       3.990   5.226  17.346  0.00  0.00    +0.000 C 
BRANCH  26  27
ATOM     27  C   UNL     1       5.523   5.225  17.134  0.00  0.00    +0.000 C 
ATOM     28  C   UNL     1       6.250   5.082  18.478  0.00  0.00    +0.000 C 
ATOM     29  C   UNL     1       5.911   4.094  16.171  0.00  0.00    +0.000 C 
BRANCH  27  30
ATOM     30  C   UNL     1       5.885   6.585  16.506  0.00  0.00    +0.000 C 
ATOM     31  O   UNL     1       6.757   7.336  16.923  0.00  0.00    +0.000 OA
BRANCH  30  32
ATOM     32  O   UNL     1       5.157   6.916  15.418  0.00  0.00    +0.000 OA
ATOM     33  H   UNL     1       5.457   6.521  14.580  0.00  0.00    +0.000 HD
ENDBRANCH  30  32
ENDBRANCH  27  30
ENDBRANCH  26  27
ENDBRANCH   2  26
TORSDOF 9
ENDMDL
MODEL 5
REMARK VINA RESULT:      -7.4      2.677      4.183
REMARK  Name = 
REMARK  12 active torsions:
REMARK  status: ('A' for Active; 'I' for Inactive)
REMARK    1  A    between atoms: C_1  and  C_2
REMARK    2  A    between atoms: C_3  and  N_4
REMARK    3  A    between atoms: C_5  and  C_7
REMARK    4  A    between atoms: C_7  and  C_16
REMARK    5  A    between atoms: N_8  and  C_9
REMARK    6  A    between atoms: C_9  and  C_10
REMARK    7  A    between atoms: C_10  and  C_11
REMARK    8  A    between atoms: C_10  and  C_12
REMARK    9  A    between atoms: C_10  and  C_13
REMARK   10  A    between atoms: C_13  and  O_15
REMARK   11  A    between atoms: N_24  and  S_25
REMARK   12  A    between atoms: S_25  and  O_28
REMARK                            x       y       z     vdW  Elec       q    Type
REMARK                         _______ _______ _______ _____ _____    ______ ____
ROOT
ATOM      1  C   UNL     1       3.161   6.327  18.628  0.00  0.00    +0.000 C 
ATOM      2  N   UNL     1       2.420   5.902  19.615  0.00  0.00    +0.000 NA
ENDROOT
BRANCH   1   3
ATOM      3  C   UNL     1       4.390   5.681  18.108  0.00  0.00    +0.000 A 
ATOM      4  C   UNL     1       4.492   4.980  16.915  0.00  0.00    +0.000 A 
ATOM      5  S   UNL     1       6.089   4.392  16.683  0.00  0.00    +0.000 S 
ATOM      6  C   UNL     1       6.545   5.077  18.179  0.00  0.00    +0.000 A 
ATOM      7  N   UNL     1       7.787   4.978  18.669  0.00  0.00    +0.000 N 
ATOM      8  N   UNL     1       5.593   5.716  18.805  0.00  0.00    +0.000 NA
ATOM      9  H   UNL     1       8.548   4.786  18.032  0.00  0.00    +0.000 HD
ATOM     10  H   UNL     1       8.021   5.622  19.420  0.00  0.00    +0.000 HD
ENDBRANCH   1   3
BRANCH   1  12
ATOM     11  N   UNL     1       1.602   8.262  18.578  0.00  0.00    +0.000 N 
ATOM     12  C   UNL     1       2.685   7.644  17.973  0.00  0.00    +0.000 C 
ATOM     13  O   UNL     1       3.277   8.099  16.999  0.00  0.00    +0.000 OA
ATOM     14  H   UNL     1       1.246   7.811  19.419  0.00  0.00    +0.000 HD
BRANCH  11  17
ATOM     15  C   UNL     1      -1.472  10.517  18.043  0.00  0.00    +0.000 C 
ATOM     16  C   UNL     1      -0.243  10.085  18.823  0.00  0.00    +0.000 C 
ATOM     17  C   UNL     1       0.944   9.485  18.002  0.00  0.00    +0.000 C 
ATOM     18  C   UNL     1       1.659  10.860  18.339  0.00  0.00    +0.000 C 
ATOM     19  O   UNL     1       2.726  11.384  18.117  0.00  0.00    +0.000 OA
ATOM     20  N   UNL     1       0.595  11.258  19.142  0.00  0.00    +0.000 N 
BRANCH  20  21
ATOM     21  S   UNL     1       0.670  12.182  20.502  0.00  0.00    +0.000 S 
ATOM     22  O   UNL     1      -0.559  12.910  20.679  0.00  0.00    +0.000 OA
ATOM     23  O   UNL     1       1.230  11.358  21.551  0.00  0.00    +0.000 OA
BRANCH  21  24
ATOM     24  O   UNL     1       1.781  13.283  20.134  0.00  0.00    +0.000 OA
ATOM     25  H   UNL     1       2.326  12.915  19.400  0.00  0.00    +0.000 HD
ENDBRANCH  21  24
ENDBRANCH  20  21
ENDBRANCH  11  17
ENDBRANCH   1  12
BRANCH   2  26
ATOM     26  C   UNL     1       2.869   4.709  20.358  0.00  0.00    +0.000 C 
BRANCH  26  27
ATOM     27  C   UNL     1       2.133   3.413  19.940  0.00  0.00    +0.000 C 
ATOM     28  C   UNL     1       1.410   2.796  21.145  0.00  0.00    +0.000 C 
ATOM     29  C   UNL     1       1.151   3.721  18.802  0.00  0.00    +0.000 C 
BRANCH  27  30
ATOM     30  C   UNL     1       3.211   2.431  19.441  0.00  0.00    +0.000 C 
ATOM     31  O   UNL     1       4.398   2.491  19.734  0.00  0.00    +0.000 OA
BRANCH  30  32
ATOM     32  O   UNL     1       2.753   1.456  18.628  0.00  0.00    +0.000 OA
ATOM     33  H   UNL     1       1.838   1.570  18.314  0.00  0.00    +0.000 HD
ENDBRANCH  30  32
ENDBRANCH  27  30
ENDBRANCH  26  27
ENDBRANCH   2  26
TORSDOF 9
ENDMDL
MODEL 6
REMARK VINA RESULT:      -7.4      0.720      1.113
REMARK  Name = 
REMARK  12 active torsions:
REMARK  status: ('A' for Active; 'I' for Inactive)
REMARK    1  A    between atoms: C_1  and  C_2
REMARK    2  A    between atoms: C_3  and  N_4
REMARK    3  A    between atoms: C_5  and  C_7
REMARK    4  A    between atoms: C_7  and  C_16
REMARK    5  A    between atoms: N_8  and  C_9
REMARK    6  A    between atoms: C_9  and  C_10
REMARK    7  A    between atoms: C_10  and  C_11
REMARK    8  A    between atoms: C_10  and  C_12
REMARK    9  A    between atoms: C_10  and  C_13
REMARK   10  A    between atoms: C_13  and  O_15
REMARK   11  A    between atoms: N_24  and  S_25
REMARK   12  A    between atoms: S_25  and  O_28
REMARK                            x       y       z     vdW  Elec       q    Type
REMARK                         _______ _______ _______ _____ _____    ______ ____
ROOT
ATOM      1  C   UNL     1       2.713   6.460  19.119  0.00  0.00    +0.000 C 
ATOM      2  N   UNL     1       3.655   6.770  18.268  0.00  0.00    +0.000 NA
ENDROOT
BRANCH   1   3
ATOM      3  C   UNL     1       2.267   5.093  19.477  0.00  0.00    +0.000 A 
ATOM      4  C   UNL     1       1.522   4.248  18.667  0.00  0.00    +0.000 A 
ATOM      5  S   UNL     1       1.217   2.753  19.456  0.00  0.00    +0.000 S 
ATOM      6  C   UNL     1       2.066   3.317  20.826  0.00  0.00    +0.000 A 
ATOM      7  N   UNL     1       2.223   2.579  21.932  0.00  0.00    +0.000 N 
ATOM      8  N   UNL     1       2.561   4.520  20.710  0.00  0.00    +0.000 NA
ATOM      9  H   UNL     1       2.130   1.574  21.864  0.00  0.00    +0.000 HD
ATOM     10  H   UNL     1       2.943   2.892  22.576  0.00  0.00    +0.000 HD
ENDBRANCH   1   3
BRANCH   1  12
ATOM     11  N   UNL     1       1.853   8.788  18.986  0.00  0.00    +0.000 N 
ATOM     12  C   UNL     1       2.011   7.666  19.784  0.00  0.00    +0.000 C 
ATOM     13  O   UNL     1       1.604   7.584  20.939  0.00  0.00    +0.000 OA
ATOM     14  H   UNL     1       2.179   8.700  18.025  0.00  0.00    +0.000 HD
BRANCH  11  17
ATOM     15  C   UNL     1       1.312  12.592  18.735  0.00  0.00    +0.000 C 
ATOM     16  C   UNL     1       0.911  11.156  18.443  0.00  0.00    +0.000 C 
ATOM     17  C   UNL     1       1.296  10.082  19.512  0.00  0.00    +0.000 C 
ATOM     18  C   UNL     1      -0.260  10.072  19.824  0.00  0.00    +0.000 C 
ATOM     19  O   UNL     1      -1.010   9.493  20.576  0.00  0.00    +0.000 OA
ATOM     20  N   UNL     1      -0.512  10.949  18.775  0.00  0.00    +0.000 N 
BRANCH  20  21
ATOM     21  S   UNL     1      -1.851  10.991  17.818  0.00  0.00    +0.000 S 
ATOM     22  O   UNL     1      -1.866   9.857  16.932  0.00  0.00    +0.000 OA
ATOM     23  O   UNL     1      -2.977  11.314  18.668  0.00  0.00    +0.000 OA
BRANCH  21  24
ATOM     24  O   UNL     1      -1.592  12.273  16.884  0.00  0.00    +0.000 OA
ATOM     25  H   UNL     1      -2.275  12.945  17.115  0.00  0.00    +0.000 HD
ENDBRANCH  21  24
ENDBRANCH  20  21
ENDBRANCH  11  17
ENDBRANCH   1  12
BRANCH   2  26
ATOM     26  C   UNL     1       4.298   5.676  17.514  0.00  0.00    +0.000 C 
BRANCH  26  27
ATOM     27  C   UNL     1       5.835   5.632  17.690  0.00  0.00    +0.000 C 
ATOM     28  C   UNL     1       6.457   6.978  17.294  0.00  0.00    +0.000 C 
ATOM     29  C   UNL     1       6.180   5.267  19.140  0.00  0.00    +0.000 C 
BRANCH  27  30
ATOM     30  C   UNL     1       6.359   4.535  16.742  0.00  0.00    +0.000 C 
ATOM     31  O   UNL     1       7.423   4.584  16.140  0.00  0.00    +0.000 OA
BRANCH  30  32
ATOM     32  O   UNL     1       5.543   3.468  16.610  0.00  0.00    +0.000 OA
ATOM     33  H   UNL     1       5.206   3.094  17.443  0.00  0.00    +0.000 HD
ENDBRANCH  30  32
ENDBRANCH  27  30
ENDBRANCH  26  27
ENDBRANCH   2  26
TORSDOF 9
ENDMDL
MODEL 7
REMARK VINA RESULT:      -7.3      2.793      4.414
REMARK  Name = 
REMARK  12 active torsions:
REMARK  status: ('A' for Active; 'I' for Inactive)
REMARK    1  A    between atoms: C_1  and  C_2
REMARK    2  A    between atoms: C_3  and  N_4
REMARK    3  A    between atoms: C_5  and  C_7
REMARK    4  A    between atoms: C_7  and  C_16
REMARK    5  A    between atoms: N_8  and  C_9
REMARK    6  A    between atoms: C_9  and  C_10
REMARK    7  A    between atoms: C_10  and  C_11
REMARK    8  A    between atoms: C_10  and  C_12
REMARK    9  A    between atoms: C_10  and  C_13
REMARK   10  A    between atoms: C_13  and  O_15
REMARK   11  A    between atoms: N_24  and  S_25
REMARK   12  A    between atoms: S_25  and  O_28
REMARK                            x       y       z     vdW  Elec       q    Type
REMARK                         _______ _______ _______ _____ _____    ______ ____
ROOT
ATOM      1  C   UNL     1       3.440   6.231  18.474  0.00  0.00    +0.000 C 
ATOM      2  N   UNL     1       2.743   5.802  19.492  0.00  0.00    +0.000 NA
ENDROOT
BRANCH   1   3
ATOM      3  C   UNL     1       4.675   5.615  17.932  0.00  0.00    +0.000 A 
ATOM      4  C   UNL     1       5.968   5.894  18.350  0.00  0.00    +0.000 A 
ATOM      5  S   UNL     1       7.111   4.964  17.469  0.00  0.00    +0.000 S 
ATOM      6  C   UNL     1       5.836   4.265  16.574  0.00  0.00    +0.000 A 
ATOM      7  N   UNL     1       6.042   3.360  15.609  0.00  0.00    +0.000 N 
ATOM      8  N   UNL     1       4.641   4.671  16.911  0.00  0.00    +0.000 NA
ATOM      9  H   UNL     1       6.907   2.837  15.609  0.00  0.00    +0.000 HD
ATOM     10  H   UNL     1       5.228   2.826  15.320  0.00  0.00    +0.000 HD
ENDBRANCH   1   3
BRANCH   1  12
ATOM     11  N   UNL     1       1.838   8.131  18.451  0.00  0.00    +0.000 N 
ATOM     12  C   UNL     1       2.901   7.517  17.807  0.00  0.00    +0.000 C 
ATOM     13  O   UNL     1       3.429   7.953  16.789  0.00  0.00    +0.000 OA
ATOM     14  H   UNL     1       1.537   7.699  19.323  0.00  0.00    +0.000 HD
BRANCH  11  17
ATOM     15  C   UNL     1      -1.356  10.191  17.840  0.00  0.00    +0.000 C 
ATOM     16  C   UNL     1      -0.133   9.822  18.660  0.00  0.00    +0.000 C 
ATOM     17  C   UNL     1       1.123   9.321  17.875  0.00  0.00    +0.000 C 
ATOM     18  C   UNL     1       1.731  10.732  18.270  0.00  0.00    +0.000 C 
ATOM     19  O   UNL     1       2.769  11.330  18.103  0.00  0.00    +0.000 OA
ATOM     20  N   UNL     1       0.612  11.039  19.037  0.00  0.00    +0.000 N 
BRANCH  20  21
ATOM     21  S   UNL     1       0.573  11.933  20.418  0.00  0.00    +0.000 S 
ATOM     22  O   UNL     1       1.257  11.242  21.480  0.00  0.00    +0.000 OA
ATOM     23  O   UNL     1       0.898  13.297  20.058  0.00  0.00    +0.000 OA
BRANCH  21  24
ATOM     24  O   UNL     1      -0.984  11.918  20.819  0.00  0.00    +0.000 OA
ATOM     25  H   UNL     1      -1.457  11.392  20.133  0.00  0.00    +0.000 HD
ENDBRANCH  21  24
ENDBRANCH  20  21
ENDBRANCH  11  17
ENDBRANCH   1  12
BRANCH   2  26
ATOM     26  C   UNL     1       3.254   4.642  20.246  0.00  0.00    +0.000 C 
BRANCH  26  27
ATOM     27  C   UNL     1       2.241   3.475  20.336  0.00  0.00    +0.000 C 
ATOM     28  C   UNL     1       2.250   2.866  21.745  0.00  0.00    +0.000 C 
ATOM     29  C   UNL     1       0.841   3.976  19.956  0.00  0.00    +0.000 C 
BRANCH  27  30
ATOM     30  C   UNL     1       2.701   2.409  19.322  0.00  0.00    +0.000 C 
ATOM     31  O   UNL     1       3.866   2.198  19.012  0.00  0.00    +0.000 OA
BRANCH  30  32
ATOM     32  O   UNL     1       1.703   1.687  18.771  0.00  0.00    +0.000 OA
ATOM     33  H   UNL     1       1.970   0.835  18.382  0.00  0.00    +0.000 HD
ENDBRANCH  30  32
ENDBRANCH  27  30
ENDBRANCH  26  27
ENDBRANCH   2  26
TORSDOF 9
ENDMDL
MODEL 8
REMARK VINA RESULT:      -7.3      2.192      3.612
REMARK  Name = 
REMARK  12 active torsions:
REMARK  status: ('A' for Active; 'I' for Inactive)
REMARK    1  A    between atoms: C_1  and  C_2
REMARK    2  A    between atoms: C_3  and  N_4
REMARK    3  A    between atoms: C_5  and  C_7
REMARK    4  A    between atoms: C_7  and  C_16
REMARK    5  A    between atoms: N_8  and  C_9
REMARK    6  A    between atoms: C_9  and  C_10
REMARK    7  A    between atoms: C_10  and  C_11
REMARK    8  A    between atoms: C_10  and  C_12
REMARK    9  A    between atoms: C_10  and  C_13
REMARK   10  A    between atoms: C_13  and  O_15
REMARK   11  A    between atoms: N_24  and  S_25
REMARK   12  A    between atoms: S_25  and  O_28
REMARK                            x       y       z     vdW  Elec       q    Type
REMARK                         _______ _______ _______ _____ _____    ______ ____
ROOT
ATOM      1  C   UNL     1       2.728   6.111  18.867  0.00  0.00    +0.000 C 
ATOM      2  N   UNL     1       1.867   5.149  18.670  0.00  0.00    +0.000 NA
ENDROOT
BRANCH   1   3
ATOM      3  C   UNL     1       4.154   6.113  18.458  0.00  0.00    +0.000 A 
ATOM      4  C   UNL     1       4.659   6.671  17.293  0.00  0.00    +0.000 A 
ATOM      5  S   UNL     1       6.361   6.461  17.200  0.00  0.00    +0.000 S 
ATOM      6  C   UNL     1       6.327   5.627  18.690  0.00  0.00    +0.000 A 
ATOM      7  N   UNL     1       7.429   5.127  19.262  0.00  0.00    +0.000 N 
ATOM      8  N   UNL     1       5.144   5.524  19.236  0.00  0.00    +0.000 NA
ATOM      9  H   UNL     1       8.329   5.506  18.999  0.00  0.00    +0.000 HD
ATOM     10  H   UNL     1       7.347   4.882  20.245  0.00  0.00    +0.000 HD
ENDBRANCH   1   3
BRANCH   1  12
ATOM     11  N   UNL     1       1.976   8.480  18.842  0.00  0.00    +0.000 N 
ATOM     12  C   UNL     1       2.171   7.345  19.613  0.00  0.00    +0.000 C 
ATOM     13  O   UNL     1       1.900   7.274  20.808  0.00  0.00    +0.000 OA
ATOM     14  H   UNL     1       2.182   8.383  17.849  0.00  0.00    +0.000 HD
BRANCH  11  17
ATOM     15  C   UNL     1       1.702  12.318  18.714  0.00  0.00    +0.000 C 
ATOM     16  C   UNL     1       1.179  10.924  18.417  0.00  0.00    +0.000 C 
ATOM     17  C   UNL     1       1.551   9.795  19.433  0.00  0.00    +0.000 C 
ATOM     18  C   UNL     1       0.023   9.888  19.847  0.00  0.00    +0.000 C 
ATOM     19  O   UNL     1      -0.719   9.345  20.633  0.00  0.00    +0.000 OA
ATOM     20  N   UNL     1      -0.232  10.810  18.837  0.00  0.00    +0.000 N 
BRANCH  20  21
ATOM     21  S   UNL     1      -1.622  10.975  17.973  0.00  0.00    +0.000 S 
ATOM     22  O   UNL     1      -1.785   9.863  17.073  0.00  0.00    +0.000 OA
ATOM     23  O   UNL     1      -2.662  11.368  18.900  0.00  0.00    +0.000 OA
BRANCH  21  24
ATOM     24  O   UNL     1      -1.325  12.251  17.041  0.00  0.00    +0.000 OA
ATOM     25  H   UNL     1      -0.498  12.670  17.376  0.00  0.00    +0.000 HD
ENDBRANCH  21  24
ENDBRANCH  20  21
ENDBRANCH  11  17
ENDBRANCH   1  12
BRANCH   2  26
ATOM     26  C   UNL     1       2.352   3.896  18.059  0.00  0.00    +0.000 C 
BRANCH  26  27
ATOM     27  C   UNL     1       2.029   2.639  18.902  0.00  0.00    +0.000 C 
ATOM     28  C   UNL     1       0.606   2.146  18.603  0.00  0.00    +0.000 C 
ATOM     29  C   UNL     1       3.066   1.544  18.617  0.00  0.00    +0.000 C 
BRANCH  27  30
ATOM     30  C   UNL     1       2.117   3.062  20.381  0.00  0.00    +0.000 C 
ATOM     31  O   UNL     1       3.151   3.102  21.035  0.00  0.00    +0.000 OA
BRANCH  30  32
ATOM     32  O   UNL     1       0.937   3.404  20.941  0.00  0.00    +0.000 OA
ATOM     33  H   UNL     1       0.299   3.830  20.342  0.00  0.00    +0.000 HD
ENDBRANCH  30  32
ENDBRANCH  27  30
ENDBRANCH  26  27
ENDBRANCH   2  26
TORSDOF 9
ENDMDL
MODEL 9
REMARK VINA RESULT:      -7.3      2.007      3.402
REMARK  Name = 
REMARK  12 active torsions:
REMARK  status: ('A' for Active; 'I' for Inactive)
REMARK    1  A    between atoms: C_1  and  C_2
REMARK    2  A    between atoms: C_3  and  N_4
REMARK    3  A    between atoms: C_5  and  C_7
REMARK    4  A    between atoms: C_7  and  C_16
REMARK    5  A    between atoms: N_8  and  C_9
REMARK    6  A    between atoms: C_9  and  C_10
REMARK    7  A    between atoms: C_10  and  C_11
REMARK    8  A    between atoms: C_10  and  C_12
REMARK    9  A    between atoms: C_10  and  C_13
REMARK   10  A    between atoms: C_13  and  O_15
REMARK   11  A    between atoms: N_24  and  S_25
REMARK   12  A    between atoms: S_25  and  O_28
REMARK                            x       y       z     vdW  Elec       q    Type
REMARK                         _______ _______ _______ _____ _____    ______ ____
ROOT
ATOM      1  C   UNL     1       2.572   6.246  18.927  0.00  0.00    +0.000 C 
ATOM      2  N   UNL     1       1.650   5.339  18.746  0.00  0.00    +0.000 NA
ENDROOT
BRANCH   1   3
ATOM      3  C   UNL     1       3.993   6.150  18.517  0.00  0.00    +0.000 A 
ATOM      4  C   UNL     1       4.526   6.633  17.330  0.00  0.00    +0.000 A 
ATOM      5  S   UNL     1       6.213   6.321  17.243  0.00  0.00    +0.000 S 
ATOM      6  C   UNL     1       6.135   5.548  18.764  0.00  0.00    +0.000 A 
ATOM      7  N   UNL     1       7.209   5.006  19.353  0.00  0.00    +0.000 N 
ATOM      8  N   UNL     1       4.951   5.534  19.315  0.00  0.00    +0.000 NA
ATOM      9  H   UNL     1       8.128   5.322  19.075  0.00  0.00    +0.000 HD
ATOM     10  H   UNL     1       7.116   4.804  20.345  0.00  0.00    +0.000 HD
ENDBRANCH   1   3
BRANCH   1  12
ATOM     11  N   UNL     1       1.874   8.630  18.852  0.00  0.00    +0.000 N 
ATOM     12  C   UNL     1       2.097   7.524  19.656  0.00  0.00    +0.000 C 
ATOM     13  O   UNL     1       1.910   7.510  20.869  0.00  0.00    +0.000 OA
ATOM     14  H   UNL     1       2.007   8.487  17.852  0.00  0.00    +0.000 HD
BRANCH  11  17
ATOM     15  C   UNL     1       1.720  12.469  18.594  0.00  0.00    +0.000 C 
ATOM     16  C   UNL     1       1.137  11.084  18.375  0.00  0.00    +0.000 C 
ATOM     17  C   UNL     1       1.522   9.980  19.413  0.00  0.00    +0.000 C 
ATOM     18  C   UNL     1       0.020  10.141  19.897  0.00  0.00    +0.000 C 
ATOM     19  O   UNL     1      -0.700   9.651  20.737  0.00  0.00    +0.000 OA
ATOM     20  N   UNL     1      -0.254  11.034  18.867  0.00  0.00    +0.000 N 
BRANCH  20  21
ATOM     21  S   UNL     1      -1.679  11.216  18.065  0.00  0.00    +0.000 S 
ATOM     22  O   UNL     1      -1.915  10.087  17.204  0.00  0.00    +0.000 OA
ATOM     23  O   UNL     1      -2.662  11.662  19.029  0.00  0.00    +0.000 OA
BRANCH  21  24
ATOM     24  O   UNL     1      -1.393  12.459  17.086  0.00  0.00    +0.000 OA
ATOM     25  H   UNL     1      -0.780  12.141  16.383  0.00  0.00    +0.000 HD
ENDBRANCH  21  24
ENDBRANCH  20  21
ENDBRANCH  11  17
ENDBRANCH   1  12
BRANCH   2  26
ATOM     26  C   UNL     1       2.051   4.049  18.152  0.00  0.00    +0.000 C 
BRANCH  26  27
ATOM     27  C   UNL     1       2.009   2.873  19.157  0.00  0.00    +0.000 C 
ATOM     28  C   UNL     1       1.812   3.398  20.586  0.00  0.00    +0.000 C 
ATOM     29  C   UNL     1       0.893   1.896  18.766  0.00  0.00    +0.000 C 
BRANCH  27  30
ATOM     30  C   UNL     1       3.374   2.162  19.065  0.00  0.00    +0.000 C 
ATOM     31  O   UNL     1       3.628   1.237  18.305  0.00  0.00    +0.000 OA
BRANCH  30  32
ATOM     32  O   UNL     1       4.317   2.640  19.904  0.00  0.00    +0.000 OA
ATOM     33  H   UNL     1       5.105   2.078  20.009  0.00  0.00    +0.000 HD
ENDBRANCH  30  32
ENDBRANCH  27  30
ENDBRANCH  26  27
ENDBRANCH   2  26
TORSDOF 9
ENDMDL
