MODEL 1
REMARK VINA RESULT:      -8.2      0.000      0.000
REMARK  Name = 
REMARK  12 active torsions:
REMARK  status: ('A' for Active; 'I' for Inactive)
REMARK    1  A    between atoms: C_1  and  C_2
REMARK    2  A    between atoms: C_7  and  C_8
REMARK    3  A    between atoms: C_8  and  N_9
REMARK    4  A    between atoms: N_9  and  C_10
REMARK    5  A    between atoms: C_13  and  C_14
REMARK    6  A    between atoms: N_16  and  CA_17
REMARK    7  A    between atoms: CA_17  and  CB_18
REMARK    8  A    between atoms: CA_17  and  C_23
REMARK    9  A    between atoms: CB_18  and  CG_19
REMARK   10  A    between atoms: CG_19  and  CD_20
REMARK   11  A    between atoms: CD_20  and  OE2_22
REMARK   12  A    between atoms: C_23  and  OXT_25
REMARK                            x       y       z     vdW  Elec       q    Type
REMARK                         _______ _______ _______ _____ _____    ______ ____
ROOT
ATOM      1  C   UNK A   0       1.612   7.943  19.923  0.00  0.00    +0.000 A 
ATOM      2  C   UNK A   0       1.565   6.839  20.748  0.00  0.00    +0.000 A 
ATOM      3  C   UNK A   0       2.316   5.736  20.239  0.00  0.00    +0.000 A 
ATOM      4  C   UNK A   0       2.909   6.017  19.024  0.00  0.00    +0.000 A 
ATOM      5  S   UNK A   0       2.552   7.618  18.529  0.00  0.00    +0.000 S 
ENDROOT
BRANCH   4   6
ATOM      6  C   UNK A   0       3.726   5.126  18.212  0.00  0.00    +0.000 C 
ATOM      7  O   UNK A   0       3.303   4.081  17.720  0.00  0.00    +0.000 OA
ATOM      8  N   GLU A   1       5.021   5.542  18.003  0.00  0.00    +0.000 N 
ATOM      9  H   GLU A   1       5.302   6.417  18.438  0.00  0.00    +0.000 HD
BRANCH   8  10
ATOM     10  CA  GLU A   1       6.012   4.823  17.208  0.00  0.00    +0.000 C 
BRANCH  10  11
ATOM     11  C   GLU A   1       7.345   5.000  17.947  0.00  0.00    +0.000 C 
ATOM     12  O   GLU A   1       7.553   5.901  18.745  0.00  0.00    +0.000 OA
BRANCH  11  13
ATOM     13  OXT GLU A   1       8.266   4.051  17.679  0.00  0.00    +0.000 OA
ATOM     14  HXT GLU A   1       8.270   3.284  18.291  0.00  0.00    +0.000 HD
ENDBRANCH  11  13
ENDBRANCH  10  11
BRANCH  10  15
ATOM     15  CB  GLU A   1       6.122   5.391  15.781  0.00  0.00    +0.000 C 
BRANCH  15  16
ATOM     16  CG  GLU A   1       5.766   4.398  14.678  0.00  0.00    +0.000 C 
BRANCH  16  17
ATOM     17  CD  GLU A   1       6.787   4.433  13.574  0.00  0.00    +0.000 C 
ATOM     18  OE1 GLU A   1       6.652   3.800  12.536  0.00  0.00    +0.000 OA
BRANCH  17  19
ATOM     19  OE2 GLU A   1       7.804   5.285  13.791  0.00  0.00    +0.000 OA
ATOM     20  HE2 GLU A   1       8.370   5.062  14.560  0.00  0.00    +0.000 HD
ENDBRANCH  17  19
ENDBRANCH  16  17
ENDBRANCH  15  16
ENDBRANCH  10  15
ENDBRANCH   8  10
ENDBRANCH   4   6
BRANCH   1  21
ATOM     21  N   UNK A   0       1.019   9.157  20.061  0.00  0.00    +0.000 N 
ATOM     22  H   UNK A   0       0.250   9.204  20.725  0.00  0.00    +0.000 HD
BRANCH  21  23
ATOM     23  C   UNK A   0       0.829  10.042  18.921  0.00  0.00    +0.000 C 
BRANCH  23  30
ATOM     24  C   UNK A   0      -6.609  12.408  17.344  0.00  0.00    +0.000 C 
ATOM     25  C   UNK A   0      -5.212  11.880  17.494  0.00  0.00    +0.000 A 
ATOM     26  N   UNK A   0      -4.492  12.194  18.521  0.00  0.00    +0.000 NA
ATOM     27  C   UNK A   0      -3.199  11.652  18.604  0.00  0.00    +0.000 A 
ATOM     28  C   UNK A   0      -2.396  11.985  19.694  0.00  0.00    +0.000 A 
ATOM     29  C   UNK A   0      -1.103  11.460  19.817  0.00  0.00    +0.000 A 
ATOM     30  C   UNK A   0      -0.589  10.574  18.857  0.00  0.00    +0.000 A 
ATOM     31  C   UNK A   0      -1.390  10.256  17.749  0.00  0.00    +0.000 A 
ATOM     32  C   UNK A   0      -2.680  10.791  17.636  0.00  0.00    +0.000 A 
ATOM     33  C   UNK A   0      -3.536  10.475  16.480  0.00  0.00    +0.000 A 
ATOM     34  O   UNK A   0      -3.163   9.744  15.570  0.00  0.00    +0.000 OA
ATOM     35  N   UNK A   0      -4.779  11.055  16.490  0.00  0.00    +0.000 N 
ATOM     36  H   UNK A   0      -5.373  10.837  15.704  0.00  0.00    +0.000 HD
ENDBRANCH  23  30
ENDBRANCH  21  23
ENDBRANCH   1  21
TORSDOF 11
ENDMDL
MODEL 2
REMARK VINA RESULT:      -8.1      2.280      2.822
REMARK  Name = 
REMARK  12 active torsions:
REMARK  status: ('A' for Active; 'I' for Inactive)
REMARK    1  A    between atoms: C_1  and  C_2
REMARK    2  A    between atoms: C_7  and  C_8
REMARK    3  A    between atoms: C_8  and  N_9
REMARK    4  A    between atoms: N_9  and  C_10
REMARK    5  A    between atoms: C_13  and  C_14
REMARK    6  A    between atoms: N_16  and  CA_17
REMARK    7  A    between atoms: CA_17  and  CB_18
REMARK    8  A    between atoms: CA_17  and  C_23
REMARK    9  A    between atoms: CB_18  and  CG_19
REMARK   10  A    between atoms: CG_19  and  CD_20
REMARK   11  A    between atoms: CD_20  and  OE2_22
REMARK   12  A    between atoms: C_23  and  OXT_25
REMARK                            x       y       z     vdW  Elec       q    Type
REMARK                         _______ _______ _______ _____ _____    ______ ____
ROOT
ATOM      1  C   UNK A   0       2.016   6.765  20.250  0.00  0.00    +0.000 A 
ATOM      2  C   UNK A   0       1.811   5.517  20.800  0.00  0.00    +0.000 A 
ATOM      3  C   UNK A   0       2.699   4.528  20.277  0.00  0.00    +0.000 A 
ATOM      4  C   UNK A   0       3.556   5.041  19.323  0.00  0.00    +0.000 A 
ATOM      5  S   UNK A   0       3.273   6.716  19.089  0.00  0.00    +0.000 S 
ENDROOT
BRANCH   4   6
ATOM      6  C   UNK A   0       4.574   4.322  18.569  0.00  0.00    +0.000 C 
ATOM      7  O   UNK A   0       5.091   3.276  18.959  0.00  0.00    +0.000 OA
ATOM      8  N   GLU A   1       4.914   4.881  17.359  0.00  0.00    +0.000 N 
ATOM      9  H   GLU A   1       4.446   5.745  17.099  0.00  0.00    +0.000 HD
BRANCH   8  10
ATOM     10  CA  GLU A   1       5.892   4.326  16.428  0.00  0.00    +0.000 C 
BRANCH  10  11
ATOM     11  C   GLU A   1       7.249   4.899  16.861  0.00  0.00    +0.000 C 
ATOM     12  O   GLU A   1       8.089   4.246  17.461  0.00  0.00    +0.000 OA
BRANCH  11  13
ATOM     13  OXT GLU A   1       7.463   6.178  16.488  0.00  0.00    +0.000 OA
ATOM     14  HXT GLU A   1       6.704   6.785  16.613  0.00  0.00    +0.000 HD
ENDBRANCH  11  13
ENDBRANCH  10  11
BRANCH  10  15
ATOM     15  CB  GLU A   1       5.591   4.728  14.973  0.00  0.00    +0.000 C 
BRANCH  15  16
ATOM     16  CG  GLU A   1       6.279   3.860  13.923  0.00  0.00    +0.000 C 
BRANCH  16  17
ATOM     17  CD  GLU A   1       7.238   4.674  13.099  0.00  0.00    +0.000 C 
ATOM     18  OE1 GLU A   1       7.929   5.560  13.584  0.00  0.00    +0.000 OA
BRANCH  17  19
ATOM     19  OE2 GLU A   1       7.333   4.284  11.816  0.00  0.00    +0.000 OA
ATOM     20  HE2 GLU A   1       6.579   4.552  11.249  0.00  0.00    +0.000 HD
ENDBRANCH  17  19
ENDBRANCH  16  17
ENDBRANCH  15  16
ENDBRANCH  10  15
ENDBRANCH   8  10
ENDBRANCH   4   6
BRANCH   1  21
ATOM     21  N   UNK A   0       1.366   7.934  20.482  0.00  0.00    +0.000 N 
ATOM     22  H   UNK A   0       1.526   8.675  19.803  0.00  0.00    +0.000 HD
BRANCH  21  23
ATOM     23  C   UNK A   0       1.181   8.444  21.832  0.00  0.00    +0.000 C 
BRANCH  23  30
ATOM     24  C   UNK A   0      -3.782  14.594  20.859  0.00  0.00    +0.000 C 
ATOM     25  C   UNK A   0      -2.808  13.453  20.878  0.00  0.00    +0.000 A 
ATOM     26  N   UNK A   0      -2.565  12.809  21.973  0.00  0.00    +0.000 NA
ATOM     27  C   UNK A   0      -1.654  11.741  21.916  0.00  0.00    +0.000 A 
ATOM     28  C   UNK A   0      -1.364  11.038  23.085  0.00  0.00    +0.000 A 
ATOM     29  C   UNK A   0      -0.465   9.964  23.068  0.00  0.00    +0.000 A 
ATOM     30  C   UNK A   0       0.152   9.557  21.874  0.00  0.00    +0.000 A 
ATOM     31  C   UNK A   0      -0.125  10.278  20.703  0.00  0.00    +0.000 A 
ATOM     32  C   UNK A   0      -1.022  11.353  20.734  0.00  0.00    +0.000 A 
ATOM     33  C   UNK A   0      -1.324  12.128  19.517  0.00  0.00    +0.000 A 
ATOM     34  O   UNK A   0      -0.806  11.875  18.436  0.00  0.00    +0.000 OA
ATOM     35  N   UNK A   0      -2.224  13.150  19.678  0.00  0.00    +0.000 N 
ATOM     36  H   UNK A   0      -2.440  13.680  18.847  0.00  0.00    +0.000 HD
ENDBRANCH  23  30
ENDBRANCH  21  23
ENDBRANCH   1  21
TORSDOF 11
ENDMDL
MODEL 3
REMARK VINA RESULT:      -8.0      6.413      9.848
REMARK  Name = 
REMARK  12 active torsions:
REMARK  status: ('A' for Active; 'I' for Inactive)
REMARK    1  A    between atoms: C_1  and  C_2
REMARK    2  A    between atoms: C_7  and  C_8
REMARK    3  A    between atoms: C_8  and  N_9
REMARK    4  A    between atoms: N_9  and  C_10
REMARK    5  A    between atoms: C_13  and  C_14
REMARK    6  A    between atoms: N_16  and  CA_17
REMARK    7  A    between atoms: CA_17  and  CB_18
REMARK    8  A    between atoms: CA_17  and  C_23
REMARK    9  A    between atoms: CB_18  and  CG_19
REMARK   10  A    between atoms: CG_19  and  CD_20
REMARK   11  A    between atoms: CD_20  and  OE2_22
REMARK   12  A    between atoms: C_23  and  OXT_25
REMARK                            x       y       z     vdW  Elec       q    Type
REMARK                         _______ _______ _______ _____ _____    ______ ____
ROOT
ATOM      1  C   UNK A   0       7.767   7.625  17.890  0.00  0.00    +0.000 A 
ATOM      2  C   UNK A   0       8.109   6.567  18.705  0.00  0.00    +0.000 A 
ATOM      3  C   UNK A   0       7.228   5.452  18.563  0.00  0.00    +0.000 A 
ATOM      4  C   UNK A   0       6.219   5.689  17.651  0.00  0.00    +0.000 A 
ATOM      5  S   UNK A   0       6.366   7.258  16.977  0.00  0.00    +0.000 S 
ENDROOT
BRANCH   4   6
ATOM      6  C   UNK A   0       5.138   4.788  17.273  0.00  0.00    +0.000 C 
ATOM      7  O   UNK A   0       4.912   4.454  16.111  0.00  0.00    +0.000 OA
ATOM      8  N   GLU A   1       4.384   4.304  18.317  0.00  0.00    +0.000 N 
ATOM      9  H   GLU A   1       4.628   4.621  19.252  0.00  0.00    +0.000 HD
BRANCH   8  10
ATOM     10  CA  GLU A   1       3.266   3.376  18.179  0.00  0.00    +0.000 C 
BRANCH  10  11
ATOM     11  C   GLU A   1       2.015   4.252  18.028  0.00  0.00    +0.000 C 
ATOM     12  O   GLU A   1       1.078   3.959  17.300  0.00  0.00    +0.000 OA
BRANCH  11  13
ATOM     13  OXT GLU A   1       2.008   5.360  18.797  0.00  0.00    +0.000 OA
ATOM     14  HXT GLU A   1       2.098   5.203  19.761  0.00  0.00    +0.000 HD
ENDBRANCH  11  13
ENDBRANCH  10  11
BRANCH  10  15
ATOM     15  CB  GLU A   1       3.123   2.463  19.411  0.00  0.00    +0.000 C 
BRANCH  15  16
ATOM     16  CG  GLU A   1       1.722   2.431  20.014  0.00  0.00    +0.000 C 
BRANCH  16  17
ATOM     17  CD  GLU A   1       1.731   2.963  21.420  0.00  0.00    +0.000 C 
ATOM     18  OE1 GLU A   1       1.374   2.290  22.378  0.00  0.00    +0.000 OA
BRANCH  17  19
ATOM     19  OE2 GLU A   1       2.247   4.199  21.540  0.00  0.00    +0.000 OA
ATOM     20  HE2 GLU A   1       1.599   4.927  21.428  0.00  0.00    +0.000 HD
ENDBRANCH  17  19
ENDBRANCH  16  17
ENDBRANCH  15  16
ENDBRANCH  10  15
ENDBRANCH   8  10
ENDBRANCH   4   6
BRANCH   1  21
ATOM     21  N   UNK A   0       8.348   8.845  17.759  0.00  0.00    +0.000 N 
ATOM     22  H   UNK A   0       8.918   8.980  16.927  0.00  0.00    +0.000 HD
BRANCH  21  23
ATOM     23  C   UNK A   0       8.864   9.567  18.912  0.00  0.00    +0.000 C 
BRANCH  23  30
ATOM     24  C   UNK A   0      10.746  17.020  16.831  0.00  0.00    +0.000 C 
ATOM     25  C   UNK A   0      10.236  15.673  17.254  0.00  0.00    +0.000 A 
ATOM     26  N   UNK A   0      11.004  14.634  17.224  0.00  0.00    +0.000 NA
ATOM     27  C   UNK A   0      10.466  13.408  17.648  0.00  0.00    +0.000 A 
ATOM     28  C   UNK A   0      11.269  12.270  17.614  0.00  0.00    +0.000 A 
ATOM     29  C   UNK A   0      10.770  11.030  18.033  0.00  0.00    +0.000 A 
ATOM     30  C   UNK A   0       9.458  10.905  18.515  0.00  0.00    +0.000 A 
ATOM     31  C   UNK A   0       8.643  12.048  18.530  0.00  0.00    +0.000 A 
ATOM     32  C   UNK A   0       9.152  13.280  18.102  0.00  0.00    +0.000 A 
ATOM     33  C   UNK A   0       8.314  14.492  18.104  0.00  0.00    +0.000 A 
ATOM     34  O   UNK A   0       7.144  14.477  18.468  0.00  0.00    +0.000 OA
ATOM     35  N   UNK A   0       8.932  15.637  17.671  0.00  0.00    +0.000 N 
ATOM     36  H   UNK A   0       8.365  16.472  17.676  0.00  0.00    +0.000 HD
ENDBRANCH  23  30
ENDBRANCH  21  23
ENDBRANCH   1  21
TORSDOF 11
ENDMDL
MODEL 4
REMARK VINA RESULT:      -8.0      2.408      3.044
REMARK  Name = 
REMARK  12 active torsions:
REMARK  status: ('A' for Active; 'I' for Inactive)
REMARK    1  A    between atoms: C_1  and  C_2
REMARK    2  A    between atoms: C_7  and  C_8
REMARK    3  A    between atoms: C_8  and  N_9
REMARK    4  A    between atoms: N_9  and  C_10
REMARK    5  A    between atoms: C_13  and  C_14
REMARK    6  A    between atoms: N_16  and  CA_17
REMARK    7  A    between atoms: CA_17  and  CB_18
REMARK    8  A    between atoms: CA_17  and  C_23
REMARK    9  A    between atoms: CB_18  and  CG_19
REMARK   10  A    between atoms: CG_19  and  CD_20
REMARK   11  A    between atoms: CD_20  and  OE2_22
REMARK   12  A    between atoms: C_23  and  OXT_25
REMARK                            x       y       z     vdW  Elec       q    Type
REMARK                         _______ _______ _______ _____ _____    ______ ____
ROOT
ATOM      1  C   UNK A   0       1.861   6.060  20.336  0.00  0.00    +0.000 A 
ATOM      2  C   UNK A   0       1.422   4.766  20.520  0.00  0.00    +0.000 A 
ATOM      3  C   UNK A   0       2.136   3.821  19.721  0.00  0.00    +0.000 A 
ATOM      4  C   UNK A   0       3.098   4.418  18.930  0.00  0.00    +0.000 A 
ATOM      5  S   UNK A   0       3.123   6.114  19.180  0.00  0.00    +0.000 S 
ENDROOT
BRANCH   4   6
ATOM      6  C   UNK A   0       3.993   3.768  17.983  0.00  0.00    +0.000 C 
ATOM      7  O   UNK A   0       3.942   2.567  17.719  0.00  0.00    +0.000 OA
ATOM      8  N   GLU A   1       4.904   4.597  17.371  0.00  0.00    +0.000 N 
ATOM      9  H   GLU A   1       4.889   5.579  17.636  0.00  0.00    +0.000 HD
BRANCH   8  10
ATOM     10  CA  GLU A   1       5.884   4.172  16.376  0.00  0.00    +0.000 C 
BRANCH  10  11
ATOM     11  C   GLU A   1       7.219   4.784  16.820  0.00  0.00    +0.000 C 
ATOM     12  O   GLU A   1       7.647   5.843  16.385  0.00  0.00    +0.000 OA
BRANCH  11  13
ATOM     13  OXT GLU A   1       7.873   4.081  17.768  0.00  0.00    +0.000 OA
ATOM     14  HXT GLU A   1       7.386   3.310  18.129  0.00  0.00    +0.000 HD
ENDBRANCH  11  13
ENDBRANCH  10  11
BRANCH  10  15
ATOM     15  CB  GLU A   1       5.520   4.669  14.965  0.00  0.00    +0.000 C 
BRANCH  15  16
ATOM     16  CG  GLU A   1       5.988   3.757  13.834  0.00  0.00    +0.000 C 
BRANCH  16  17
ATOM     17  CD  GLU A   1       7.011   4.448  12.976  0.00  0.00    +0.000 C 
ATOM     18  OE1 GLU A   1       7.202   4.139  11.807  0.00  0.00    +0.000 OA
BRANCH  17  19
ATOM     19  OE2 GLU A   1       7.625   5.484  13.574  0.00  0.00    +0.000 OA
ATOM     20  HE2 GLU A   1       7.592   5.470  14.554  0.00  0.00    +0.000 HD
ENDBRANCH  17  19
ENDBRANCH  16  17
ENDBRANCH  15  16
ENDBRANCH  10  15
ENDBRANCH   8  10
ENDBRANCH   4   6
BRANCH   1  21
ATOM     21  N   UNK A   0       1.423   7.215  20.900  0.00  0.00    +0.000 N 
ATOM     22  H   UNK A   0       0.434   7.247  21.139  0.00  0.00    +0.000 HD
BRANCH  21  23
ATOM     23  C   UNK A   0       1.939   8.509  20.478  0.00  0.00    +0.000 C 
BRANCH  23  30
ATOM     24  C   UNK A   0      -4.091  13.709  20.578  0.00  0.00    +0.000 C 
ATOM     25  C   UNK A   0      -2.953  12.742  20.728  0.00  0.00    +0.000 A 
ATOM     26  N   UNK A   0      -2.435  12.163  19.694  0.00  0.00    +0.000 NA
ATOM     27  C   UNK A   0      -1.363  11.281  19.906  0.00  0.00    +0.000 A 
ATOM     28  C   UNK A   0      -0.794  10.634  18.810  0.00  0.00    +0.000 A 
ATOM     29  C   UNK A   0       0.280   9.751  18.979  0.00  0.00    +0.000 A 
ATOM     30  C   UNK A   0       0.823   9.509  20.251  0.00  0.00    +0.000 A 
ATOM     31  C   UNK A   0       0.236  10.145  21.356  0.00  0.00    +0.000 A 
ATOM     32  C   UNK A   0      -0.841  11.021  21.174  0.00  0.00    +0.000 A 
ATOM     33  C   UNK A   0      -1.475  11.696  22.320  0.00  0.00    +0.000 A 
ATOM     34  O   UNK A   0      -1.100  11.518  23.473  0.00  0.00    +0.000 OA
ATOM     35  N   UNK A   0      -2.515  12.535  22.009  0.00  0.00    +0.000 N 
ATOM     36  H   UNK A   0      -2.949  13.005  22.789  0.00  0.00    +0.000 HD
ENDBRANCH  23  30
ENDBRANCH  21  23
ENDBRANCH   1  21
TORSDOF 11
ENDMDL
MODEL 5
REMARK VINA RESULT:      -7.9      6.355      9.563
REMARK  Name = 
REMARK  12 active torsions:
REMARK  status: ('A' for Active; 'I' for Inactive)
REMARK    1  A    between atoms: C_1  and  C_2
REMARK    2  A    between atoms: C_7  and  C_8
REMARK    3  A    between atoms: C_8  and  N_9
REMARK    4  A    between atoms: N_9  and  C_10
REMARK    5  A    between atoms: C_13  and  C_14
REMARK    6  A    between atoms: N_16  and  CA_17
REMARK    7  A    between atoms: CA_17  and  CB_18
REMARK    8  A    between atoms: CA_17  and  C_23
REMARK    9  A    between atoms: CB_18  and  CG_19
REMARK   10  A    between atoms: CG_19  and  CD_20
REMARK   11  A    between atoms: CD_20  and  OE2_22
REMARK   12  A    between atoms: C_23  and  OXT_25
REMARK                            x       y       z     vdW  Elec       q    Type
REMARK                         _______ _______ _______ _____ _____    ______ ____
ROOT
ATOM      1  C   UNK A   0       7.641   7.662  17.852  0.00  0.00    +0.000 A 
ATOM      2  C   UNK A   0       8.001   6.571  18.615  0.00  0.00    +0.000 A 
ATOM      3  C   UNK A   0       7.211   5.414  18.335  0.00  0.00    +0.000 A 
ATOM      4  C   UNK A   0       6.249   5.652  17.373  0.00  0.00    +0.000 A 
ATOM      5  S   UNK A   0       6.331   7.273  16.820  0.00  0.00    +0.000 S 
ENDROOT
BRANCH   4   6
ATOM      6  C   UNK A   0       5.261   4.714  16.859  0.00  0.00    +0.000 C 
ATOM      7  O   UNK A   0       5.318   4.220  15.734  0.00  0.00    +0.000 OA
ATOM      8  N   GLU A   1       4.250   4.388  17.733  0.00  0.00    +0.000 N 
ATOM      9  H   GLU A   1       4.266   4.832  18.648  0.00  0.00    +0.000 HD
BRANCH   8  10
ATOM     10  CA  GLU A   1       3.163   3.456  17.444  0.00  0.00    +0.000 C 
BRANCH  10  11
ATOM     11  C   GLU A   1       1.877   4.172  17.878  0.00  0.00    +0.000 C 
ATOM     12  O   GLU A   1       0.854   4.173  17.209  0.00  0.00    +0.000 OA
BRANCH  11  13
ATOM     13  OXT GLU A   1       1.946   4.769  19.086  0.00  0.00    +0.000 OA
ATOM     14  HXT GLU A   1       1.297   4.452  19.749  0.00  0.00    +0.000 HD
ENDBRANCH  11  13
ENDBRANCH  10  11
BRANCH  10  15
ATOM     15  CB  GLU A   1       3.319   2.136  18.220  0.00  0.00    +0.000 C 
BRANCH  15  16
ATOM     16  CG  GLU A   1       4.572   2.058  19.088  0.00  0.00    +0.000 C 
BRANCH  16  17
ATOM     17  CD  GLU A   1       4.223   2.175  20.545  0.00  0.00    +0.000 C 
ATOM     18  OE1 GLU A   1       3.162   2.649  20.929  0.00  0.00    +0.000 OA
BRANCH  17  19
ATOM     19  OE2 GLU A   1       5.132   1.635  21.376  0.00  0.00    +0.000 OA
ATOM     20  HE2 GLU A   1       5.767   1.023  20.947  0.00  0.00    +0.000 HD
ENDBRANCH  17  19
ENDBRANCH  16  17
ENDBRANCH  15  16
ENDBRANCH  10  15
ENDBRANCH   8  10
ENDBRANCH   4   6
BRANCH   1  21
ATOM     21  N   UNK A   0       8.144   8.923  17.846  0.00  0.00    +0.000 N 
ATOM     22  H   UNK A   0       8.472   9.267  16.947  0.00  0.00    +0.000 HD
BRANCH  21  23
ATOM     23  C   UNK A   0       8.930   9.431  18.960  0.00  0.00    +0.000 C 
BRANCH  23  30
ATOM     24  C   UNK A   0      10.491  17.016  17.105  0.00  0.00    +0.000 C 
ATOM     25  C   UNK A   0      10.034  15.625  17.433  0.00  0.00    +0.000 A 
ATOM     26  N   UNK A   0      10.888  14.692  17.700  0.00  0.00    +0.000 NA
ATOM     27  C   UNK A   0      10.390  13.417  18.013  0.00  0.00    +0.000 A 
ATOM     28  C   UNK A   0      11.291  12.389  18.292  0.00  0.00    +0.000 A 
ATOM     29  C   UNK A   0      10.833  11.105  18.614  0.00  0.00    +0.000 A 
ATOM     30  C   UNK A   0       9.459  10.824  18.682  0.00  0.00    +0.000 A 
ATOM     31  C   UNK A   0       8.554  11.853  18.381  0.00  0.00    +0.000 A 
ATOM     32  C   UNK A   0       9.025  13.132  18.055  0.00  0.00    +0.000 A 
ATOM     33  C   UNK A   0       8.093  14.226  17.731  0.00  0.00    +0.000 A 
ATOM     34  O   UNK A   0       6.878  14.069  17.724  0.00  0.00    +0.000 OA
ATOM     35  N   UNK A   0       8.678  15.431  17.437  0.00  0.00    +0.000 N 
ATOM     36  H   UNK A   0       8.045  16.186  17.220  0.00  0.00    +0.000 HD
ENDBRANCH  23  30
ENDBRANCH  21  23
ENDBRANCH   1  21
TORSDOF 11
ENDMDL
MODEL 6
REMARK VINA RESULT:      -7.8      2.404      2.853
REMARK  Name = 
REMARK  12 active torsions:
REMARK  status: ('A' for Active; 'I' for Inactive)
REMARK    1  A    between atoms: C_1  and  C_2
REMARK    2  A    between atoms: C_7  and  C_8
REMARK    3  A    between atoms: C_8  and  N_9
REMARK    4  A    between atoms: N_9  and  C_10
REMARK    5  A    between atoms: C_13  and  C_14
REMARK    6  A    between atoms: N_16  and  CA_17
REMARK    7  A    between atoms: CA_17  and  CB_18
REMARK    8  A    between atoms: CA_17  and  C_23
REMARK    9  A    between atoms: CB_18  and  CG_19
REMARK   10  A    between atoms: CG_19  and  CD_20
REMARK   11  A    between atoms: CD_20  and  OE2_22
REMARK   12  A    between atoms: C_23  and  OXT_25
REMARK                            x       y       z     vdW  Elec       q    Type
REMARK                         _______ _______ _______ _____ _____    ______ ____
ROOT
ATOM      1  C   UNK A   0       1.704   7.582  20.073  0.00  0.00    +0.000 A 
ATOM      2  C   UNK A   0       1.989   8.321  18.945  0.00  0.00    +0.000 A 
ATOM      3  C   UNK A   0       2.776   7.601  17.995  0.00  0.00    +0.000 A 
ATOM      4  C   UNK A   0       3.090   6.327  18.428  0.00  0.00    +0.000 A 
ATOM      5  S   UNK A   0       2.414   6.027  19.974  0.00  0.00    +0.000 S 
ENDROOT
BRANCH   4   6
ATOM      6  C   UNK A   0       3.888   5.328  17.731  0.00  0.00    +0.000 C 
ATOM      7  O   UNK A   0       3.403   4.351  17.163  0.00  0.00    +0.000 OA
ATOM      8  N   GLU A   1       5.245   5.559  17.726  0.00  0.00    +0.000 N 
ATOM      9  H   GLU A   1       5.576   6.387  18.214  0.00  0.00    +0.000 HD
BRANCH   8  10
ATOM     10  CA  GLU A   1       6.235   4.705  17.076  0.00  0.00    +0.000 C 
BRANCH  10  11
ATOM     11  C   GLU A   1       7.532   4.892  17.874  0.00  0.00    +0.000 C 
ATOM     12  O   GLU A   1       7.709   5.814  18.656  0.00  0.00    +0.000 OA
BRANCH  11  13
ATOM     13  OXT GLU A   1       8.457   3.930  17.677  0.00  0.00    +0.000 OA
ATOM     14  HXT GLU A   1       9.051   4.067  16.909  0.00  0.00    +0.000 HD
ENDBRANCH  11  13
ENDBRANCH  10  11
BRANCH  10  15
ATOM     15  CB  GLU A   1       6.458   5.105  15.606  0.00  0.00    +0.000 C 
BRANCH  15  16
ATOM     16  CG  GLU A   1       5.710   4.240  14.596  0.00  0.00    +0.000 C 
BRANCH  16  17
ATOM     17  CD  GLU A   1       6.528   4.040  13.350  0.00  0.00    +0.000 C 
ATOM     18  OE1 GLU A   1       7.374   4.846  12.986  0.00  0.00    +0.000 OA
BRANCH  17  19
ATOM     19  OE2 GLU A   1       6.313   2.866  12.731  0.00  0.00    +0.000 OA
ATOM     20  HE2 GLU A   1       5.892   2.179  13.289  0.00  0.00    +0.000 HD
ENDBRANCH  17  19
ENDBRANCH  16  17
ENDBRANCH  15  16
ENDBRANCH  10  15
ENDBRANCH   8  10
ENDBRANCH   4   6
BRANCH   1  21
ATOM     21  N   UNK A   0       1.004   7.927  21.185  0.00  0.00    +0.000 N 
ATOM     22  H   UNK A   0       0.003   7.747  21.154  0.00  0.00    +0.000 HD
BRANCH  21  23
ATOM     23  C   UNK A   0       1.335   9.120  21.949  0.00  0.00    +0.000 C 
BRANCH  23  30
ATOM     24  C   UNK A   0      -4.175  14.788  20.992  0.00  0.00    +0.000 C 
ATOM     25  C   UNK A   0      -3.082  13.761  21.018  0.00  0.00    +0.000 A 
ATOM     26  N   UNK A   0      -2.893  13.020  22.061  0.00  0.00    +0.000 NA
ATOM     27  C   UNK A   0      -1.861  12.069  22.011  0.00  0.00    +0.000 A 
ATOM     28  C   UNK A   0      -1.628  11.266  23.127  0.00  0.00    +0.000 A 
ATOM     29  C   UNK A   0      -0.612  10.302  23.114  0.00  0.00    +0.000 A 
ATOM     30  C   UNK A   0       0.184  10.106  21.974  0.00  0.00    +0.000 A 
ATOM     31  C   UNK A   0      -0.039  10.928  20.859  0.00  0.00    +0.000 A 
ATOM     32  C   UNK A   0      -1.054  11.892  20.886  0.00  0.00    +0.000 A 
ATOM     33  C   UNK A   0      -1.302  12.770  19.729  0.00  0.00    +0.000 A 
ATOM     34  O   UNK A   0      -0.635  12.703  18.703  0.00  0.00    +0.000 OA
ATOM     35  N   UNK A   0      -2.329  13.666  19.878  0.00  0.00    +0.000 N 
ATOM     36  H   UNK A   0      -2.509  14.265  19.086  0.00  0.00    +0.000 HD
ENDBRANCH  23  30
ENDBRANCH  21  23
ENDBRANCH   1  21
TORSDOF 11
ENDMDL
MODEL 7
REMARK VINA RESULT:      -7.8      1.361      2.004
REMARK  Name = 
REMARK  12 active torsions:
REMARK  status: ('A' for Active; 'I' for Inactive)
REMARK    1  A    between atoms: C_1  and  C_2
REMARK    2  A    between atoms: C_7  and  C_8
REMARK    3  A    between atoms: C_8  and  N_9
REMARK    4  A    between atoms: N_9  and  C_10
REMARK    5  A    between atoms: C_13  and  C_14
REMARK    6  A    between atoms: N_16  and  CA_17
REMARK    7  A    between atoms: CA_17  and  CB_18
REMARK    8  A    between atoms: CA_17  and  C_23
REMARK    9  A    between atoms: CB_18  and  CG_19
REMARK   10  A    between atoms: CG_19  and  CD_20
REMARK   11  A    between atoms: CD_20  and  OE2_22
REMARK   12  A    between atoms: C_23  and  OXT_25
REMARK                            x       y       z     vdW  Elec       q    Type
REMARK                         _______ _______ _______ _____ _____    ______ ____
ROOT
ATOM      1  C   UNK A   0       1.985   8.511  18.633  0.00  0.00    +0.000 A 
ATOM      2  C   UNK A   0       1.883   7.675  19.724  0.00  0.00    +0.000 A 
ATOM      3  C   UNK A   0       2.599   6.451  19.552  0.00  0.00    +0.000 A 
ATOM      4  C   UNK A   0       3.222   6.372  18.322  0.00  0.00    +0.000 A 
ATOM      5  S   UNK A   0       2.934   7.790  17.403  0.00  0.00    +0.000 S 
ENDROOT
BRANCH   4   6
ATOM      6  C   UNK A   0       4.016   5.268  17.801  0.00  0.00    +0.000 C 
ATOM      7  O   UNK A   0       3.550   4.157  17.554  0.00  0.00    +0.000 OA
ATOM      8  N   GLU A   1       5.343   5.554  17.575  0.00  0.00    +0.000 N 
ATOM      9  H   GLU A   1       5.660   6.493  17.801  0.00  0.00    +0.000 HD
BRANCH   8  10
ATOM     10  CA  GLU A   1       6.321   4.611  17.040  0.00  0.00    +0.000 C 
BRANCH  10  11
ATOM     11  C   GLU A   1       7.483   4.604  18.043  0.00  0.00    +0.000 C 
ATOM     12  O   GLU A   1       8.556   4.065  17.819  0.00  0.00    +0.000 OA
BRANCH  11  13
ATOM     13  OXT GLU A   1       7.243   5.281  19.185  0.00  0.00    +0.000 OA
ATOM     14  HXT GLU A   1       6.375   5.733  19.232  0.00  0.00    +0.000 HD
ENDBRANCH  11  13
ENDBRANCH  10  11
BRANCH  10  15
ATOM     15  CB  GLU A   1       6.828   5.039  15.651  0.00  0.00    +0.000 C 
BRANCH  15  16
ATOM     16  CG  GLU A   1       6.189   4.286  14.487  0.00  0.00    +0.000 C 
BRANCH  16  17
ATOM     17  CD  GLU A   1       6.917   4.568  13.202  0.00  0.00    +0.000 C 
ATOM     18  OE1 GLU A   1       7.755   5.455  13.105  0.00  0.00    +0.000 OA
BRANCH  17  19
ATOM     19  OE2 GLU A   1       6.635   3.708  12.207  0.00  0.00    +0.000 OA
ATOM     20  HE2 GLU A   1       6.507   4.125  11.329  0.00  0.00    +0.000 HD
ENDBRANCH  17  19
ENDBRANCH  16  17
ENDBRANCH  15  16
ENDBRANCH  10  15
ENDBRANCH   8  10
ENDBRANCH   4   6
BRANCH   1  21
ATOM     21  N   UNK A   0       1.438   9.736  18.422  0.00  0.00    +0.000 N 
ATOM     22  H   UNK A   0       2.037  10.419  17.966  0.00  0.00    +0.000 HD
BRANCH  21  23
ATOM     23  C   UNK A   0       0.537  10.341  19.392  0.00  0.00    +0.000 C 
BRANCH  23  30
ATOM     24  C   UNK A   0      -6.847  12.508  17.348  0.00  0.00    +0.000 C 
ATOM     25  C   UNK A   0      -5.477  12.193  17.872  0.00  0.00    +0.000 A 
ATOM     26  N   UNK A   0      -4.687  11.399  17.226  0.00  0.00    +0.000 NA
ATOM     27  C   UNK A   0      -3.413  11.160  17.767  0.00  0.00    +0.000 A 
ATOM     28  C   UNK A   0      -2.546  10.298  17.097  0.00  0.00    +0.000 A 
ATOM     29  C   UNK A   0      -1.266  10.038  17.601  0.00  0.00    +0.000 A 
ATOM     30  C   UNK A   0      -0.816  10.652  18.781  0.00  0.00    +0.000 A 
ATOM     31  C   UNK A   0      -1.696  11.503  19.466  0.00  0.00    +0.000 A 
ATOM     32  C   UNK A   0      -2.976  11.751  18.954  0.00  0.00    +0.000 A 
ATOM     33  C   UNK A   0      -3.919  12.637  19.658  0.00  0.00    +0.000 A 
ATOM     34  O   UNK A   0      -3.635  13.187  20.715  0.00  0.00    +0.000 OA
ATOM     35  N   UNK A   0      -5.138  12.804  19.050  0.00  0.00    +0.000 N 
ATOM     36  H   UNK A   0      -5.786  13.416  19.524  0.00  0.00    +0.000 HD
ENDBRANCH  23  30
ENDBRANCH  21  23
ENDBRANCH   1  21
TORSDOF 11
ENDMDL
MODEL 8
REMARK VINA RESULT:      -7.8      3.557      3.949
REMARK  Name = 
REMARK  12 active torsions:
REMARK  status: ('A' for Active; 'I' for Inactive)
REMARK    1  A    between atoms: C_1  and  C_2
REMARK    2  A    between atoms: C_7  and  C_8
REMARK    3  A    between atoms: C_8  and  N_9
REMARK    4  A    between atoms: N_9  and  C_10
REMARK    5  A    between atoms: C_13  and  C_14
REMARK    6  A    between atoms: N_16  and  CA_17
REMARK    7  A    between atoms: CA_17  and  CB_18
REMARK    8  A    between atoms: CA_17  and  C_23
REMARK    9  A    between atoms: CB_18  and  CG_19
REMARK   10  A    between atoms: CG_19  and  CD_20
REMARK   11  A    between atoms: CD_20  and  OE2_22
REMARK   12  A    between atoms: C_23  and  OXT_25
REMARK                            x       y       z     vdW  Elec       q    Type
REMARK                         _______ _______ _______ _____ _____    ______ ____
ROOT
ATOM      1  C   UNK A   0       2.272   5.976  19.846  0.00  0.00    +0.000 A 
ATOM      2  C   UNK A   0       1.387   5.104  19.247  0.00  0.00    +0.000 A 
ATOM      3  C   UNK A   0       2.022   4.210  18.333  0.00  0.00    +0.000 A 
ATOM      4  C   UNK A   0       3.383   4.429  18.241  0.00  0.00    +0.000 A 
ATOM      5  S   UNK A   0       3.864   5.709  19.274  0.00  0.00    +0.000 S 
ENDROOT
BRANCH   4   6
ATOM      6  C   UNK A   0       4.338   3.722  17.398  0.00  0.00    +0.000 C 
ATOM      7  O   UNK A   0       4.595   2.526  17.524  0.00  0.00    +0.000 OA
ATOM      8  N   GLU A   1       4.930   4.482  16.415  0.00  0.00    +0.000 N 
ATOM      9  H   GLU A   1       4.668   5.464  16.368  0.00  0.00    +0.000 HD
BRANCH   8  10
ATOM     10  CA  GLU A   1       5.900   3.984  15.444  0.00  0.00    +0.000 C 
BRANCH  10  11
ATOM     11  C   GLU A   1       7.223   4.684  15.783  0.00  0.00    +0.000 C 
ATOM     12  O   GLU A   1       7.619   5.682  15.200  0.00  0.00    +0.000 OA
BRANCH  11  13
ATOM     13  OXT GLU A   1       7.903   4.134  16.810  0.00  0.00    +0.000 OA
ATOM     14  HXT GLU A   1       8.525   3.415  16.566  0.00  0.00    +0.000 HD
ENDBRANCH  11  13
ENDBRANCH  10  11
BRANCH  10  15
ATOM     15  CB  GLU A   1       5.484   4.313  13.999  0.00  0.00    +0.000 C 
BRANCH  15  16
ATOM     16  CG  GLU A   1       6.265   3.555  12.930  0.00  0.00    +0.000 C 
BRANCH  16  17
ATOM     17  CD  GLU A   1       5.333   2.857  11.979  0.00  0.00    +0.000 C 
ATOM     18  OE1 GLU A   1       4.305   3.379  11.567  0.00  0.00    +0.000 OA
BRANCH  17  19
ATOM     19  OE2 GLU A   1       5.772   1.659  11.554  0.00  0.00    +0.000 OA
ATOM     20  HE2 GLU A   1       5.163   0.912  11.735  0.00  0.00    +0.000 HD
ENDBRANCH  17  19
ENDBRANCH  16  17
ENDBRANCH  15  16
ENDBRANCH  10  15
ENDBRANCH   8  10
ENDBRANCH   4   6
BRANCH   1  21
ATOM     21  N   UNK A   0       2.043   6.966  20.746  0.00  0.00    +0.000 N 
ATOM     22  H   UNK A   0       2.793   7.147  21.410  0.00  0.00    +0.000 HD
BRANCH  21  23
ATOM     23  C   UNK A   0       0.724   7.178  21.320  0.00  0.00    +0.000 C 
BRANCH  23  30
ATOM     24  C   UNK A   0      -0.017  15.107  21.253  0.00  0.00    +0.000 C 
ATOM     25  C   UNK A   0       0.212  13.629  21.122  0.00  0.00    +0.000 A 
ATOM     26  N   UNK A   0      -0.231  12.809  22.019  0.00  0.00    +0.000 NA
ATOM     27  C   UNK A   0       0.005  11.438  21.826  0.00  0.00    +0.000 A 
ATOM     28  C   UNK A   0      -0.450  10.533  22.784  0.00  0.00    +0.000 A 
ATOM     29  C   UNK A   0      -0.239   9.157  22.625  0.00  0.00    +0.000 A 
ATOM     30  C   UNK A   0       0.418   8.654  21.491  0.00  0.00    +0.000 A 
ATOM     31  C   UNK A   0       0.894   9.567  20.538  0.00  0.00    +0.000 A 
ATOM     32  C   UNK A   0       0.681  10.940  20.711  0.00  0.00    +0.000 A 
ATOM     33  C   UNK A   0       1.176  11.917  19.726  0.00  0.00    +0.000 A 
ATOM     34  O   UNK A   0       1.796  11.579  18.724  0.00  0.00    +0.000 OA
ATOM     35  N   UNK A   0       0.897  13.231  20.006  0.00  0.00    +0.000 N 
ATOM     36  H   UNK A   0       1.227  13.904  19.331  0.00  0.00    +0.000 HD
ENDBRANCH  23  30
ENDBRANCH  21  23
ENDBRANCH   1  21
TORSDOF 11
ENDMDL
MODEL 9
REMARK VINA RESULT:      -7.7      1.782      3.238
REMARK  Name = 
REMARK  12 active torsions:
REMARK  status: ('A' for Active; 'I' for Inactive)
REMARK    1  A    between atoms: C_1  and  C_2
REMARK    2  A    between atoms: C_7  and  C_8
REMARK    3  A    between atoms: C_8  and  N_9
REMARK    4  A    between atoms: N_9  and  C_10
REMARK    5  A    between atoms: C_13  and  C_14
REMARK    6  A    between atoms: N_16  and  CA_17
REMARK    7  A    between atoms: CA_17  and  CB_18
REMARK    8  A    between atoms: CA_17  and  C_23
REMARK    9  A    between atoms: CB_18  and  CG_19
REMARK   10  A    between atoms: CG_19  and  CD_20
REMARK   11  A    between atoms: CD_20  and  OE2_22
REMARK   12  A    between atoms: C_23  and  OXT_25
REMARK                            x       y       z     vdW  Elec       q    Type
REMARK                         _______ _______ _______ _____ _____    ______ ____
ROOT
ATOM      1  C   UNK A   0       1.470   9.215  18.659  0.00  0.00    +0.000 A 
ATOM      2  C   UNK A   0       1.193   8.716  19.914  0.00  0.00    +0.000 A 
ATOM      3  C   UNK A   0       1.903   7.511  20.200  0.00  0.00    +0.000 A 
ATOM      4  C   UNK A   0       2.698   7.104  19.146  0.00  0.00    +0.000 A 
ATOM      5  S   UNK A   0       2.575   8.201  17.834  0.00  0.00    +0.000 S 
ENDROOT
BRANCH   4   6
ATOM      6  C   UNK A   0       3.540   5.918  19.079  0.00  0.00    +0.000 C 
ATOM      7  O   UNK A   0       3.884   5.275  20.070  0.00  0.00    +0.000 OA
ATOM      8  N   GLU A   1       3.917   5.536  17.812  0.00  0.00    +0.000 N 
ATOM      9  H   GLU A   1       3.596   6.112  17.038  0.00  0.00    +0.000 HD
BRANCH   8  10
ATOM     10  CA  GLU A   1       4.741   4.371  17.501  0.00  0.00    +0.000 C 
BRANCH  10  11
ATOM     11  C   GLU A   1       5.287   4.614  16.088  0.00  0.00    +0.000 C 
ATOM     12  O   GLU A   1       5.758   3.727  15.391  0.00  0.00    +0.000 OA
BRANCH  11  13
ATOM     13  OXT GLU A   1       5.170   5.885  15.650  0.00  0.00    +0.000 OA
ATOM     14  HXT GLU A   1       4.357   6.354  15.935  0.00  0.00    +0.000 HD
ENDBRANCH  11  13
ENDBRANCH  10  11
BRANCH  10  15
ATOM     15  CB  GLU A   1       3.924   3.066  17.532  0.00  0.00    +0.000 C 
BRANCH  15  16
ATOM     16  CG  GLU A   1       2.434   3.249  17.257  0.00  0.00    +0.000 C 
BRANCH  16  17
ATOM     17  CD  GLU A   1       1.612   2.803  18.435  0.00  0.00    +0.000 C 
ATOM     18  OE1 GLU A   1       1.097   3.595  19.212  0.00  0.00    +0.000 OA
BRANCH  17  19
ATOM     19  OE2 GLU A   1       1.422   1.473  18.503  0.00  0.00    +0.000 OA
ATOM     20  HE2 GLU A   1       2.038   1.001  19.103  0.00  0.00    +0.000 HD
ENDBRANCH  17  19
ENDBRANCH  16  17
ENDBRANCH  15  16
ENDBRANCH  10  15
ENDBRANCH   8  10
ENDBRANCH   4   6
BRANCH   1  21
ATOM     21  N   UNK A   0       0.982  10.318  18.035  0.00  0.00    +0.000 N 
ATOM     22  H   UNK A   0       1.387  10.531  17.126  0.00  0.00    +0.000 HD
BRANCH  21  23
ATOM     23  C   UNK A   0       0.620  11.514  18.780  0.00  0.00    +0.000 C 
BRANCH  23  30
ATOM     24  C   UNK A   0      -7.278  12.178  18.020  0.00  0.00    +0.000 C 
ATOM     25  C   UNK A   0      -5.788  11.999  18.003  0.00  0.00    +0.000 A 
ATOM     26  N   UNK A   0      -5.073  12.303  19.036  0.00  0.00    +0.000 NA
ATOM     27  C   UNK A   0      -3.686  12.095  18.957  0.00  0.00    +0.000 A 
ATOM     28  C   UNK A   0      -2.890  12.427  20.052  0.00  0.00    +0.000 A 
ATOM     29  C   UNK A   0      -1.504  12.229  20.014  0.00  0.00    +0.000 A 
ATOM     30  C   UNK A   0      -0.884  11.677  18.882  0.00  0.00    +0.000 A 
ATOM     31  C   UNK A   0      -1.683  11.363  17.772  0.00  0.00    +0.000 A 
ATOM     32  C   UNK A   0      -3.067  11.570  17.821  0.00  0.00    +0.000 A 
ATOM     33  C   UNK A   0      -3.926  11.252  16.667  0.00  0.00    +0.000 A 
ATOM     34  O   UNK A   0      -3.474  10.805  15.620  0.00  0.00    +0.000 OA
ATOM     35  N   UNK A   0      -5.264  11.493  16.844  0.00  0.00    +0.000 N 
ATOM     36  H   UNK A   0      -5.859  11.271  16.058  0.00  0.00    +0.000 HD
ENDBRANCH  23  30
ENDBRANCH  21  23
ENDBRANCH   1  21
TORSDOF 11
ENDMDL
