MODEL 1
REMARK VINA RESULT:      -9.1      0.000      0.000
REMARK  Name = 
REMARK  3 active torsions:
REMARK  status: ('A' for Active; 'I' for Inactive)
REMARK    1  A    between atoms: N_2  and  C_4
REMARK    2  A    between atoms: C_7  and  N_8
REMARK    3  A    between atoms: C_16  and  N_17
REMARK                            x       y       z     vdW  Elec       q    Type
REMARK                         _______ _______ _______ _____ _____    ______ ____
ROOT
ATOM      1  C   UNL     1       2.378   4.193  20.430  0.00  0.00    +0.000 A 
ATOM      2  C   UNL     1       1.922   5.526  20.541  0.00  0.00    +0.000 A 
ATOM      3  C   UNL     1       2.311   6.514  19.596  0.00  0.00    +0.000 A 
ATOM      4  C   UNL     1       1.975   7.907  19.487  0.00  0.00    +0.000 A 
ATOM      5  C   UNL     1       2.506   8.707  18.442  0.00  0.00    +0.000 A 
ATOM      6  C   UNL     1       3.365   8.163  17.484  0.00  0.00    +0.000 A 
ATOM      7  C   UNL     1       3.683   6.820  17.570  0.00  0.00    +0.000 A 
ATOM      8  C   UNL     1       3.174   6.031  18.593  0.00  0.00    +0.000 A 
ATOM      9  C   UNL     1       3.644   4.712  18.453  0.00  0.00    +0.000 A 
ATOM     10  C   UNL     1       3.221   3.779  19.390  0.00  0.00    +0.000 A 
ATOM     11  C   UNL     1       4.512   4.679  17.262  0.00  0.00    +0.000 A 
ATOM     12  C   UNL     1       5.247   3.689  16.634  0.00  0.00    +0.000 A 
ATOM     13  C   UNL     1       5.955   4.012  15.464  0.00  0.00    +0.000 A 
ATOM     14  C   UNL     1       5.934   5.310  14.932  0.00  0.00    +0.000 A 
ATOM     15  C   UNL     1       5.214   6.320  15.565  0.00  0.00    +0.000 A 
ATOM     16  C   UNL     1       4.517   5.995  16.718  0.00  0.00    +0.000 A 
ENDROOT
BRANCH   1  18
ATOM     17  O   UNL     1       2.587   3.112  22.436  0.00  0.00    +0.000 OA
ATOM     18  N   UNL     1       1.894   3.259  21.427  0.00  0.00    +0.000 N 
ATOM     19  O   UNL     1       0.796   2.734  21.206  0.00  0.00    +0.000 OA
ENDBRANCH   1  18
BRANCH   4  20
ATOM     20  N   UNL     1       1.057   8.572  20.434  0.00  0.00    +0.000 N 
ATOM     21  O   UNL     1       0.163   9.296  19.985  0.00  0.00    +0.000 OA
ATOM     22  O   UNL     1       1.241   8.373  21.643  0.00  0.00    +0.000 OA
ENDBRANCH   4  20
BRANCH  10  23
ATOM     23  N   UNL     1       3.643   2.401  19.325  0.00  0.00    +0.000 N 
ATOM     24  O   UNL     1       2.941   1.638  18.652  0.00  0.00    +0.000 OA
ATOM     25  O   UNL     1       4.672   2.093  19.934  0.00  0.00    +0.000 OA
ENDBRANCH  10  23
TORSDOF 3
ENDMDL
MODEL 2
REMARK VINA RESULT:      -8.1      2.192      4.992
REMARK  Name = 
REMARK  3 active torsions:
REMARK  status: ('A' for Active; 'I' for Inactive)
REMARK    1  A    between atoms: N_2  and  C_4
REMARK    2  A    between atoms: C_7  and  N_8
REMARK    3  A    between atoms: C_16  and  N_17
REMARK                            x       y       z     vdW  Elec       q    Type
REMARK                         _______ _______ _______ _____ _____    ______ ____
ROOT
ATOM      1  C   UNL     1       3.937   3.059  19.065  0.00  0.00    +0.000 A 
ATOM      2  C   UNL     1       4.686   3.520  17.959  0.00  0.00    +0.000 A 
ATOM      3  C   UNL     1       4.587   4.867  17.518  0.00  0.00    +0.000 A 
ATOM      4  C   UNL     1       5.245   5.566  16.447  0.00  0.00    +0.000 A 
ATOM      5  C   UNL     1       4.969   6.934  16.190  0.00  0.00    +0.000 A 
ATOM      6  C   UNL     1       4.057   7.645  16.973  0.00  0.00    +0.000 A 
ATOM      7  C   UNL     1       3.429   6.987  18.015  0.00  0.00    +0.000 A 
ATOM      8  C   UNL     1       3.687   5.646  18.270  0.00  0.00    +0.000 A 
ATOM      9  C   UNL     1       2.928   5.220  19.376  0.00  0.00    +0.000 A 
ATOM     10  C   UNL     1       3.073   3.899  19.781  0.00  0.00    +0.000 A 
ATOM     11  C   UNL     1       2.138   6.376  19.839  0.00  0.00    +0.000 A 
ATOM     12  C   UNL     1       1.224   6.570  20.860  0.00  0.00    +0.000 A 
ATOM     13  C   UNL     1       0.672   7.849  21.038  0.00  0.00    +0.000 A 
ATOM     14  C   UNL     1       1.023   8.920  20.202  0.00  0.00    +0.000 A 
ATOM     15  C   UNL     1       1.927   8.733  19.159  0.00  0.00    +0.000 A 
ATOM     16  C   UNL     1       2.469   7.469  18.989  0.00  0.00    +0.000 A 
ENDROOT
BRANCH   1  18
ATOM     17  O   UNL     1       3.533   0.823  18.801  0.00  0.00    +0.000 OA
ATOM     18  N   UNL     1       4.137   1.677  19.453  0.00  0.00    +0.000 N 
ATOM     19  O   UNL     1       4.946   1.470  20.365  0.00  0.00    +0.000 OA
ENDBRANCH   1  18
BRANCH   4  20
ATOM     20  N   UNL     1       6.244   4.912  15.578  0.00  0.00    +0.000 N 
ATOM     21  O   UNL     1       5.855   4.324  14.564  0.00  0.00    +0.000 OA
ATOM     22  O   UNL     1       7.433   4.984  15.920  0.00  0.00    +0.000 OA
ENDBRANCH   4  20
BRANCH  10  23
ATOM     23  N   UNL     1       2.345   3.373  20.909  0.00  0.00    +0.000 N 
ATOM     24  O   UNL     1       1.252   2.848  20.667  0.00  0.00    +0.000 OA
ATOM     25  O   UNL     1       2.870   3.476  22.022  0.00  0.00    +0.000 OA
ENDBRANCH  10  23
TORSDOF 3
ENDMDL
MODEL 3
REMARK VINA RESULT:      -7.9      2.091      5.053
REMARK  Name = 
REMARK  3 active torsions:
REMARK  status: ('A' for Active; 'I' for Inactive)
REMARK    1  A    between atoms: N_2  and  C_4
REMARK    2  A    between atoms: C_7  and  N_8
REMARK    3  A    between atoms: C_16  and  N_17
REMARK                            x       y       z     vdW  Elec       q    Type
REMARK                         _______ _______ _______ _____ _____    ______ ____
ROOT
ATOM      1  C   UNL     1       3.807   3.439  19.083  0.00  0.00    +0.000 A 
ATOM      2  C   UNL     1       4.680   3.607  17.986  0.00  0.00    +0.000 A 
ATOM      3  C   UNL     1       4.765   4.850  17.301  0.00  0.00    +0.000 A 
ATOM      4  C   UNL     1       5.572   5.267  16.187  0.00  0.00    +0.000 A 
ATOM      5  C   UNL     1       5.470   6.582  15.663  0.00  0.00    +0.000 A 
ATOM      6  C   UNL     1       4.590   7.513  16.218  0.00  0.00    +0.000 A 
ATOM      7  C   UNL     1       3.819   7.128  17.300  0.00  0.00    +0.000 A 
ATOM      8  C   UNL     1       3.906   5.841  17.815  0.00  0.00    +0.000 A 
ATOM      9  C   UNL     1       3.027   5.707  18.906  0.00  0.00    +0.000 A 
ATOM     10  C   UNL     1       2.993   4.479  19.554  0.00  0.00    +0.000 A 
ATOM     11  C   UNL     1       2.340   7.000  19.078  0.00  0.00    +0.000 A 
ATOM     12  C   UNL     1       1.383   7.471  19.960  0.00  0.00    +0.000 A 
ATOM     13  C   UNL     1       0.966   8.808  19.854  0.00  0.00    +0.000 A 
ATOM     14  C   UNL     1       1.494   9.662  18.873  0.00  0.00    +0.000 A 
ATOM     15  C   UNL     1       2.444   9.196  17.968  0.00  0.00    +0.000 A 
ATOM     16  C   UNL     1       2.851   7.875  18.079  0.00  0.00    +0.000 A 
ENDROOT
BRANCH   1  18
ATOM     17  O   UNL     1       2.956   1.336  19.384  0.00  0.00    +0.000 OA
ATOM     18  N   UNL     1       3.823   2.142  19.730  0.00  0.00    +0.000 N 
ATOM     19  O   UNL     1       4.743   1.935  20.530  0.00  0.00    +0.000 OA
ENDBRANCH   1  18
BRANCH   4  20
ATOM     20  N   UNL     1       6.551   4.367  15.544  0.00  0.00    +0.000 N 
ATOM     21  O   UNL     1       6.179   3.659  14.603  0.00  0.00    +0.000 OA
ATOM     22  O   UNL     1       7.706   4.365  15.994  0.00  0.00    +0.000 OA
ENDBRANCH   4  20
BRANCH  10  23
ATOM     23  N   UNL     1       2.132   4.248  20.687  0.00  0.00    +0.000 N 
ATOM     24  O   UNL     1       2.633   4.405  21.806  0.00  0.00    +0.000 OA
ATOM     25  O   UNL     1       0.963   3.924  20.455  0.00  0.00    +0.000 OA
ENDBRANCH  10  23
TORSDOF 3
ENDMDL
MODEL 4
REMARK VINA RESULT:      -7.9      3.027      5.982
REMARK  Name = 
REMARK  3 active torsions:
REMARK  status: ('A' for Active; 'I' for Inactive)
REMARK    1  A    between atoms: N_2  and  C_4
REMARK    2  A    between atoms: C_7  and  N_8
REMARK    3  A    between atoms: C_16  and  N_17
REMARK                            x       y       z     vdW  Elec       q    Type
REMARK                         _______ _______ _______ _____ _____    ______ ____
ROOT
ATOM      1  C   UNL     1       5.814   4.728  17.229  0.00  0.00    +0.000 A 
ATOM      2  C   UNL     1       5.480   3.719  18.160  0.00  0.00    +0.000 A 
ATOM      3  C   UNL     1       4.429   3.907  19.098  0.00  0.00    +0.000 A 
ATOM      4  C   UNL     1       3.900   3.041  20.117  0.00  0.00    +0.000 A 
ATOM      5  C   UNL     1       2.833   3.463  20.952  0.00  0.00    +0.000 A 
ATOM      6  C   UNL     1       2.260   4.728  20.805  0.00  0.00    +0.000 A 
ATOM      7  C   UNL     1       2.750   5.564  19.818  0.00  0.00    +0.000 A 
ATOM      8  C   UNL     1       3.799   5.162  19.000  0.00  0.00    +0.000 A 
ATOM      9  C   UNL     1       4.104   6.187  18.085  0.00  0.00    +0.000 A 
ATOM     10  C   UNL     1       5.128   5.949  17.176  0.00  0.00    +0.000 A 
ATOM     11  C   UNL     1       3.185   7.307  18.356  0.00  0.00    +0.000 A 
ATOM     12  C   UNL     1       3.007   8.562  17.800  0.00  0.00    +0.000 A 
ATOM     13  C   UNL     1       1.983   9.383  18.299  0.00  0.00    +0.000 A 
ATOM     14  C   UNL     1       1.150   8.959  19.346  0.00  0.00    +0.000 A 
ATOM     15  C   UNL     1       1.330   7.705  19.926  0.00  0.00    +0.000 A 
ATOM     16  C   UNL     1       2.343   6.900  19.429  0.00  0.00    +0.000 A 
ENDROOT
BRANCH   1  18
ATOM     17  O   UNL     1       8.034   4.552  16.707  0.00  0.00    +0.000 OA
ATOM     18  N   UNL     1       6.879   4.421  16.296  0.00  0.00    +0.000 N 
ATOM     19  O   UNL     1       6.537   3.996  15.186  0.00  0.00    +0.000 OA
ENDBRANCH   1  18
BRANCH   4  20
ATOM     20  N   UNL     1       4.419   1.676  20.337  0.00  0.00    +0.000 N 
ATOM     21  O   UNL     1       4.171   0.804  19.499  0.00  0.00    +0.000 OA
ATOM     22  O   UNL     1       5.076   1.475  21.368  0.00  0.00    +0.000 OA
ENDBRANCH   4  20
BRANCH  10  23
ATOM     23  N   UNL     1       5.507   6.935  16.194  0.00  0.00    +0.000 N 
ATOM     24  O   UNL     1       6.395   7.730  16.522  0.00  0.00    +0.000 OA
ATOM     25  O   UNL     1       4.928   6.902  15.104  0.00  0.00    +0.000 OA
ENDBRANCH  10  23
TORSDOF 3
ENDMDL
MODEL 5
REMARK VINA RESULT:      -7.8      2.878      5.699
REMARK  Name = 
REMARK  3 active torsions:
REMARK  status: ('A' for Active; 'I' for Inactive)
REMARK    1  A    between atoms: N_2  and  C_4
REMARK    2  A    between atoms: C_7  and  N_8
REMARK    3  A    between atoms: C_16  and  N_17
REMARK                            x       y       z     vdW  Elec       q    Type
REMARK                         _______ _______ _______ _____ _____    ______ ____
ROOT
ATOM      1  C   UNL     1       5.567   4.847  17.647  0.00  0.00    +0.000 A 
ATOM      2  C   UNL     1       5.061   3.987  18.648  0.00  0.00    +0.000 A 
ATOM      3  C   UNL     1       3.946   4.365  19.444  0.00  0.00    +0.000 A 
ATOM      4  C   UNL     1       3.251   3.672  20.494  0.00  0.00    +0.000 A 
ATOM      5  C   UNL     1       2.151   4.271  21.160  0.00  0.00    +0.000 A 
ATOM      6  C   UNL     1       1.704   5.547  20.811  0.00  0.00    +0.000 A 
ATOM      7  C   UNL     1       2.355   6.217  19.791  0.00  0.00    +0.000 A 
ATOM      8  C   UNL     1       3.438   5.642  19.138  0.00  0.00    +0.000 A 
ATOM      9  C   UNL     1       3.915   6.522  18.149  0.00  0.00    +0.000 A 
ATOM     10  C   UNL     1       4.996   6.100  17.384  0.00  0.00    +0.000 A 
ATOM     11  C   UNL     1       3.074   7.732  18.192  0.00  0.00    +0.000 A 
ATOM     12  C   UNL     1       3.058   8.919  17.481  0.00  0.00    +0.000 A 
ATOM     13  C   UNL     1       2.065   9.868  17.774  0.00  0.00    +0.000 A 
ATOM     14  C   UNL     1       1.104   9.637  18.770  0.00  0.00    +0.000 A 
ATOM     15  C   UNL     1       1.120   8.455  19.506  0.00  0.00    +0.000 A 
ATOM     16  C   UNL     1       2.102   7.522  19.211  0.00  0.00    +0.000 A 
ENDROOT
BRANCH   1  18
ATOM     17  O   UNL     1       6.421   3.814  15.793  0.00  0.00    +0.000 OA
ATOM     18  N   UNL     1       6.685   4.350  16.871  0.00  0.00    +0.000 N 
ATOM     19  O   UNL     1       7.814   4.561  17.330  0.00  0.00    +0.000 OA
ENDBRANCH   1  18
BRANCH   4  20
ATOM     20  N   UNL     1       3.628   2.310  20.922  0.00  0.00    +0.000 N 
ATOM     21  O   UNL     1       4.363   1.639  20.190  0.00  0.00    +0.000 OA
ATOM     22  O   UNL     1       3.176   1.904  22.002  0.00  0.00    +0.000 OA
ENDBRANCH   4  20
BRANCH  10  23
ATOM     23  N   UNL     1       5.550   6.927  16.341  0.00  0.00    +0.000 N 
ATOM     24  O   UNL     1       6.528   7.620  16.643  0.00  0.00    +0.000 OA
ATOM     25  O   UNL     1       5.015   6.871  15.229  0.00  0.00    +0.000 OA
ENDBRANCH  10  23
TORSDOF 3
ENDMDL
MODEL 6
REMARK VINA RESULT:      -7.4      2.829      4.786
REMARK  Name = 
REMARK  3 active torsions:
REMARK  status: ('A' for Active; 'I' for Inactive)
REMARK    1  A    between atoms: N_2  and  C_4
REMARK    2  A    between atoms: C_7  and  N_8
REMARK    3  A    between atoms: C_16  and  N_17
REMARK                            x       y       z     vdW  Elec       q    Type
REMARK                         _______ _______ _______ _____ _____    ______ ____
ROOT
ATOM      1  C   UNL     1       4.666   6.594  17.234  0.00  0.00    +0.000 A 
ATOM      2  C   UNL     1       3.780   7.639  17.579  0.00  0.00    +0.000 A 
ATOM      3  C   UNL     1       2.834   7.481  18.628  0.00  0.00    +0.000 A 
ATOM      4  C   UNL     1       1.854   8.384  19.167  0.00  0.00    +0.000 A 
ATOM      5  C   UNL     1       1.000   7.986  20.228  0.00  0.00    +0.000 A 
ATOM      6  C   UNL     1       1.090   6.709  20.786  0.00  0.00    +0.000 A 
ATOM      7  C   UNL     1       2.039   5.837  20.286  0.00  0.00    +0.000 A 
ATOM      8  C   UNL     1       2.875   6.215  19.243  0.00  0.00    +0.000 A 
ATOM      9  C   UNL     1       3.744   5.154  18.925  0.00  0.00    +0.000 A 
ATOM     10  C   UNL     1       4.664   5.364  17.905  0.00  0.00    +0.000 A 
ATOM     11  C   UNL     1       3.424   4.036  19.831  0.00  0.00    +0.000 A 
ATOM     12  C   UNL     1       3.923   2.756  19.994  0.00  0.00    +0.000 A 
ATOM     13  C   UNL     1       3.387   1.945  21.008  0.00  0.00    +0.000 A 
ATOM     14  C   UNL     1       2.359   2.406  21.846  0.00  0.00    +0.000 A 
ATOM     15  C   UNL     1       1.835   3.686  21.680  0.00  0.00    +0.000 A 
ATOM     16  C   UNL     1       2.369   4.480  20.678  0.00  0.00    +0.000 A 
ENDROOT
BRANCH   1  18
ATOM     17  O   UNL     1       5.196   6.776  15.016  0.00  0.00    +0.000 OA
ATOM     18  N   UNL     1       5.613   6.872  16.172  0.00  0.00    +0.000 N 
ATOM     19  O   UNL     1       6.740   7.241  16.520  0.00  0.00    +0.000 OA
ENDBRANCH   1  18
BRANCH   4  20
ATOM     20  N   UNL     1       1.694   9.764  18.664  0.00  0.00    +0.000 N 
ATOM     21  O   UNL     1       2.022  10.013  17.499  0.00  0.00    +0.000 OA
ATOM     22  O   UNL     1       1.243  10.609  19.449  0.00  0.00    +0.000 OA
ENDBRANCH   4  20
BRANCH  10  23
ATOM     23  N   UNL     1       5.602   4.340  17.514  0.00  0.00    +0.000 N 
ATOM     24  O   UNL     1       6.644   4.263  18.174  0.00  0.00    +0.000 OA
ATOM     25  O   UNL     1       5.289   3.617  16.563  0.00  0.00    +0.000 OA
ENDBRANCH  10  23
TORSDOF 3
ENDMDL
MODEL 7
REMARK VINA RESULT:      -6.7      6.432      9.558
REMARK  Name = 
REMARK  3 active torsions:
REMARK  status: ('A' for Active; 'I' for Inactive)
REMARK    1  A    between atoms: N_2  and  C_4
REMARK    2  A    between atoms: C_7  and  N_8
REMARK    3  A    between atoms: C_16  and  N_17
REMARK                            x       y       z     vdW  Elec       q    Type
REMARK                         _______ _______ _______ _____ _____    ______ ____
ROOT
ATOM      1  C   UNL     1       0.141  10.589  18.933  0.00  0.00    +0.000 A 
ATOM      2  C   UNL     1      -0.841  10.485  17.923  0.00  0.00    +0.000 A 
ATOM      3  C   UNL     1      -2.141  11.028  18.108  0.00  0.00    +0.000 A 
ATOM      4  C   UNL     1      -3.288  11.063  17.241  0.00  0.00    +0.000 A 
ATOM      5  C   UNL     1      -4.502  11.664  17.661  0.00  0.00    +0.000 A 
ATOM      6  C   UNL     1      -4.619  12.247  18.925  0.00  0.00    +0.000 A 
ATOM      7  C   UNL     1      -3.519  12.233  19.762  0.00  0.00    +0.000 A 
ATOM      8  C   UNL     1      -2.328  11.640  19.363  0.00  0.00    +0.000 A 
ATOM      9  C   UNL     1      -1.371  11.762  20.388  0.00  0.00    +0.000 A 
ATOM     10  C   UNL     1      -0.109  11.232  20.153  0.00  0.00    +0.000 A 
ATOM     11  C   UNL     1      -2.014  12.476  21.507  0.00  0.00    +0.000 A 
ATOM     12  C   UNL     1      -1.591  12.878  22.762  0.00  0.00    +0.000 A 
ATOM     13  C   UNL     1      -2.485  13.587  23.581  0.00  0.00    +0.000 A 
ATOM     14  C   UNL     1      -3.789  13.885  23.154  0.00  0.00    +0.000 A 
ATOM     15  C   UNL     1      -4.233  13.470  21.901  0.00  0.00    +0.000 A 
ATOM     16  C   UNL     1      -3.345  12.771  21.098  0.00  0.00    +0.000 A 
ENDROOT
BRANCH   1  18
ATOM     17  O   UNL     1       1.636   8.856  18.951  0.00  0.00    +0.000 OA
ATOM     18  N   UNL     1       1.444  10.031  18.629  0.00  0.00    +0.000 N 
ATOM     19  O   UNL     1       2.230  10.764  18.017  0.00  0.00    +0.000 OA
ENDBRANCH   1  18
BRANCH   4  20
ATOM     20  N   UNL     1      -3.260  10.498  15.877  0.00  0.00    +0.000 N 
ATOM     21  O   UNL     1      -3.389  11.261  14.915  0.00  0.00    +0.000 OA
ATOM     22  O   UNL     1      -3.116   9.272  15.770  0.00  0.00    +0.000 OA
ENDBRANCH   4  20
BRANCH  10  23
ATOM     23  N   UNL     1       0.940  11.316  21.140  0.00  0.00    +0.000 N 
ATOM     24  O   UNL     1       1.655  12.324  21.104  0.00  0.00    +0.000 OA
ATOM     25  O   UNL     1       1.035  10.386  21.947  0.00  0.00    +0.000 OA
ENDBRANCH  10  23
TORSDOF 3
ENDMDL
MODEL 8
REMARK VINA RESULT:      -6.5      7.060     10.212
REMARK  Name = 
REMARK  3 active torsions:
REMARK  status: ('A' for Active; 'I' for Inactive)
REMARK    1  A    between atoms: N_2  and  C_4
REMARK    2  A    between atoms: C_7  and  N_8
REMARK    3  A    between atoms: C_16  and  N_17
REMARK                            x       y       z     vdW  Elec       q    Type
REMARK                         _______ _______ _______ _____ _____    ______ ____
ROOT
ATOM      1  C   UNL     1      -0.411  11.075  19.347  0.00  0.00    +0.000 A 
ATOM      2  C   UNL     1      -1.230  10.846  18.219  0.00  0.00    +0.000 A 
ATOM      3  C   UNL     1      -2.586  11.268  18.201  0.00  0.00    +0.000 A 
ATOM      4  C   UNL     1      -3.599  11.166  17.185  0.00  0.00    +0.000 A 
ATOM      5  C   UNL     1      -4.910  11.663  17.409  0.00  0.00    +0.000 A 
ATOM      6  C   UNL     1      -5.253  12.272  18.617  0.00  0.00    +0.000 A 
ATOM      7  C   UNL     1      -4.283  12.390  19.596  0.00  0.00    +0.000 A 
ATOM      8  C   UNL     1      -3.000  11.901  19.389  0.00  0.00    +0.000 A 
ATOM      9  C   UNL     1      -2.211  12.146  20.528  0.00  0.00    +0.000 A 
ATOM     10  C   UNL     1      -0.886  11.731  20.491  0.00  0.00    +0.000 A 
ATOM     11  C   UNL     1      -3.065  12.832  21.516  0.00  0.00    +0.000 A 
ATOM     12  C   UNL     1      -2.858  13.313  22.797  0.00  0.00    +0.000 A 
ATOM     13  C   UNL     1      -3.918  13.960  23.454  0.00  0.00    +0.000 A 
ATOM     14  C   UNL     1      -5.171  14.119  22.841  0.00  0.00    +0.000 A 
ATOM     15  C   UNL     1      -5.397  13.622  21.559  0.00  0.00    +0.000 A 
ATOM     16  C   UNL     1      -4.347  12.985  20.917  0.00  0.00    +0.000 A 
ENDROOT
BRANCH   1  18
ATOM     17  O   UNL     1       1.778  11.442  18.790  0.00  0.00    +0.000 OA
ATOM     18  N   UNL     1       0.967  10.634  19.248  0.00  0.00    +0.000 N 
ATOM     19  O   UNL     1       1.219   9.507  19.687  0.00  0.00    +0.000 OA
ENDBRANCH   1  18
BRANCH   4  20
ATOM     20  N   UNL     1      -3.331  10.562  15.865  0.00  0.00    +0.000 N 
ATOM     21  O   UNL     1      -3.052   9.360  15.807  0.00  0.00    +0.000 OA
ATOM     22  O   UNL     1      -3.394  11.303  14.874  0.00  0.00    +0.000 OA
ENDBRANCH   4  20
BRANCH  10  23
ATOM     23  N   UNL     1       0.004  11.947  21.606  0.00  0.00    +0.000 N 
ATOM     24  O   UNL     1       0.042  11.057  22.464  0.00  0.00    +0.000 OA
ATOM     25  O   UNL     1       0.662  12.991  21.613  0.00  0.00    +0.000 OA
ENDBRANCH  10  23
TORSDOF 3
ENDMDL
MODEL 9
REMARK VINA RESULT:      -6.5      6.678      9.351
REMARK  Name = 
REMARK  3 active torsions:
REMARK  status: ('A' for Active; 'I' for Inactive)
REMARK    1  A    between atoms: N_2  and  C_4
REMARK    2  A    between atoms: C_7  and  N_8
REMARK    3  A    between atoms: C_16  and  N_17
REMARK                            x       y       z     vdW  Elec       q    Type
REMARK                         _______ _______ _______ _____ _____    ______ ____
ROOT
ATOM      1  C   UNL     1      -3.534  12.703  21.191  0.00  0.00    +0.000 A 
ATOM      2  C   UNL     1      -4.411  12.659  20.085  0.00  0.00    +0.000 A 
ATOM      3  C   UNL     1      -4.036  12.010  18.878  0.00  0.00    +0.000 A 
ATOM      4  C   UNL     1      -4.745  11.821  17.641  0.00  0.00    +0.000 A 
ATOM      5  C   UNL     1      -4.145  11.134  16.554  0.00  0.00    +0.000 A 
ATOM      6  C   UNL     1      -2.853  10.613  16.654  0.00  0.00    +0.000 A 
ATOM      7  C   UNL     1      -2.167  10.776  17.844  0.00  0.00    +0.000 A 
ATOM      8  C   UNL     1      -2.743  11.453  18.912  0.00  0.00    +0.000 A 
ATOM      9  C   UNL     1      -1.846  11.477  19.996  0.00  0.00    +0.000 A 
ATOM     10  C   UNL     1      -2.265  12.108  21.160  0.00  0.00    +0.000 A 
ATOM     11  C   UNL     1      -0.624  10.769  19.571  0.00  0.00    +0.000 A 
ATOM     12  C   UNL     1       0.582  10.478  20.186  0.00  0.00    +0.000 A 
ATOM     13  C   UNL     1       1.539   9.735  19.476  0.00  0.00    +0.000 A 
ATOM     14  C   UNL     1       1.299   9.295  18.165  0.00  0.00    +0.000 A 
ATOM     15  C   UNL     1       0.097   9.598  17.529  0.00  0.00    +0.000 A 
ATOM     16  C   UNL     1      -0.844  10.331  18.235  0.00  0.00    +0.000 A 
ENDROOT
BRANCH   1  18
ATOM     17  O   UNL     1      -3.829  14.574  22.474  0.00  0.00    +0.000 OA
ATOM     18  N   UNL     1      -4.029  13.361  22.384  0.00  0.00    +0.000 N 
ATOM     19  O   UNL     1      -4.662  12.659  23.181  0.00  0.00    +0.000 OA
ENDBRANCH   1  18
BRANCH   4  20
ATOM     20  N   UNL     1      -6.124  12.310  17.442  0.00  0.00    +0.000 N 
ATOM     21  O   UNL     1      -6.293  13.389  16.865  0.00  0.00    +0.000 OA
ATOM     22  O   UNL     1      -7.047  11.608  17.876  0.00  0.00    +0.000 OA
ENDBRANCH   4  20
BRANCH  10  23
ATOM     23  N   UNL     1      -1.421  12.176  22.327  0.00  0.00    +0.000 N 
ATOM     24  O   UNL     1      -0.659  13.147  22.404  0.00  0.00    +0.000 OA
ATOM     25  O   UNL     1      -1.530  11.271  23.160  0.00  0.00    +0.000 OA
ENDBRANCH  10  23
TORSDOF 3
ENDMDL
