MODEL 1
REMARK VINA RESULT:      -6.3      0.000      0.000
REMARK  Name = 
REMARK  18 active torsions:
REMARK  status: ('A' for Active; 'I' for Inactive)
REMARK    1  A    between atoms: C_1  and  O_2
REMARK    2  A    between atoms: O_2  and  C_3
REMARK    3  A    between atoms: C_6  and  C_7
REMARK    4  A    between atoms: C_7  and  C_9
REMARK    5  A    between atoms: C_10  and  O_11
REMARK    6  A    between atoms: N_14  and  C_15
REMARK    7  A    between atoms: C_15  and  C_16
REMARK    8  A    between atoms: C_16  and  N_17
REMARK    9  A    between atoms: N_17  and  C_18
REMARK   10  A    between atoms: N_17  and  C_19
REMARK   11  A    between atoms: C_20  and  C_21
REMARK   12  A    between atoms: C_23  and  O_24
REMARK   13  A    between atoms: O_24  and  C_25
REMARK   14  A    between atoms: C_26  and  O_27
REMARK   15  A    between atoms: O_27  and  C_28
REMARK   16  A    between atoms: C_29  and  O_30
REMARK   17  A    between atoms: O_30  and  C_31
REMARK   18  A    between atoms: C_33  and  C_34
REMARK                            x       y       z     vdW  Elec       q    Type
REMARK                         _______ _______ _______ _____ _____    ______ ____
ROOT
ATOM      1  C   UNL     1       1.014  11.646  19.248  0.00  0.00    +0.000 C 
ATOM      2  C   UNL     1       1.846  12.420  18.529  0.00  0.00    +0.000 C 
ATOM      3  C   UNL     1       1.690  13.814  19.005  0.00  0.00    +0.000 C 
ATOM      4  O   UNL     1       2.513  14.695  18.866  0.00  0.00    +0.000 OA
ATOM      5  N   UNL     1       0.441  13.875  19.643  0.00  0.00    +0.000 N 
ATOM      6  C   UNL     1       0.253  12.538  20.216  0.00  0.00    +0.000 C 
ENDROOT
BRANCH   6   7
ATOM      7  C   UNL     1      -1.107  12.053  20.689  0.00  0.00    +0.000 A 
ATOM      8  C   UNL     1      -1.530  12.254  22.005  0.00  0.00    +0.000 A 
ATOM      9  C   UNL     1      -2.826  12.727  22.245  0.00  0.00    +0.000 A 
ATOM     10  C   UNL     1      -3.731  12.879  21.163  0.00  0.00    +0.000 A 
ATOM     11  C   UNL     1      -3.380  12.380  19.898  0.00  0.00    +0.000 A 
ATOM     12  C   UNL     1      -2.083  11.899  19.697  0.00  0.00    +0.000 A 
BRANCH   9  13
ATOM     13  O   UNL     1      -3.211  13.246  23.455  0.00  0.00    +0.000 OA
ATOM     14  C   UNL     1      -3.928  12.431  24.370  0.00  0.00    +0.000 C 
ENDBRANCH   9  13
BRANCH  10  15
ATOM     15  O   UNL     1      -4.950  13.502  21.320  0.00  0.00    +0.000 OA
ATOM     16  C   UNL     1      -6.042  12.584  21.418  0.00  0.00    +0.000 C 
ENDBRANCH  10  15
BRANCH  11  17
ATOM     17  O   UNL     1      -4.082  12.396  18.724  0.00  0.00    +0.000 OA
ATOM     18  C   UNL     1      -4.402  11.173  18.085  0.00  0.00    +0.000 C 
ENDBRANCH  11  17
ENDBRANCH   6   7
BRANCH   1  19
ATOM     19  C   UNL     1       0.766  10.278  18.694  0.00  0.00    +0.000 C 
ATOM     20  O   UNL     1      -0.014  10.251  17.725  0.00  0.00    +0.000 OA
BRANCH  19  24
ATOM     21  C   UNL     1       2.782   6.469  19.480  0.00  0.00    +0.000 A 
ATOM     22  C   UNL     1       2.792   7.082  18.244  0.00  0.00    +0.000 A 
ATOM     23  C   UNL     1       2.108   8.301  18.069  0.00  0.00    +0.000 A 
ATOM     24  C   UNL     1       1.359   8.940  19.093  0.00  0.00    +0.000 A 
ATOM     25  C   UNL     1       1.326   8.297  20.338  0.00  0.00    +0.000 A 
ATOM     26  C   UNL     1       0.529   8.703  21.530  0.00  0.00    +0.000 C 
ATOM     27  C   UNL     1       2.092   7.092  20.513  0.00  0.00    +0.000 A 
BRANCH  21  29
ATOM     28  C   UNL     1       2.562   4.087  19.629  0.00  0.00    +0.000 C 
ATOM     29  O   UNL     1       3.350   5.262  19.798  0.00  0.00    +0.000 OA
ENDBRANCH  21  29
ENDBRANCH  19  24
ENDBRANCH   1  19
BRANCH   2  30
ATOM     30  O   UNL     1       2.585  12.096  17.425  0.00  0.00    +0.000 OA
ATOM     31  H   UNL     1       3.528  12.155  17.695  0.00  0.00    +0.000 HD
ENDBRANCH   2  30
BRANCH   5  32
ATOM     32  C   UNL     1       0.044  15.140  20.306  0.00  0.00    +0.000 C 
BRANCH  32  33
ATOM     33  C   UNL     1      -0.765  16.130  19.379  0.00  0.00    +0.000 C 
BRANCH  33  34
ATOM     34  N   UNL     1       0.033  17.032  18.502  0.00  0.00    +0.000 NA
ATOM     35  C   UNL     1      -0.830  17.935  17.734  0.00  0.00    +0.000 C 
ATOM     36  C   UNL     1       0.941  17.860  19.316  0.00  0.00    +0.000 C 
ENDBRANCH  33  34
ENDBRANCH  32  33
ENDBRANCH   5  32
TORSDOF 11
ENDMDL
MODEL 2
REMARK VINA RESULT:      -6.3      1.126      1.604
REMARK  Name = 
REMARK  18 active torsions:
REMARK  status: ('A' for Active; 'I' for Inactive)
REMARK    1  A    between atoms: C_1  and  O_2
REMARK    2  A    between atoms: O_2  and  C_3
REMARK    3  A    between atoms: C_6  and  C_7
REMARK    4  A    between atoms: C_7  and  C_9
REMARK    5  A    between atoms: C_10  and  O_11
REMARK    6  A    between atoms: N_14  and  C_15
REMARK    7  A    between atoms: C_15  and  C_16
REMARK    8  A    between atoms: C_16  and  N_17
REMARK    9  A    between atoms: N_17  and  C_18
REMARK   10  A    between atoms: N_17  and  C_19
REMARK   11  A    between atoms: C_20  and  C_21
REMARK   12  A    between atoms: C_23  and  O_24
REMARK   13  A    between atoms: O_24  and  C_25
REMARK   14  A    between atoms: C_26  and  O_27
REMARK   15  A    between atoms: O_27  and  C_28
REMARK   16  A    between atoms: C_29  and  O_30
REMARK   17  A    between atoms: O_30  and  C_31
REMARK   18  A    between atoms: C_33  and  C_34
REMARK                            x       y       z     vdW  Elec       q    Type
REMARK                         _______ _______ _______ _____ _____    ______ ____
ROOT
ATOM      1  C   UNL     1       1.000  11.685  19.252  0.00  0.00    +0.000 C 
ATOM      2  C   UNL     1       1.830  12.474  18.547  0.00  0.00    +0.000 C 
ATOM      3  C   UNL     1       1.654  13.862  19.034  0.00  0.00    +0.000 C 
ATOM      4  O   UNL     1       2.470  14.753  18.909  0.00  0.00    +0.000 OA
ATOM      5  N   UNL     1       0.400  13.904  19.660  0.00  0.00    +0.000 N 
ATOM      6  C   UNL     1       0.221  12.561  20.220  0.00  0.00    +0.000 C 
ENDROOT
BRANCH   6   7
ATOM      7  C   UNL     1      -1.138  12.057  20.677  0.00  0.00    +0.000 A 
ATOM      8  C   UNL     1      -1.587  12.267  21.984  0.00  0.00    +0.000 A 
ATOM      9  C   UNL     1      -2.895  12.720  22.196  0.00  0.00    +0.000 A 
ATOM     10  C   UNL     1      -3.784  12.841  21.096  0.00  0.00    +0.000 A 
ATOM     11  C   UNL     1      -3.403  12.333  19.844  0.00  0.00    +0.000 A 
ATOM     12  C   UNL     1      -2.095  11.874  19.671  0.00  0.00    +0.000 A 
BRANCH   9  13
ATOM     13  O   UNL     1      -3.310  13.246  23.392  0.00  0.00    +0.000 OA
ATOM     14  C   UNL     1      -3.935  12.404  24.349  0.00  0.00    +0.000 C 
ENDBRANCH   9  13
BRANCH  10  15
ATOM     15  O   UNL     1      -5.017  13.445  21.225  0.00  0.00    +0.000 OA
ATOM     16  C   UNL     1      -6.086  12.509  21.382  0.00  0.00    +0.000 C 
ENDBRANCH  10  15
BRANCH  11  17
ATOM     17  O   UNL     1      -4.086  12.322  18.658  0.00  0.00    +0.000 OA
ATOM     18  C   UNL     1      -3.724  11.390  17.655  0.00  0.00    +0.000 C 
ENDBRANCH  11  17
ENDBRANCH   6   7
BRANCH   1  19
ATOM     19  C   UNL     1       0.772  10.319  18.685  0.00  0.00    +0.000 C 
ATOM     20  O   UNL     1       0.031  10.296  17.686  0.00  0.00    +0.000 OA
BRANCH  19  24
ATOM     21  C   UNL     1       2.756   6.509  19.544  0.00  0.00    +0.000 A 
ATOM     22  C   UNL     1       2.835   7.136  18.317  0.00  0.00    +0.000 A 
ATOM     23  C   UNL     1       2.157   8.354  18.117  0.00  0.00    +0.000 A 
ATOM     24  C   UNL     1       1.346   8.979  19.102  0.00  0.00    +0.000 A 
ATOM     25  C   UNL     1       1.244   8.322  20.336  0.00  0.00    +0.000 A 
ATOM     26  C   UNL     1       0.378   8.711  21.485  0.00  0.00    +0.000 C 
ATOM     27  C   UNL     1       2.004   7.117  20.542  0.00  0.00    +0.000 A 
BRANCH  21  29
ATOM     28  C   UNL     1       4.456   4.865  19.154  0.00  0.00    +0.000 C 
ATOM     29  O   UNL     1       3.310   5.301  19.881  0.00  0.00    +0.000 OA
ENDBRANCH  21  29
ENDBRANCH  19  24
ENDBRANCH   1  19
BRANCH   2  30
ATOM     30  O   UNL     1       2.583  12.167  17.448  0.00  0.00    +0.000 OA
ATOM     31  H   UNL     1       2.709  11.193  17.461  0.00  0.00    +0.000 HD
ENDBRANCH   2  30
BRANCH   5  32
ATOM     32  C   UNL     1      -0.017  15.159  20.330  0.00  0.00    +0.000 C 
BRANCH  32  33
ATOM     33  C   UNL     1       0.483  15.294  21.822  0.00  0.00    +0.000 C 
BRANCH  33  34
ATOM     34  N   UNL     1      -0.526  15.711  22.835  0.00  0.00    +0.000 NA
ATOM     35  C   UNL     1      -0.002  16.760  23.715  0.00  0.00    +0.000 C 
ATOM     36  C   UNL     1      -1.727  16.243  22.165  0.00  0.00    +0.000 C 
ENDBRANCH  33  34
ENDBRANCH  32  33
ENDBRANCH   5  32
TORSDOF 11
ENDMDL
MODEL 3
REMARK VINA RESULT:      -6.2      1.156      1.553
REMARK  Name = 
REMARK  18 active torsions:
REMARK  status: ('A' for Active; 'I' for Inactive)
REMARK    1  A    between atoms: C_1  and  O_2
REMARK    2  A    between atoms: O_2  and  C_3
REMARK    3  A    between atoms: C_6  and  C_7
REMARK    4  A    between atoms: C_7  and  C_9
REMARK    5  A    between atoms: C_10  and  O_11
REMARK    6  A    between atoms: N_14  and  C_15
REMARK    7  A    between atoms: C_15  and  C_16
REMARK    8  A    between atoms: C_16  and  N_17
REMARK    9  A    between atoms: N_17  and  C_18
REMARK   10  A    between atoms: N_17  and  C_19
REMARK   11  A    between atoms: C_20  and  C_21
REMARK   12  A    between atoms: C_23  and  O_24
REMARK   13  A    between atoms: O_24  and  C_25
REMARK   14  A    between atoms: C_26  and  O_27
REMARK   15  A    between atoms: O_27  and  C_28
REMARK   16  A    between atoms: C_29  and  O_30
REMARK   17  A    between atoms: O_30  and  C_31
REMARK   18  A    between atoms: C_33  and  C_34
REMARK                            x       y       z     vdW  Elec       q    Type
REMARK                         _______ _______ _______ _____ _____    ______ ____
ROOT
ATOM      1  C   UNL     1       1.060  11.634  19.288  0.00  0.00    +0.000 C 
ATOM      2  C   UNL     1       1.868  12.393  18.527  0.00  0.00    +0.000 C 
ATOM      3  C   UNL     1       1.752  13.791  19.003  0.00  0.00    +0.000 C 
ATOM      4  O   UNL     1       2.580  14.661  18.821  0.00  0.00    +0.000 OA
ATOM      5  N   UNL     1       0.536  13.871  19.699  0.00  0.00    +0.000 N 
ATOM      6  C   UNL     1       0.358  12.540  20.287  0.00  0.00    +0.000 C 
ENDROOT
BRANCH   6   7
ATOM      7  C   UNL     1      -0.985  12.074  20.827  0.00  0.00    +0.000 A 
ATOM      8  C   UNL     1      -1.301  12.193  22.182  0.00  0.00    +0.000 A 
ATOM      9  C   UNL     1      -2.553  12.698  22.553  0.00  0.00    +0.000 A 
ATOM     10  C   UNL     1      -3.527  12.966  21.556  0.00  0.00    +0.000 A 
ATOM     11  C   UNL     1      -3.292  12.550  20.236  0.00  0.00    +0.000 A 
ATOM     12  C   UNL     1      -2.036  12.035  19.903  0.00  0.00    +0.000 A 
BRANCH   9  13
ATOM     13  O   UNL     1      -2.825  13.140  23.823  0.00  0.00    +0.000 OA
ATOM     14  C   UNL     1      -2.309  14.390  24.255  0.00  0.00    +0.000 C 
ENDBRANCH   9  13
BRANCH  10  15
ATOM     15  O   UNL     1      -4.702  13.624  21.850  0.00  0.00    +0.000 OA
ATOM     16  C   UNL     1      -5.788  12.737  22.130  0.00  0.00    +0.000 C 
ENDBRANCH  10  15
BRANCH  11  17
ATOM     17  O   UNL     1      -4.077  12.682  19.123  0.00  0.00    +0.000 OA
ATOM     18  C   UNL     1      -4.873  11.591  18.697  0.00  0.00    +0.000 C 
ENDBRANCH  11  17
ENDBRANCH   6   7
BRANCH   1  19
ATOM     19  C   UNL     1       0.768  10.266  18.753  0.00  0.00    +0.000 C 
ATOM     20  O   UNL     1      -0.031  10.249  17.800  0.00  0.00    +0.000 OA
BRANCH  19  24
ATOM     21  C   UNL     1       2.723   6.429  19.554  0.00  0.00    +0.000 A 
ATOM     22  C   UNL     1       2.775   7.055  18.326  0.00  0.00    +0.000 A 
ATOM     23  C   UNL     1       2.108   8.283  18.145  0.00  0.00    +0.000 A 
ATOM     24  C   UNL     1       1.336   8.918  19.154  0.00  0.00    +0.000 A 
ATOM     25  C   UNL     1       1.261   8.263  20.390  0.00  0.00    +0.000 A 
ATOM     26  C   UNL     1       0.435   8.664  21.564  0.00  0.00    +0.000 C 
ATOM     27  C   UNL     1       2.010   7.048  20.575  0.00  0.00    +0.000 A 
BRANCH  21  29
ATOM     28  C   UNL     1       4.164   4.614  18.940  0.00  0.00    +0.000 C 
ATOM     29  O   UNL     1       3.270   5.214  19.875  0.00  0.00    +0.000 OA
ENDBRANCH  21  29
ENDBRANCH  19  24
ENDBRANCH   1  19
BRANCH   2  30
ATOM     30  O   UNL     1       2.549  12.055  17.391  0.00  0.00    +0.000 OA
ATOM     31  H   UNL     1       1.977  11.424  16.901  0.00  0.00    +0.000 HD
ENDBRANCH   2  30
BRANCH   5  32
ATOM     32  C   UNL     1       0.188  15.144  20.374  0.00  0.00    +0.000 C 
BRANCH  32  33
ATOM     33  C   UNL     1       0.686  15.242  21.869  0.00  0.00    +0.000 C 
BRANCH  33  34
ATOM     34  N   UNL     1       1.767  16.225  22.155  0.00  0.00    +0.000 NA
ATOM     35  C   UNL     1       3.079  15.574  22.236  0.00  0.00    +0.000 C 
ATOM     36  C   UNL     1       1.830  17.235  21.083  0.00  0.00    +0.000 C 
ENDBRANCH  33  34
ENDBRANCH  32  33
ENDBRANCH   5  32
TORSDOF 11
ENDMDL
MODEL 4
REMARK VINA RESULT:      -6.2      1.273      1.410
REMARK  Name = 
REMARK  18 active torsions:
REMARK  status: ('A' for Active; 'I' for Inactive)
REMARK    1  A    between atoms: C_1  and  O_2
REMARK    2  A    between atoms: O_2  and  C_3
REMARK    3  A    between atoms: C_6  and  C_7
REMARK    4  A    between atoms: C_7  and  C_9
REMARK    5  A    between atoms: C_10  and  O_11
REMARK    6  A    between atoms: N_14  and  C_15
REMARK    7  A    between atoms: C_15  and  C_16
REMARK    8  A    between atoms: C_16  and  N_17
REMARK    9  A    between atoms: N_17  and  C_18
REMARK   10  A    between atoms: N_17  and  C_19
REMARK   11  A    between atoms: C_20  and  C_21
REMARK   12  A    between atoms: C_23  and  O_24
REMARK   13  A    between atoms: O_24  and  C_25
REMARK   14  A    between atoms: C_26  and  O_27
REMARK   15  A    between atoms: O_27  and  C_28
REMARK   16  A    between atoms: C_29  and  O_30
REMARK   17  A    between atoms: O_30  and  C_31
REMARK   18  A    between atoms: C_33  and  C_34
REMARK                            x       y       z     vdW  Elec       q    Type
REMARK                         _______ _______ _______ _____ _____    ______ ____
ROOT
ATOM      1  C   UNL     1       0.870  11.966  19.403  0.00  0.00    +0.000 C 
ATOM      2  C   UNL     1       1.606  12.741  18.586  0.00  0.00    +0.000 C 
ATOM      3  C   UNL     1       1.513  14.133  19.082  0.00  0.00    +0.000 C 
ATOM      4  O   UNL     1       2.314  15.014  18.842  0.00  0.00    +0.000 OA
ATOM      5  N   UNL     1       0.355  14.194  19.872  0.00  0.00    +0.000 N 
ATOM      6  C   UNL     1       0.238  12.856  20.460  0.00  0.00    +0.000 C 
ENDROOT
BRANCH   6   7
ATOM      7  C   UNL     1      -1.052  12.371  21.100  0.00  0.00    +0.000 A 
ATOM      8  C   UNL     1      -1.291  12.540  22.466  0.00  0.00    +0.000 A 
ATOM      9  C   UNL     1      -2.537  13.019  22.891  0.00  0.00    +0.000 A 
ATOM     10  C   UNL     1      -3.577  13.210  21.944  0.00  0.00    +0.000 A 
ATOM     11  C   UNL     1      -3.407  12.742  20.632  0.00  0.00    +0.000 A 
ATOM     12  C   UNL     1      -2.155  12.255  20.245  0.00  0.00    +0.000 A 
BRANCH   9  13
ATOM     13  O   UNL     1      -2.749  13.508  24.155  0.00  0.00    +0.000 OA
ATOM     14  C   UNL     1      -2.207  14.769  24.518  0.00  0.00    +0.000 C 
ENDBRANCH   9  13
BRANCH  10  15
ATOM     15  O   UNL     1      -4.756  13.841  22.281  0.00  0.00    +0.000 OA
ATOM     16  C   UNL     1      -5.800  12.929  22.633  0.00  0.00    +0.000 C 
ENDBRANCH  10  15
BRANCH  11  17
ATOM     17  O   UNL     1      -4.260  12.798  19.563  0.00  0.00    +0.000 OA
ATOM     18  C   UNL     1      -4.243  11.759  18.602  0.00  0.00    +0.000 C 
ENDBRANCH  11  17
ENDBRANCH   6   7
BRANCH   1  19
ATOM     19  C   UNL     1       0.553  10.599  18.881  0.00  0.00    +0.000 C 
ATOM     20  O   UNL     1      -0.300  10.582  17.976  0.00  0.00    +0.000 OA
BRANCH  19  24
ATOM     21  C   UNL     1       2.583   6.780  19.577  0.00  0.00    +0.000 A 
ATOM     22  C   UNL     1       2.624   7.442  18.367  0.00  0.00    +0.000 A 
ATOM     23  C   UNL     1       1.932   8.661  18.220  0.00  0.00    +0.000 A 
ATOM     24  C   UNL     1       1.147   9.252  19.245  0.00  0.00    +0.000 A 
ATOM     25  C   UNL     1       1.085   8.561  20.463  0.00  0.00    +0.000 A 
ATOM     26  C   UNL     1       0.249   8.912  21.646  0.00  0.00    +0.000 C 
ATOM     27  C   UNL     1       1.857   7.356  20.614  0.00  0.00    +0.000 A 
BRANCH  21  29
ATOM     28  C   UNL     1       4.418   5.268  19.279  0.00  0.00    +0.000 C 
ATOM     29  O   UNL     1       3.154   5.568  19.865  0.00  0.00    +0.000 OA
ENDBRANCH  21  29
ENDBRANCH  19  24
ENDBRANCH   1  19
BRANCH   2  30
ATOM     30  O   UNL     1       2.201  12.418  17.398  0.00  0.00    +0.000 OA
ATOM     31  H   UNL     1       1.532  12.587  16.699  0.00  0.00    +0.000 HD
ENDBRANCH   2  30
BRANCH   5  32
ATOM     32  C   UNL     1       0.046  15.458  20.582  0.00  0.00    +0.000 C 
BRANCH  32  33
ATOM     33  C   UNL     1      -1.425  15.985  20.356  0.00  0.00    +0.000 C 
BRANCH  33  34
ATOM     34  N   UNL     1      -1.821  17.214  21.098  0.00  0.00    +0.000 NA
ATOM     35  C   UNL     1      -3.160  17.081  21.683  0.00  0.00    +0.000 C 
ATOM     36  C   UNL     1      -0.872  17.471  22.197  0.00  0.00    +0.000 C 
ENDBRANCH  33  34
ENDBRANCH  32  33
ENDBRANCH   5  32
TORSDOF 11
ENDMDL
MODEL 5
REMARK VINA RESULT:      -6.1      1.006      1.206
REMARK  Name = 
REMARK  18 active torsions:
REMARK  status: ('A' for Active; 'I' for Inactive)
REMARK    1  A    between atoms: C_1  and  O_2
REMARK    2  A    between atoms: O_2  and  C_3
REMARK    3  A    between atoms: C_6  and  C_7
REMARK    4  A    between atoms: C_7  and  C_9
REMARK    5  A    between atoms: C_10  and  O_11
REMARK    6  A    between atoms: N_14  and  C_15
REMARK    7  A    between atoms: C_15  and  C_16
REMARK    8  A    between atoms: C_16  and  N_17
REMARK    9  A    between atoms: N_17  and  C_18
REMARK   10  A    between atoms: N_17  and  C_19
REMARK   11  A    between atoms: C_20  and  C_21
REMARK   12  A    between atoms: C_23  and  O_24
REMARK   13  A    between atoms: O_24  and  C_25
REMARK   14  A    between atoms: C_26  and  O_27
REMARK   15  A    between atoms: O_27  and  C_28
REMARK   16  A    between atoms: C_29  and  O_30
REMARK   17  A    between atoms: O_30  and  C_31
REMARK   18  A    between atoms: C_33  and  C_34
REMARK                            x       y       z     vdW  Elec       q    Type
REMARK                         _______ _______ _______ _____ _____    ______ ____
ROOT
ATOM      1  C   UNL     1       1.285  11.478  19.138  0.00  0.00    +0.000 C 
ATOM      2  C   UNL     1       2.060  12.189  18.301  0.00  0.00    +0.000 C 
ATOM      3  C   UNL     1       2.010  13.605  18.734  0.00  0.00    +0.000 C 
ATOM      4  O   UNL     1       2.845  14.445  18.469  0.00  0.00    +0.000 OA
ATOM      5  N   UNL     1       0.844  13.741  19.503  0.00  0.00    +0.000 N 
ATOM      6  C   UNL     1       0.671  12.435  20.147  0.00  0.00    +0.000 C 
ENDROOT
BRANCH   6   7
ATOM      7  C   UNL     1      -0.645  12.024  20.787  0.00  0.00    +0.000 A 
ATOM      8  C   UNL     1      -0.884  12.231  22.148  0.00  0.00    +0.000 A 
ATOM      9  C   UNL     1      -2.108  12.777  22.555  0.00  0.00    +0.000 A 
ATOM     10  C   UNL     1      -3.132  12.998  21.598  0.00  0.00    +0.000 A 
ATOM     11  C   UNL     1      -2.976  12.498  20.295  0.00  0.00    +0.000 A 
ATOM     12  C   UNL     1      -1.747  11.944  19.927  0.00  0.00    +0.000 A 
BRANCH   9  13
ATOM     13  O   UNL     1      -2.303  13.299  23.808  0.00  0.00    +0.000 OA
ATOM     14  C   UNL     1      -1.664  14.515  24.167  0.00  0.00    +0.000 C 
ENDBRANCH   9  13
BRANCH  10  15
ATOM     15  O   UNL     1      -4.282  13.691  21.914  0.00  0.00    +0.000 OA
ATOM     16  C   UNL     1      -4.243  15.059  21.503  0.00  0.00    +0.000 C 
ENDBRANCH  10  15
BRANCH  11  17
ATOM     17  O   UNL     1      -3.820  12.574  19.220  0.00  0.00    +0.000 OA
ATOM     18  C   UNL     1      -4.006  11.435  18.399  0.00  0.00    +0.000 C 
ENDBRANCH  11  17
ENDBRANCH   6   7
BRANCH   1  19
ATOM     19  C   UNL     1       0.926  10.102  18.671  0.00  0.00    +0.000 C 
ATOM     20  O   UNL     1       0.049  10.073  17.789  0.00  0.00    +0.000 OA
BRANCH  19  24
ATOM     21  C   UNL     1       2.895   6.265  19.440  0.00  0.00    +0.000 A 
ATOM     22  C   UNL     1       2.915   6.884  18.208  0.00  0.00    +0.000 A 
ATOM     23  C   UNL     1       2.245   8.112  18.038  0.00  0.00    +0.000 A 
ATOM     24  C   UNL     1       1.502   8.755  19.064  0.00  0.00    +0.000 A 
ATOM     25  C   UNL     1       1.459   8.106  20.305  0.00  0.00    +0.000 A 
ATOM     26  C   UNL     1       0.665   8.515  21.499  0.00  0.00    +0.000 C 
ATOM     27  C   UNL     1       2.210   6.890  20.476  0.00  0.00    +0.000 A 
BRANCH  21  29
ATOM     28  C   UNL     1       2.570   3.991  20.124  0.00  0.00    +0.000 C 
ATOM     29  O   UNL     1       3.448   5.050  19.753  0.00  0.00    +0.000 OA
ENDBRANCH  21  29
ENDBRANCH  19  24
ENDBRANCH   1  19
BRANCH   2  30
ATOM     30  O   UNL     1       2.659  11.795  17.137  0.00  0.00    +0.000 OA
ATOM     31  H   UNL     1       3.468  12.343  17.041  0.00  0.00    +0.000 HD
ENDBRANCH   2  30
BRANCH   5  32
ATOM     32  C   UNL     1       0.571  15.045  20.154  0.00  0.00    +0.000 C 
BRANCH  32  33
ATOM     33  C   UNL     1      -0.862  15.633  19.848  0.00  0.00    +0.000 C 
BRANCH  33  34
ATOM     34  N   UNL     1      -1.177  16.971  20.424  0.00  0.00    +0.000 NA
ATOM     35  C   UNL     1      -0.311  17.281  21.566  0.00  0.00    +0.000 C 
ATOM     36  C   UNL     1      -0.977  18.020  19.407  0.00  0.00    +0.000 C 
ENDBRANCH  33  34
ENDBRANCH  32  33
ENDBRANCH   5  32
TORSDOF 11
ENDMDL
MODEL 6
REMARK VINA RESULT:      -6.1      2.282      4.640
REMARK  Name = 
REMARK  18 active torsions:
REMARK  status: ('A' for Active; 'I' for Inactive)
REMARK    1  A    between atoms: C_1  and  O_2
REMARK    2  A    between atoms: O_2  and  C_3
REMARK    3  A    between atoms: C_6  and  C_7
REMARK    4  A    between atoms: C_7  and  C_9
REMARK    5  A    between atoms: C_10  and  O_11
REMARK    6  A    between atoms: N_14  and  C_15
REMARK    7  A    between atoms: C_15  and  C_16
REMARK    8  A    between atoms: C_16  and  N_17
REMARK    9  A    between atoms: N_17  and  C_18
REMARK   10  A    between atoms: N_17  and  C_19
REMARK   11  A    between atoms: C_20  and  C_21
REMARK   12  A    between atoms: C_23  and  O_24
REMARK   13  A    between atoms: O_24  and  C_25
REMARK   14  A    between atoms: C_26  and  O_27
REMARK   15  A    between atoms: O_27  and  C_28
REMARK   16  A    between atoms: C_29  and  O_30
REMARK   17  A    between atoms: O_30  and  C_31
REMARK   18  A    between atoms: C_33  and  C_34
REMARK                            x       y       z     vdW  Elec       q    Type
REMARK                         _______ _______ _______ _____ _____    ______ ____
ROOT
ATOM      1  C   UNL     1      -1.027  11.935  18.861  0.00  0.00    +0.000 C 
ATOM      2  C   UNL     1      -1.783  11.343  17.920  0.00  0.00    +0.000 C 
ATOM      3  C   UNL     1      -3.196  11.698  18.188  0.00  0.00    +0.000 C 
ATOM      4  O   UNL     1      -4.091  11.666  17.367  0.00  0.00    +0.000 OA
ATOM      5  N   UNL     1      -3.257  12.083  19.536  0.00  0.00    +0.000 N 
ATOM      6  C   UNL     1      -1.949  12.687  19.807  0.00  0.00    +0.000 C 
ENDROOT
BRANCH   6   7
ATOM      7  C   UNL     1      -1.453  12.922  21.225  0.00  0.00    +0.000 A 
ATOM      8  C   UNL     1      -0.616  13.998  21.530  0.00  0.00    +0.000 A 
ATOM      9  C   UNL     1      -0.890  14.782  22.658  0.00  0.00    +0.000 A 
ATOM     10  C   UNL     1      -1.934  14.402  23.541  0.00  0.00    +0.000 A 
ATOM     11  C   UNL     1      -2.554  13.154  23.377  0.00  0.00    +0.000 A 
ATOM     12  C   UNL     1      -2.246  12.389  22.248  0.00  0.00    +0.000 A 
BRANCH   9  13
ATOM     13  O   UNL     1      -0.328  16.018  22.853  0.00  0.00    +0.000 OA
ATOM     14  C   UNL     1       1.076  16.177  22.723  0.00  0.00    +0.000 C 
ENDBRANCH   9  13
BRANCH  10  15
ATOM     15  O   UNL     1      -2.356  15.228  24.562  0.00  0.00    +0.000 OA
ATOM     16  C   UNL     1      -3.411  16.110  24.171  0.00  0.00    +0.000 C 
ENDBRANCH  10  15
BRANCH  11  17
ATOM     17  O   UNL     1      -3.559  12.572  24.101  0.00  0.00    +0.000 OA
ATOM     18  C   UNL     1      -4.907  12.887  23.801  0.00  0.00    +0.000 C 
ENDBRANCH  11  17
ENDBRANCH   6   7
BRANCH   1  19
ATOM     19  C   UNL     1       0.376  11.425  18.976  0.00  0.00    +0.000 C 
ATOM     20  O   UNL     1       1.251  12.299  18.844  0.00  0.00    +0.000 OA
BRANCH  19  24
ATOM     21  C   UNL     1       2.167   7.463  19.508  0.00  0.00    +0.000 A 
ATOM     22  C   UNL     1       2.244   8.168  18.324  0.00  0.00    +0.000 A 
ATOM     23  C   UNL     1       1.629   9.432  18.230  0.00  0.00    +0.000 A 
ATOM     24  C   UNL     1       0.887  10.030  19.283  0.00  0.00    +0.000 A 
ATOM     25  C   UNL     1       0.787   9.297  20.473  0.00  0.00    +0.000 A 
ATOM     26  C   UNL     1      -0.020   9.653  21.675  0.00  0.00    +0.000 C 
ATOM     27  C   UNL     1       1.483   8.041  20.571  0.00  0.00    +0.000 A 
BRANCH  21  29
ATOM     28  C   UNL     1       1.870   5.310  20.517  0.00  0.00    +0.000 C 
ATOM     29  O   UNL     1       2.663   6.207  19.744  0.00  0.00    +0.000 OA
ENDBRANCH  21  29
ENDBRANCH  19  24
ENDBRANCH   1  19
BRANCH   2  30
ATOM     30  O   UNL     1      -1.420  10.420  16.978  0.00  0.00    +0.000 OA
ATOM     31  H   UNL     1      -2.118  10.438  16.288  0.00  0.00    +0.000 HD
ENDBRANCH   2  30
BRANCH   5  32
ATOM     32  C   UNL     1      -4.545  12.583  20.073  0.00  0.00    +0.000 C 
BRANCH  32  33
ATOM     33  C   UNL     1      -5.759  11.594  19.871  0.00  0.00    +0.000 C 
BRANCH  33  34
ATOM     34  N   UNL     1      -6.734  11.488  20.992  0.00  0.00    +0.000 NA
ATOM     35  C   UNL     1      -7.512  12.720  21.146  0.00  0.00    +0.000 C 
ATOM     36  C   UNL     1      -7.679  10.385  20.740  0.00  0.00    +0.000 C 
ENDBRANCH  33  34
ENDBRANCH  32  33
ENDBRANCH   5  32
TORSDOF 11
ENDMDL
MODEL 7
REMARK VINA RESULT:      -6.0      2.470      4.856
REMARK  Name = 
REMARK  18 active torsions:
REMARK  status: ('A' for Active; 'I' for Inactive)
REMARK    1  A    between atoms: C_1  and  O_2
REMARK    2  A    between atoms: O_2  and  C_3
REMARK    3  A    between atoms: C_6  and  C_7
REMARK    4  A    between atoms: C_7  and  C_9
REMARK    5  A    between atoms: C_10  and  O_11
REMARK    6  A    between atoms: N_14  and  C_15
REMARK    7  A    between atoms: C_15  and  C_16
REMARK    8  A    between atoms: C_16  and  N_17
REMARK    9  A    between atoms: N_17  and  C_18
REMARK   10  A    between atoms: N_17  and  C_19
REMARK   11  A    between atoms: C_20  and  C_21
REMARK   12  A    between atoms: C_23  and  O_24
REMARK   13  A    between atoms: O_24  and  C_25
REMARK   14  A    between atoms: C_26  and  O_27
REMARK   15  A    between atoms: O_27  and  C_28
REMARK   16  A    between atoms: C_29  and  O_30
REMARK   17  A    between atoms: O_30  and  C_31
REMARK   18  A    between atoms: C_33  and  C_34
REMARK                            x       y       z     vdW  Elec       q    Type
REMARK                         _______ _______ _______ _____ _____    ______ ____
ROOT
ATOM      1  C   UNL     1      -1.565  11.887  18.410  0.00  0.00    +0.000 C 
ATOM      2  C   UNL     1      -2.152  11.136  17.462  0.00  0.00    +0.000 C 
ATOM      3  C   UNL     1      -3.616  11.327  17.578  0.00  0.00    +0.000 C 
ATOM      4  O   UNL     1      -4.419  11.121  16.690  0.00  0.00    +0.000 OA
ATOM      5  N   UNL     1      -3.851  11.798  18.879  0.00  0.00    +0.000 N 
ATOM      6  C   UNL     1      -2.656  12.582  19.209  0.00  0.00    +0.000 C 
ENDROOT
BRANCH   6   7
ATOM      7  C   UNL     1      -2.328  12.981  20.638  0.00  0.00    +0.000 A 
ATOM      8  C   UNL     1      -1.676  14.183  20.923  0.00  0.00    +0.000 A 
ATOM      9  C   UNL     1      -2.155  14.995  21.959  0.00  0.00    +0.000 A 
ATOM     10  C   UNL     1      -3.216  14.533  22.781  0.00  0.00    +0.000 A 
ATOM     11  C   UNL     1      -3.644  13.201  22.668  0.00  0.00    +0.000 A 
ATOM     12  C   UNL     1      -3.133  12.413  21.633  0.00  0.00    +0.000 A 
BRANCH   9  13
ATOM     13  O   UNL     1      -1.786  16.308  22.099  0.00  0.00    +0.000 OA
ATOM     14  C   UNL     1      -0.415  16.635  22.275  0.00  0.00    +0.000 C 
ENDBRANCH   9  13
BRANCH  10  15
ATOM     15  O   UNL     1      -3.837  15.359  23.694  0.00  0.00    +0.000 OA
ATOM     16  C   UNL     1      -5.037  15.951  23.191  0.00  0.00    +0.000 C 
ENDBRANCH  10  15
BRANCH  11  17
ATOM     17  O   UNL     1      -4.624  12.534  23.352  0.00  0.00    +0.000 OA
ATOM     18  C   UNL     1      -4.462  12.286  24.737  0.00  0.00    +0.000 C 
ENDBRANCH  11  17
ENDBRANCH   6   7
BRANCH   1  19
ATOM     19  C   UNL     1      -0.128  11.570  18.687  0.00  0.00    +0.000 C 
ATOM     20  O   UNL     1       0.630  12.555  18.647  0.00  0.00    +0.000 OA
BRANCH  19  24
ATOM     21  C   UNL     1       2.067   7.846  19.398  0.00  0.00    +0.000 A 
ATOM     22  C   UNL     1       2.043   8.480  18.173  0.00  0.00    +0.000 A 
ATOM     23  C   UNL     1       1.302   9.669  18.022  0.00  0.00    +0.000 A 
ATOM     24  C   UNL     1       0.528  10.254  19.060  0.00  0.00    +0.000 A 
ATOM     25  C   UNL     1       0.531   9.589  20.293  0.00  0.00    +0.000 A 
ATOM     26  C   UNL     1      -0.279   9.937  21.496  0.00  0.00    +0.000 C 
ATOM     27  C   UNL     1       1.353   8.418  20.445  0.00  0.00    +0.000 A 
BRANCH  21  29
ATOM     28  C   UNL     1       2.142   5.463  19.154  0.00  0.00    +0.000 C 
ATOM     29  O   UNL     1       2.692   6.662  19.693  0.00  0.00    +0.000 OA
ENDBRANCH  21  29
ENDBRANCH  19  24
ENDBRANCH   1  19
BRANCH   2  30
ATOM     30  O   UNL     1      -1.593  10.201  16.635  0.00  0.00    +0.000 OA
ATOM     31  H   UNL     1      -0.976   9.674  17.189  0.00  0.00    +0.000 HD
ENDBRANCH   2  30
BRANCH   5  32
ATOM     32  C   UNL     1      -5.234  12.168  19.261  0.00  0.00    +0.000 C 
BRANCH  32  33
ATOM     33  C   UNL     1      -6.272  10.982  19.160  0.00  0.00    +0.000 C 
BRANCH  33  34
ATOM     34  N   UNL     1      -6.787  10.428  20.443  0.00  0.00    +0.000 NA
ATOM     35  C   UNL     1      -7.854  11.265  21.001  0.00  0.00    +0.000 C 
ATOM     36  C   UNL     1      -7.339   9.078  20.228  0.00  0.00    +0.000 C 
ENDBRANCH  33  34
ENDBRANCH  32  33
ENDBRANCH   5  32
TORSDOF 11
ENDMDL
MODEL 8
REMARK VINA RESULT:      -6.0      2.338      4.353
REMARK  Name = 
REMARK  18 active torsions:
REMARK  status: ('A' for Active; 'I' for Inactive)
REMARK    1  A    between atoms: C_1  and  O_2
REMARK    2  A    between atoms: O_2  and  C_3
REMARK    3  A    between atoms: C_6  and  C_7
REMARK    4  A    between atoms: C_7  and  C_9
REMARK    5  A    between atoms: C_10  and  O_11
REMARK    6  A    between atoms: N_14  and  C_15
REMARK    7  A    between atoms: C_15  and  C_16
REMARK    8  A    between atoms: C_16  and  N_17
REMARK    9  A    between atoms: N_17  and  C_18
REMARK   10  A    between atoms: N_17  and  C_19
REMARK   11  A    between atoms: C_20  and  C_21
REMARK   12  A    between atoms: C_23  and  O_24
REMARK   13  A    between atoms: O_24  and  C_25
REMARK   14  A    between atoms: C_26  and  O_27
REMARK   15  A    between atoms: O_27  and  C_28
REMARK   16  A    between atoms: C_29  and  O_30
REMARK   17  A    between atoms: O_30  and  C_31
REMARK   18  A    between atoms: C_33  and  C_34
REMARK                            x       y       z     vdW  Elec       q    Type
REMARK                         _______ _______ _______ _____ _____    ______ ____
ROOT
ATOM      1  C   UNL     1      -1.397  12.097  19.036  0.00  0.00    +0.000 C 
ATOM      2  C   UNL     1      -2.123  11.627  18.007  0.00  0.00    +0.000 C 
ATOM      3  C   UNL     1      -3.552  11.846  18.327  0.00  0.00    +0.000 C 
ATOM      4  O   UNL     1      -4.450  11.898  17.511  0.00  0.00    +0.000 OA
ATOM      5  N   UNL     1      -3.626  11.994  19.721  0.00  0.00    +0.000 N 
ATOM      6  C   UNL     1      -2.355  12.622  20.093  0.00  0.00    +0.000 C 
ENDROOT
BRANCH   6   7
ATOM      7  C   UNL     1      -1.863  12.644  21.531  0.00  0.00    +0.000 A 
ATOM      8  C   UNL     1      -0.825  13.491  21.928  0.00  0.00    +0.000 A 
ATOM      9  C   UNL     1      -0.958  14.235  23.108  0.00  0.00    +0.000 A 
ATOM     10  C   UNL     1      -2.086  14.029  23.945  0.00  0.00    +0.000 A 
ATOM     11  C   UNL     1      -2.953  12.958  23.679  0.00  0.00    +0.000 A 
ATOM     12  C   UNL     1      -2.782  12.226  22.501  0.00  0.00    +0.000 A 
BRANCH   9  13
ATOM     13  O   UNL     1      -0.151  15.304  23.402  0.00  0.00    +0.000 OA
ATOM     14  C   UNL     1      -0.182  16.454  22.571  0.00  0.00    +0.000 C 
ENDBRANCH   9  13
BRANCH  10  15
ATOM     15  O   UNL     1      -2.351  14.853  25.018  0.00  0.00    +0.000 OA
ATOM     16  C   UNL     1      -3.308  15.873  24.719  0.00  0.00    +0.000 C 
ENDBRANCH  10  15
BRANCH  11  17
ATOM     17  O   UNL     1      -4.081  12.558  24.343  0.00  0.00    +0.000 OA
ATOM     18  C   UNL     1      -5.352  12.959  23.863  0.00  0.00    +0.000 C 
ENDBRANCH  11  17
ENDBRANCH   6   7
BRANCH   1  19
ATOM     19  C   UNL     1       0.035  11.662  19.067  0.00  0.00    +0.000 C 
ATOM     20  O   UNL     1       0.856  12.589  18.947  0.00  0.00    +0.000 OA
BRANCH  19  24
ATOM     21  C   UNL     1       2.054   7.781  19.309  0.00  0.00    +0.000 A 
ATOM     22  C   UNL     1       2.026   8.542  18.158  0.00  0.00    +0.000 A 
ATOM     23  C   UNL     1       1.343   9.774  18.158  0.00  0.00    +0.000 A 
ATOM     24  C   UNL     1       0.633  10.284  19.278  0.00  0.00    +0.000 A 
ATOM     25  C   UNL     1       0.639   9.493  20.435  0.00  0.00    +0.000 A 
ATOM     26  C   UNL     1      -0.114   9.751  21.695  0.00  0.00    +0.000 C 
ATOM     27  C   UNL     1       1.403   8.274  20.435  0.00  0.00    +0.000 A 
BRANCH  21  29
ATOM     28  C   UNL     1       3.002   5.836  18.278  0.00  0.00    +0.000 C 
ATOM     29  O   UNL     1       2.625   6.544  19.457  0.00  0.00    +0.000 OA
ENDBRANCH  21  29
ENDBRANCH  19  24
ENDBRANCH   1  19
BRANCH   2  30
ATOM     30  O   UNL     1      -1.712  10.900  16.924  0.00  0.00    +0.000 OA
ATOM     31  H   UNL     1      -1.279  11.534  16.312  0.00  0.00    +0.000 HD
ENDBRANCH   2  30
BRANCH   5  32
ATOM     32  C   UNL     1      -4.938  12.317  20.331  0.00  0.00    +0.000 C 
BRANCH  32  33
ATOM     33  C   UNL     1      -5.377  13.824  20.160  0.00  0.00    +0.000 C 
BRANCH  33  34
ATOM     34  N   UNL     1      -6.758  14.070  19.657  0.00  0.00    +0.000 NA
ATOM     35  C   UNL     1      -6.745  14.807  18.390  0.00  0.00    +0.000 C 
ATOM     36  C   UNL     1      -7.449  12.788  19.427  0.00  0.00    +0.000 C 
ENDBRANCH  33  34
ENDBRANCH  32  33
ENDBRANCH   5  32
TORSDOF 11
ENDMDL
MODEL 9
REMARK VINA RESULT:      -6.0      2.446      4.851
REMARK  Name = 
REMARK  18 active torsions:
REMARK  status: ('A' for Active; 'I' for Inactive)
REMARK    1  A    between atoms: C_1  and  O_2
REMARK    2  A    between atoms: O_2  and  C_3
REMARK    3  A    between atoms: C_6  and  C_7
REMARK    4  A    between atoms: C_7  and  C_9
REMARK    5  A    between atoms: C_10  and  O_11
REMARK    6  A    between atoms: N_14  and  C_15
REMARK    7  A    between atoms: C_15  and  C_16
REMARK    8  A    between atoms: C_16  and  N_17
REMARK    9  A    between atoms: N_17  and  C_18
REMARK   10  A    between atoms: N_17  and  C_19
REMARK   11  A    between atoms: C_20  and  C_21
REMARK   12  A    between atoms: C_23  and  O_24
REMARK   13  A    between atoms: O_24  and  C_25
REMARK   14  A    between atoms: C_26  and  O_27
REMARK   15  A    between atoms: O_27  and  C_28
REMARK   16  A    between atoms: C_29  and  O_30
REMARK   17  A    between atoms: O_30  and  C_31
REMARK   18  A    between atoms: C_33  and  C_34
REMARK                            x       y       z     vdW  Elec       q    Type
REMARK                         _______ _______ _______ _____ _____    ______ ____
ROOT
ATOM      1  C   UNL     1      -1.472  11.946  18.635  0.00  0.00    +0.000 C 
ATOM      2  C   UNL     1      -2.006  11.176  17.671  0.00  0.00    +0.000 C 
ATOM      3  C   UNL     1      -3.468  11.414  17.662  0.00  0.00    +0.000 C 
ATOM      4  O   UNL     1      -4.204  11.198  16.721  0.00  0.00    +0.000 OA
ATOM      5  N   UNL     1      -3.789  11.943  18.922  0.00  0.00    +0.000 N 
ATOM      6  C   UNL     1      -2.599  12.704  19.317  0.00  0.00    +0.000 C 
ENDROOT
BRANCH   6   7
ATOM      7  C   UNL     1      -2.372  13.149  20.753  0.00  0.00    +0.000 A 
ATOM      8  C   UNL     1      -1.912  14.434  21.048  0.00  0.00    +0.000 A 
ATOM      9  C   UNL     1      -2.533  15.169  22.066  0.00  0.00    +0.000 A 
ATOM     10  C   UNL     1      -3.536  14.558  22.863  0.00  0.00    +0.000 A 
ATOM     11  C   UNL     1      -3.761  13.177  22.746  0.00  0.00    +0.000 A 
ATOM     12  C   UNL     1      -3.112  12.471  21.729  0.00  0.00    +0.000 A 
BRANCH   9  13
ATOM     13  O   UNL     1      -2.364  16.523  22.208  0.00  0.00    +0.000 OA
ATOM     14  C   UNL     1      -1.338  17.015  23.057  0.00  0.00    +0.000 C 
ENDBRANCH   9  13
BRANCH  10  15
ATOM     15  O   UNL     1      -4.296  15.285  23.754  0.00  0.00    +0.000 OA
ATOM     16  C   UNL     1      -5.560  15.685  23.218  0.00  0.00    +0.000 C 
ENDBRANCH  10  15
BRANCH  11  17
ATOM     17  O   UNL     1      -4.650  12.375  23.407  0.00  0.00    +0.000 OA
ATOM     18  C   UNL     1      -4.547  12.229  24.812  0.00  0.00    +0.000 C 
ENDBRANCH  11  17
ENDBRANCH   6   7
BRANCH   1  19
ATOM     19  C   UNL     1      -0.072  11.598  19.037  0.00  0.00    +0.000 C 
ATOM     20  O   UNL     1       0.730  12.546  18.973  0.00  0.00    +0.000 OA
BRANCH  19  24
ATOM     21  C   UNL     1       1.192   7.806  20.830  0.00  0.00    +0.000 A 
ATOM     22  C   UNL     1       0.328   8.680  21.456  0.00  0.00    +0.000 A 
ATOM     23  C   UNL     1      -0.020   9.888  20.818  0.00  0.00    +0.000 A 
ATOM     24  C   UNL     1       0.499  10.293  19.559  0.00  0.00    +0.000 A 
ATOM     25  C   UNL     1       1.400   9.416  18.942  0.00  0.00    +0.000 A 
ATOM     26  C   UNL     1       2.160   9.658  17.683  0.00  0.00    +0.000 C 
ATOM     27  C   UNL     1       1.684   8.156  19.578  0.00  0.00    +0.000 A 
BRANCH  21  29
ATOM     28  C   UNL     1       1.662   5.481  20.486  0.00  0.00    +0.000 C 
ATOM     29  O   UNL     1       1.667   6.625  21.337  0.00  0.00    +0.000 OA
ENDBRANCH  21  29
ENDBRANCH  19  24
ENDBRANCH   1  19
BRANCH   2  30
ATOM     30  O   UNL     1      -1.414  10.193  16.927  0.00  0.00    +0.000 OA
ATOM     31  H   UNL     1      -0.697  10.627  16.415  0.00  0.00    +0.000 HD
ENDBRANCH   2  30
BRANCH   5  32
ATOM     32  C   UNL     1      -5.186  12.368  19.178  0.00  0.00    +0.000 C 
BRANCH  32  33
ATOM     33  C   UNL     1      -6.163  11.187  19.554  0.00  0.00    +0.000 C 
BRANCH  33  34
ATOM     34  N   UNL     1      -6.804  11.246  20.898  0.00  0.00    +0.000 NA
ATOM     35  C   UNL     1      -7.349  12.579  21.175  0.00  0.00    +0.000 C 
ATOM     36  C   UNL     1      -7.914  10.279  20.974  0.00  0.00    +0.000 C 
ENDBRANCH  33  34
ENDBRANCH  32  33
ENDBRANCH   5  32
TORSDOF 11
ENDMDL
