MODEL 1
REMARK VINA RESULT:      -9.4      0.000      0.000
REMARK  Name = 
REMARK  4 active torsions:
REMARK  status: ('A' for Active; 'I' for Inactive)
REMARK    1  A    between atoms: C_1  and  N_2
REMARK    2  A    between atoms: C_3  and  C_5
REMARK    3  A    between atoms: C_9  and  N_10
REMARK    4  A    between atoms: C_23  and  C_24
REMARK                            x       y       z     vdW  Elec       q    Type
REMARK                         _______ _______ _______ _____ _____    ______ ____
ROOT
ATOM      1  N   UNL     1       4.770   3.334  17.682  0.00  0.00    +0.000 N 
ATOM      2  C   UNL     1       4.052   3.882  18.754  0.00  0.00    +0.000 A 
ATOM      3  N   UNL     1       3.918   3.112  19.821  0.00  0.00    +0.000 NA
ATOM      4  C   UNL     1       3.202   3.653  20.808  0.00  0.00    +0.000 A 
ATOM      5  N   UNL     1       2.573   4.828  20.795  0.00  0.00    +0.000 NA
ATOM      6  C   UNL     1       2.769   5.543  19.705  0.00  0.00    +0.000 A 
ATOM      7  N   UNL     1       2.288   6.835  19.605  0.00  0.00    +0.000 N 
ATOM      8  C   UNL     1       2.892   7.629  18.538  0.00  0.00    +0.000 C 
ATOM      9  C   UNL     1       1.814   8.404  17.813  0.00  0.00    +0.000 C 
ATOM     10  C   UNL     1       1.388   9.403  18.847  0.00  0.00    +0.000 A 
ATOM     11  C   UNL     1       1.620  10.759  18.613  0.00  0.00    +0.000 A 
ATOM     12  C   UNL     1       1.466  11.661  19.646  0.00  0.00    +0.000 A 
ATOM     13  C   UNL     1       0.940  11.222  20.856  0.00  0.00    +0.000 A 
ATOM     14  C   UNL     1       0.620   9.860  21.090  0.00  0.00    +0.000 A 
ATOM     15  C   UNL     1       0.987   8.907  20.116  0.00  0.00    +0.000 A 
ATOM     16  C   UNL     1       1.089   7.369  20.311  0.00  0.00    +0.000 C 
ATOM     17  N   UNL     1       3.519   5.092  18.682  0.00  0.00    +0.000 NA
ATOM     18  H   UNL     1       5.007   2.375  17.898  0.00  0.00    +0.000 HD
ENDROOT
BRANCH   1  23
ATOM     19  C   UNL     1       6.056   4.095  14.239  0.00  0.00    +0.000 A 
ATOM     20  C   UNL     1       7.028   5.055  14.531  0.00  0.00    +0.000 A 
ATOM     21  C   UNL     1       7.243   5.434  15.854  0.00  0.00    +0.000 A 
ATOM     22  C   UNL     1       6.482   4.855  16.879  0.00  0.00    +0.000 A 
ATOM     23  C   UNL     1       5.486   3.898  16.609  0.00  0.00    +0.000 A 
ATOM     24  C   UNL     1       5.312   3.508  15.279  0.00  0.00    +0.000 A 
BRANCH  19  27
ATOM     25  C   UNL     1       4.243   3.072  11.080  0.00  0.00    +0.000 C 
ATOM     26  N   UNL     1       4.547   3.439  12.439  0.00  0.00    +0.000 N 
ATOM     27  C   UNL     1       5.851   3.697  12.820  0.00  0.00    +0.000 C 
ATOM     28  O   UNL     1       6.802   3.637  12.053  0.00  0.00    +0.000 OA
ATOM     29  H   UNL     1       3.784   3.689  13.057  0.00  0.00    +0.000 HD
ENDBRANCH  19  27
ENDBRANCH   1  23
BRANCH  14  30
ATOM     30  C   UNL     1      -0.184   9.556  22.334  0.00  0.00    +0.000 C 
ATOM     31  F   UNL     1       0.598   9.354  23.439  0.00  0.00    +0.000 F 
ATOM     32  F   UNL     1      -1.005  10.591  22.671  0.00  0.00    +0.000 F 
ATOM     33  F   UNL     1      -0.973   8.457  22.240  0.00  0.00    +0.000 F 
ENDBRANCH  14  30
TORSDOF 3
ENDMDL
MODEL 2
REMARK VINA RESULT:      -9.0      0.746      1.024
REMARK  Name = 
REMARK  4 active torsions:
REMARK  status: ('A' for Active; 'I' for Inactive)
REMARK    1  A    between atoms: C_1  and  N_2
REMARK    2  A    between atoms: C_3  and  C_5
REMARK    3  A    between atoms: C_9  and  N_10
REMARK    4  A    between atoms: C_23  and  C_24
REMARK                            x       y       z     vdW  Elec       q    Type
REMARK                         _______ _______ _______ _____ _____    ______ ____
ROOT
ATOM      1  N   UNL     1       4.626   3.357  17.691  0.00  0.00    +0.000 N 
ATOM      2  C   UNL     1       3.943   3.919  18.777  0.00  0.00    +0.000 A 
ATOM      3  N   UNL     1       3.835   3.159  19.855  0.00  0.00    +0.000 NA
ATOM      4  C   UNL     1       3.152   3.715  20.857  0.00  0.00    +0.000 A 
ATOM      5  N   UNL     1       2.530   4.894  20.852  0.00  0.00    +0.000 NA
ATOM      6  C   UNL     1       2.699   5.598  19.751  0.00  0.00    +0.000 A 
ATOM      7  N   UNL     1       2.225   6.892  19.653  0.00  0.00    +0.000 N 
ATOM      8  C   UNL     1       2.802   7.673  18.562  0.00  0.00    +0.000 C 
ATOM      9  C   UNL     1       1.709   8.449  17.861  0.00  0.00    +0.000 C 
ATOM     10  C   UNL     1       1.320   9.459  18.898  0.00  0.00    +0.000 A 
ATOM     11  C   UNL     1       1.554  10.812  18.645  0.00  0.00    +0.000 A 
ATOM     12  C   UNL     1       1.436  11.724  19.674  0.00  0.00    +0.000 A 
ATOM     13  C   UNL     1       0.943  11.299  20.903  0.00  0.00    +0.000 A 
ATOM     14  C   UNL     1       0.621   9.941  21.158  0.00  0.00    +0.000 A 
ATOM     15  C   UNL     1       0.953   8.978  20.183  0.00  0.00    +0.000 A 
ATOM     16  C   UNL     1       1.050   7.441  20.389  0.00  0.00    +0.000 C 
ATOM     17  N   UNL     1       3.416   5.132  18.710  0.00  0.00    +0.000 NA
ATOM     18  H   UNL     1       4.863   2.398  17.909  0.00  0.00    +0.000 HD
ENDROOT
BRANCH   1  23
ATOM     19  C   UNL     1       5.926   3.983  14.226  0.00  0.00    +0.000 A 
ATOM     20  C   UNL     1       6.796   5.050  14.463  0.00  0.00    +0.000 A 
ATOM     21  C   UNL     1       6.939   5.544  15.758  0.00  0.00    +0.000 A 
ATOM     22  C   UNL     1       6.209   4.971  16.808  0.00  0.00    +0.000 A 
ATOM     23  C   UNL     1       5.314   3.906  16.592  0.00  0.00    +0.000 A 
ATOM     24  C   UNL     1       5.212   3.405  15.292  0.00  0.00    +0.000 A 
BRANCH  19  27
ATOM     25  C   UNL     1       6.840   2.197  11.017  0.00  0.00    +0.000 C 
ATOM     26  N   UNL     1       6.880   2.761  12.342  0.00  0.00    +0.000 N 
ATOM     27  C   UNL     1       5.796   3.464  12.837  0.00  0.00    +0.000 C 
ATOM     28  O   UNL     1       4.764   3.644  12.206  0.00  0.00    +0.000 OA
ATOM     29  H   UNL     1       7.624   2.478  12.968  0.00  0.00    +0.000 HD
ENDBRANCH  19  27
ENDBRANCH   1  23
BRANCH  14  30
ATOM     30  C   UNL     1      -0.149   9.654  22.428  0.00  0.00    +0.000 C 
ATOM     31  F   UNL     1      -0.935   8.537  22.335  0.00  0.00    +0.000 F 
ATOM     32  F   UNL     1       0.683   9.410  23.480  0.00  0.00    +0.000 F 
ATOM     33  F   UNL     1      -0.979  10.653  22.821  0.00  0.00    +0.000 F 
ENDBRANCH  14  30
TORSDOF 3
ENDMDL
MODEL 3
REMARK VINA RESULT:      -8.5      0.925      1.122
REMARK  Name = 
REMARK  4 active torsions:
REMARK  status: ('A' for Active; 'I' for Inactive)
REMARK    1  A    between atoms: C_1  and  N_2
REMARK    2  A    between atoms: C_3  and  C_5
REMARK    3  A    between atoms: C_9  and  N_10
REMARK    4  A    between atoms: C_23  and  C_24
REMARK                            x       y       z     vdW  Elec       q    Type
REMARK                         _______ _______ _______ _____ _____    ______ ____
ROOT
ATOM      1  N   UNL     1       4.181   3.830  17.948  0.00  0.00    +0.000 N 
ATOM      2  C   UNL     1       3.450   4.527  18.920  0.00  0.00    +0.000 A 
ATOM      3  N   UNL     1       3.099   3.836  19.992  0.00  0.00    +0.000 NA
ATOM      4  C   UNL     1       2.378   4.523  20.881  0.00  0.00    +0.000 A 
ATOM      5  N   UNL     1       1.936   5.775  20.764  0.00  0.00    +0.000 NA
ATOM      6  C   UNL     1       2.343   6.401  19.677  0.00  0.00    +0.000 A 
ATOM      7  N   UNL     1       2.074   7.743  19.486  0.00  0.00    +0.000 N 
ATOM      8  C   UNL     1       2.893   8.389  18.462  0.00  0.00    +0.000 C 
ATOM      9  C   UNL     1       2.019   9.277  17.603  0.00  0.00    +0.000 C 
ATOM     10  C   UNL     1       1.648  10.375  18.554  0.00  0.00    +0.000 A 
ATOM     11  C   UNL     1       2.103  11.670  18.302  0.00  0.00    +0.000 A 
ATOM     12  C   UNL     1       1.984  12.634  19.283  0.00  0.00    +0.000 A 
ATOM     13  C   UNL     1       1.282  12.334  20.445  0.00  0.00    +0.000 A 
ATOM     14  C   UNL     1       0.740  11.045  20.689  0.00  0.00    +0.000 A 
ATOM     15  C   UNL     1       1.055  10.004  19.790  0.00  0.00    +0.000 A 
ATOM     16  C   UNL     1       0.905   8.479  20.045  0.00  0.00    +0.000 C 
ATOM     17  N   UNL     1       3.115   5.797  18.754  0.00  0.00    +0.000 NA
ATOM     18  H   UNL     1       4.249   2.857  18.219  0.00  0.00    +0.000 HD
ENDROOT
BRANCH   1  23
ATOM     19  C   UNL     1       5.922   4.201  14.644  0.00  0.00    +0.000 A 
ATOM     20  C   UNL     1       6.970   5.055  14.997  0.00  0.00    +0.000 A 
ATOM     21  C   UNL     1       7.085   5.493  16.314  0.00  0.00    +0.000 A 
ATOM     22  C   UNL     1       6.149   5.078  17.272  0.00  0.00    +0.000 A 
ATOM     23  C   UNL     1       5.075   4.231  16.938  0.00  0.00    +0.000 A 
ATOM     24  C   UNL     1       5.000   3.778  15.619  0.00  0.00    +0.000 A 
BRANCH  19  27
ATOM     25  C   UNL     1       4.348   3.136  11.372  0.00  0.00    +0.000 C 
ATOM     26  N   UNL     1       4.547   3.558  12.734  0.00  0.00    +0.000 N 
ATOM     27  C   UNL     1       5.824   3.737  13.234  0.00  0.00    +0.000 C 
ATOM     28  O   UNL     1       6.838   3.560  12.571  0.00  0.00    +0.000 OA
ATOM     29  H   UNL     1       3.750   3.901  13.258  0.00  0.00    +0.000 HD
ENDBRANCH  19  27
ENDBRANCH   1  23
BRANCH  14  30
ATOM     30  C   UNL     1      -0.219  10.922  21.851  0.00  0.00    +0.000 C 
ATOM     31  F   UNL     1      -0.487  12.123  22.452  0.00  0.00    +0.000 F 
ATOM     32  F   UNL     1      -1.435  10.449  21.456  0.00  0.00    +0.000 F 
ATOM     33  F   UNL     1       0.205  10.103  22.846  0.00  0.00    +0.000 F 
ENDBRANCH  14  30
TORSDOF 3
ENDMDL
MODEL 4
REMARK VINA RESULT:      -7.8      1.341      1.826
REMARK  Name = 
REMARK  4 active torsions:
REMARK  status: ('A' for Active; 'I' for Inactive)
REMARK    1  A    between atoms: C_1  and  N_2
REMARK    2  A    between atoms: C_3  and  C_5
REMARK    3  A    between atoms: C_9  and  N_10
REMARK    4  A    between atoms: C_23  and  C_24
REMARK                            x       y       z     vdW  Elec       q    Type
REMARK                         _______ _______ _______ _____ _____    ______ ____
ROOT
ATOM      1  N   UNL     1       4.216   3.901  18.637  0.00  0.00    +0.000 N 
ATOM      2  C   UNL     1       3.314   4.665  19.390  0.00  0.00    +0.000 A 
ATOM      3  N   UNL     1       2.718   4.043  20.393  0.00  0.00    +0.000 NA
ATOM      4  C   UNL     1       1.843   4.792  21.068  0.00  0.00    +0.000 A 
ATOM      5  N   UNL     1       1.476   6.044  20.794  0.00  0.00    +0.000 NA
ATOM      6  C   UNL     1       2.128   6.600  19.793  0.00  0.00    +0.000 A 
ATOM      7  N   UNL     1       1.948   7.934  19.479  0.00  0.00    +0.000 N 
ATOM      8  C   UNL     1       2.987   8.505  18.627  0.00  0.00    +0.000 C 
ATOM      9  C   UNL     1       2.348   9.360  17.555  0.00  0.00    +0.000 C 
ATOM     10  C   UNL     1       1.814  10.517  18.345  0.00  0.00    +0.000 A 
ATOM     11  C   UNL     1       2.353  11.788  18.133  0.00  0.00    +0.000 A 
ATOM     12  C   UNL     1       2.054  12.806  19.015  0.00  0.00    +0.000 A 
ATOM     13  C   UNL     1       1.109  12.586  20.010  0.00  0.00    +0.000 A 
ATOM     14  C   UNL     1       0.488  11.323  20.194  0.00  0.00    +0.000 A 
ATOM     15  C   UNL     1       0.957  10.227  19.439  0.00  0.00    +0.000 A 
ATOM     16  C   UNL     1       0.708   8.722  19.733  0.00  0.00    +0.000 C 
ATOM     17  N   UNL     1       3.062   5.930  19.091  0.00  0.00    +0.000 NA
ATOM     18  H   UNL     1       4.193   2.944  18.965  0.00  0.00    +0.000 HD
ENDROOT
BRANCH   1  23
ATOM     19  C   UNL     1       6.430   4.482  15.663  0.00  0.00    +0.000 A 
ATOM     20  C   UNL     1       7.621   4.849  16.294  0.00  0.00    +0.000 A 
ATOM     21  C   UNL     1       7.674   4.899  17.684  0.00  0.00    +0.000 A 
ATOM     22  C   UNL     1       6.535   4.585  18.439  0.00  0.00    +0.000 A 
ATOM     23  C   UNL     1       5.319   4.228  17.827  0.00  0.00    +0.000 A 
ATOM     24  C   UNL     1       5.299   4.152  16.431  0.00  0.00    +0.000 A 
BRANCH  19  27
ATOM     25  C   UNL     1       5.839   3.106  12.188  0.00  0.00    +0.000 C 
ATOM     26  N   UNL     1       5.932   3.248  13.618  0.00  0.00    +0.000 N 
ATOM     27  C   UNL     1       6.399   4.425  14.176  0.00  0.00    +0.000 C 
ATOM     28  O   UNL     1       6.748   5.393  13.515  0.00  0.00    +0.000 OA
ATOM     29  H   UNL     1       5.480   2.559  14.205  0.00  0.00    +0.000 HD
ENDBRANCH  19  27
ENDBRANCH   1  23
BRANCH  14  30
ATOM     30  C   UNL     1      -0.704  11.284  21.125  0.00  0.00    +0.000 C 
ATOM     31  F   UNL     1      -1.892  11.499  20.481  0.00  0.00    +0.000 F 
ATOM     32  F   UNL     1      -0.843  10.064  21.718  0.00  0.00    +0.000 F 
ATOM     33  F   UNL     1      -0.664  12.195  22.130  0.00  0.00    +0.000 F 
ENDBRANCH  14  30
TORSDOF 3
ENDMDL
MODEL 5
REMARK VINA RESULT:      -7.5      7.848      9.596
REMARK  Name = 
REMARK  4 active torsions:
REMARK  status: ('A' for Active; 'I' for Inactive)
REMARK    1  A    between atoms: C_1  and  N_2
REMARK    2  A    between atoms: C_3  and  C_5
REMARK    3  A    between atoms: C_9  and  N_10
REMARK    4  A    between atoms: C_23  and  C_24
REMARK                            x       y       z     vdW  Elec       q    Type
REMARK                         _______ _______ _______ _____ _____    ______ ____
ROOT
ATOM      1  N   UNL     1      -0.771  10.950  18.327  0.00  0.00    +0.000 N 
ATOM      2  C   UNL     1      -0.316  11.734  19.396  0.00  0.00    +0.000 A 
ATOM      3  N   UNL     1       0.995  11.878  19.497  0.00  0.00    +0.000 NA
ATOM      4  C   UNL     1       1.393  12.604  20.544  0.00  0.00    +0.000 A 
ATOM      5  N   UNL     1       0.625  13.124  21.502  0.00  0.00    +0.000 NA
ATOM      6  C   UNL     1      -0.669  12.953  21.320  0.00  0.00    +0.000 A 
ATOM      7  N   UNL     1      -1.591  13.549  22.160  0.00  0.00    +0.000 N 
ATOM      8  C   UNL     1      -2.952  13.600  21.633  0.00  0.00    +0.000 C 
ATOM      9  C   UNL     1      -3.931  13.221  22.722  0.00  0.00    +0.000 C 
ATOM     10  C   UNL     1      -3.833  14.388  23.659  0.00  0.00    +0.000 A 
ATOM     11  C   UNL     1      -4.947  15.210  23.835  0.00  0.00    +0.000 A 
ATOM     12  C   UNL     1      -4.803  16.416  24.490  0.00  0.00    +0.000 A 
ATOM     13  C   UNL     1      -3.586  16.719  25.091  0.00  0.00    +0.000 A 
ATOM     14  C   UNL     1      -2.462  15.860  24.994  0.00  0.00    +0.000 A 
ATOM     15  C   UNL     1      -2.544  14.741  24.139  0.00  0.00    +0.000 A 
ATOM     16  C   UNL     1      -1.357  13.902  23.589  0.00  0.00    +0.000 C 
ATOM     17  N   UNL     1      -1.157  12.275  20.263  0.00  0.00    +0.000 NA
ATOM     18  H   UNL     1       0.026  10.554  17.844  0.00  0.00    +0.000 HD
ENDROOT
BRANCH   1  23
ATOM     19  C   UNL     1      -3.317  10.476  15.611  0.00  0.00    +0.000 A 
ATOM     20  C   UNL     1      -4.482  10.864  16.277  0.00  0.00    +0.000 A 
ATOM     21  C   UNL     1      -4.409  11.275  17.605  0.00  0.00    +0.000 A 
ATOM     22  C   UNL     1      -3.172  11.292  18.264  0.00  0.00    +0.000 A 
ATOM     23  C   UNL     1      -1.987  10.890  17.621  0.00  0.00    +0.000 A 
ATOM     24  C   UNL     1      -2.079  10.514  16.278  0.00  0.00    +0.000 A 
BRANCH  19  27
ATOM     25  C   UNL     1      -4.891   9.599  12.283  0.00  0.00    +0.000 C 
ATOM     26  N   UNL     1      -4.693   9.975  13.659  0.00  0.00    +0.000 N 
ATOM     27  C   UNL     1      -3.417  10.051  14.189  0.00  0.00    +0.000 C 
ATOM     28  O   UNL     1      -2.404   9.815  13.543  0.00  0.00    +0.000 OA
ATOM     29  H   UNL     1      -5.474  10.364  14.174  0.00  0.00    +0.000 HD
ENDBRANCH  19  27
ENDBRANCH   1  23
BRANCH  14  30
ATOM     30  C   UNL     1      -1.293  16.169  25.903  0.00  0.00    +0.000 C 
ATOM     31  F   UNL     1      -0.124  16.373  25.219  0.00  0.00    +0.000 F 
ATOM     32  F   UNL     1      -1.490  17.318  26.610  0.00  0.00    +0.000 F 
ATOM     33  F   UNL     1      -1.018  15.202  26.814  0.00  0.00    +0.000 F 
ENDBRANCH  14  30
TORSDOF 3
ENDMDL
MODEL 6
REMARK VINA RESULT:      -7.5      4.710      8.765
REMARK  Name = 
REMARK  4 active torsions:
REMARK  status: ('A' for Active; 'I' for Inactive)
REMARK    1  A    between atoms: C_1  and  N_2
REMARK    2  A    between atoms: C_3  and  C_5
REMARK    3  A    between atoms: C_9  and  N_10
REMARK    4  A    between atoms: C_23  and  C_24
REMARK                            x       y       z     vdW  Elec       q    Type
REMARK                         _______ _______ _______ _____ _____    ______ ____
ROOT
ATOM      1  N   UNL     1       1.065  11.753  21.211  0.00  0.00    +0.000 N 
ATOM      2  C   UNL     1       0.689  10.408  21.329  0.00  0.00    +0.000 A 
ATOM      3  N   UNL     1      -0.328  10.157  22.137  0.00  0.00    +0.000 NA
ATOM      4  C   UNL     1      -0.638   8.864  22.250  0.00  0.00    +0.000 A 
ATOM      5  N   UNL     1       0.001   7.832  21.698  0.00  0.00    +0.000 NA
ATOM      6  C   UNL     1       0.991   8.165  20.894  0.00  0.00    +0.000 A 
ATOM      7  N   UNL     1       1.657   7.210  20.151  0.00  0.00    +0.000 N 
ATOM      8  C   UNL     1       2.445   7.741  19.041  0.00  0.00    +0.000 C 
ATOM      9  C   UNL     1       3.789   7.047  18.998  0.00  0.00    +0.000 C 
ATOM     10  C   UNL     1       3.416   5.656  18.579  0.00  0.00    +0.000 A 
ATOM     11  C   UNL     1       3.853   5.182  17.341  0.00  0.00    +0.000 A 
ATOM     12  C   UNL     1       3.320   4.014  16.836  0.00  0.00    +0.000 A 
ATOM     13  C   UNL     1       2.470   3.257  17.634  0.00  0.00    +0.000 A 
ATOM     14  C   UNL     1       2.075   3.679  18.929  0.00  0.00    +0.000 A 
ATOM     15  C   UNL     1       2.440   4.975  19.353  0.00  0.00    +0.000 A 
ATOM     16  C   UNL     1       1.819   5.777  20.530  0.00  0.00    +0.000 C 
ATOM     17  N   UNL     1       1.337   9.450  20.686  0.00  0.00    +0.000 NA
ATOM     18  H   UNL     1       0.513  12.309  21.851  0.00  0.00    +0.000 HD
ENDROOT
BRANCH   1  23
ATOM     19  C   UNL     1       3.276  14.234  19.465  0.00  0.00    +0.000 A 
ATOM     20  C   UNL     1       2.997  13.934  18.129  0.00  0.00    +0.000 A 
ATOM     21  C   UNL     1       2.089  12.923  17.827  0.00  0.00    +0.000 A 
ATOM     22  C   UNL     1       1.465  12.213  18.862  0.00  0.00    +0.000 A 
ATOM     23  C   UNL     1       1.740  12.484  20.215  0.00  0.00    +0.000 A 
ATOM     24  C   UNL     1       2.630  13.525  20.494  0.00  0.00    +0.000 A 
BRANCH  19  27
ATOM     25  C   UNL     1       5.829  16.962  18.864  0.00  0.00    +0.000 C 
ATOM     26  N   UNL     1       4.894  15.882  18.679  0.00  0.00    +0.000 N 
ATOM     27  C   UNL     1       4.242  15.325  19.765  0.00  0.00    +0.000 C 
ATOM     28  O   UNL     1       4.407  15.703  20.917  0.00  0.00    +0.000 OA
ATOM     29  H   UNL     1       4.581  15.666  17.740  0.00  0.00    +0.000 HD
ENDBRANCH  19  27
ENDBRANCH   1  23
BRANCH  14  30
ATOM     30  C   UNL     1       1.373   2.655  19.791  0.00  0.00    +0.000 C 
ATOM     31  F   UNL     1       0.013   2.810  19.805  0.00  0.00    +0.000 F 
ATOM     32  F   UNL     1       1.576   1.385  19.337  0.00  0.00    +0.000 F 
ATOM     33  F   UNL     1       1.753   2.659  21.094  0.00  0.00    +0.000 F 
ENDBRANCH  14  30
TORSDOF 3
ENDMDL
MODEL 7
REMARK VINA RESULT:      -7.4      4.048      6.569
REMARK  Name = 
REMARK  4 active torsions:
REMARK  status: ('A' for Active; 'I' for Inactive)
REMARK    1  A    between atoms: C_1  and  N_2
REMARK    2  A    between atoms: C_3  and  C_5
REMARK    3  A    between atoms: C_9  and  N_10
REMARK    4  A    between atoms: C_23  and  C_24
REMARK                            x       y       z     vdW  Elec       q    Type
REMARK                         _______ _______ _______ _____ _____    ______ ____
ROOT
ATOM      1  N   UNL     1       0.907   7.855  20.721  0.00  0.00    +0.000 N 
ATOM      2  C   UNL     1       0.604   9.119  21.243  0.00  0.00    +0.000 A 
ATOM      3  N   UNL     1      -0.048   9.134  22.394  0.00  0.00    +0.000 NA
ATOM      4  C   UNL     1      -0.347  10.354  22.845  0.00  0.00    +0.000 A 
ATOM      5  N   UNL     1      -0.120  11.516  22.233  0.00  0.00    +0.000 NA
ATOM      6  C   UNL     1       0.549  11.419  21.102  0.00  0.00    +0.000 A 
ATOM      7  N   UNL     1       0.972  12.547  20.425  0.00  0.00    +0.000 N 
ATOM      8  C   UNL     1       2.008  12.306  19.424  0.00  0.00    +0.000 C 
ATOM      9  C   UNL     1       1.687  13.082  18.166  0.00  0.00    +0.000 C 
ATOM     10  C   UNL     1       1.893  14.501  18.604  0.00  0.00    +0.000 A 
ATOM     11  C   UNL     1       2.925  15.243  18.028  0.00  0.00    +0.000 A 
ATOM     12  C   UNL     1       3.286  16.452  18.588  0.00  0.00    +0.000 A 
ATOM     13  C   UNL     1       2.518  16.974  19.624  0.00  0.00    +0.000 A 
ATOM     14  C   UNL     1       1.414  16.272  20.173  0.00  0.00    +0.000 A 
ATOM     15  C   UNL     1       1.186  14.945  19.753  0.00  0.00    +0.000 A 
ATOM     16  C   UNL     1       0.307  13.881  20.468  0.00  0.00    +0.000 C 
ATOM     17  N   UNL     1       0.933  10.229  20.601  0.00  0.00    +0.000 NA
ATOM     18  H   UNL     1       0.489   7.145  21.309  0.00  0.00    +0.000 HD
ENDROOT
BRANCH   1  23
ATOM     19  C   UNL     1       3.635   5.816  19.142  0.00  0.00    +0.000 A 
ATOM     20  C   UNL     1       3.891   6.570  17.994  0.00  0.00    +0.000 A 
ATOM     21  C   UNL     1       3.163   7.734  17.761  0.00  0.00    +0.000 A 
ATOM     22  C   UNL     1       2.179   8.138  18.674  0.00  0.00    +0.000 A 
ATOM     23  C   UNL     1       1.890   7.387  19.829  0.00  0.00    +0.000 A 
ATOM     24  C   UNL     1       2.657   6.241  20.060  0.00  0.00    +0.000 A 
BRANCH  19  27
ATOM     25  C   UNL     1       4.396   2.192  19.920  0.00  0.00    +0.000 C 
ATOM     26  N   UNL     1       3.716   3.443  19.699  0.00  0.00    +0.000 N 
ATOM     27  C   UNL     1       4.432   4.582  19.377  0.00  0.00    +0.000 C 
ATOM     28  O   UNL     1       5.649   4.602  19.257  0.00  0.00    +0.000 OA
ATOM     29  H   UNL     1       2.709   3.437  19.597  0.00  0.00    +0.000 HD
ENDBRANCH  19  27
ENDBRANCH   1  23
BRANCH  14  30
ATOM     30  C   UNL     1       0.509  17.052  21.100  0.00  0.00    +0.000 C 
ATOM     31  F   UNL     1       0.833  18.380  21.171  0.00  0.00    +0.000 F 
ATOM     32  F   UNL     1      -0.787  17.031  20.679  0.00  0.00    +0.000 F 
ATOM     33  F   UNL     1       0.501  16.610  22.383  0.00  0.00    +0.000 F 
ENDBRANCH  14  30
TORSDOF 3
ENDMDL
MODEL 8
REMARK VINA RESULT:      -7.3      1.693      2.181
REMARK  Name = 
REMARK  4 active torsions:
REMARK  status: ('A' for Active; 'I' for Inactive)
REMARK    1  A    between atoms: C_1  and  N_2
REMARK    2  A    between atoms: C_3  and  C_5
REMARK    3  A    between atoms: C_9  and  N_10
REMARK    4  A    between atoms: C_23  and  C_24
REMARK                            x       y       z     vdW  Elec       q    Type
REMARK                         _______ _______ _______ _____ _____    ______ ____
ROOT
ATOM      1  N   UNL     1       4.094   4.275  18.773  0.00  0.00    +0.000 N 
ATOM      2  C   UNL     1       3.160   5.028  19.497  0.00  0.00    +0.000 A 
ATOM      3  N   UNL     1       2.528   4.392  20.471  0.00  0.00    +0.000 NA
ATOM      4  C   UNL     1       1.624   5.130  21.118  0.00  0.00    +0.000 A 
ATOM      5  N   UNL     1       1.262   6.383  20.842  0.00  0.00    +0.000 NA
ATOM      6  C   UNL     1       1.949   6.953  19.872  0.00  0.00    +0.000 A 
ATOM      7  N   UNL     1       1.775   8.289  19.565  0.00  0.00    +0.000 N 
ATOM      8  C   UNL     1       2.844   8.874  18.760  0.00  0.00    +0.000 C 
ATOM      9  C   UNL     1       2.243   9.736  17.672  0.00  0.00    +0.000 C 
ATOM     10  C   UNL     1       1.673  10.883  18.452  0.00  0.00    +0.000 A 
ATOM     11  C   UNL     1       2.212  12.157  18.273  0.00  0.00    +0.000 A 
ATOM     12  C   UNL     1       1.875  13.166  19.152  0.00  0.00    +0.000 A 
ATOM     13  C   UNL     1       0.892  12.931  20.108  0.00  0.00    +0.000 A 
ATOM     14  C   UNL     1       0.271  11.664  20.255  0.00  0.00    +0.000 A 
ATOM     15  C   UNL     1       0.774  10.578  19.509  0.00  0.00    +0.000 A 
ATOM     16  C   UNL     1       0.522   9.069  19.778  0.00  0.00    +0.000 C 
ATOM     17  N   UNL     1       2.913   6.294  19.201  0.00  0.00    +0.000 NA
ATOM     18  H   UNL     1       4.064   3.315  19.090  0.00  0.00    +0.000 HD
ENDROOT
BRANCH   1  23
ATOM     19  C   UNL     1       6.466   4.773  15.907  0.00  0.00    +0.000 A 
ATOM     20  C   UNL     1       7.583   5.277  16.579  0.00  0.00    +0.000 A 
ATOM     21  C   UNL     1       7.535   5.444  17.961  0.00  0.00    +0.000 A 
ATOM     22  C   UNL     1       6.370   5.109  18.665  0.00  0.00    +0.000 A 
ATOM     23  C   UNL     1       5.227   4.615  18.009  0.00  0.00    +0.000 A 
ATOM     24  C   UNL     1       5.309   4.425  16.628  0.00  0.00    +0.000 A 
BRANCH  19  27
ATOM     25  C   UNL     1       7.722   5.153  12.358  0.00  0.00    +0.000 C 
ATOM     26  N   UNL     1       7.550   5.283  13.782  0.00  0.00    +0.000 N 
ATOM     27  C   UNL     1       6.543   4.593  14.432  0.00  0.00    +0.000 C 
ATOM     28  O   UNL     1       5.759   3.847  13.861  0.00  0.00    +0.000 OA
ATOM     29  H   UNL     1       8.282   5.729  14.321  0.00  0.00    +0.000 HD
ENDBRANCH  19  27
ENDBRANCH   1  23
BRANCH  14  30
ATOM     30  C   UNL     1      -0.956  11.610  21.138  0.00  0.00    +0.000 C 
ATOM     31  F   UNL     1      -1.169  12.773  21.828  0.00  0.00    +0.000 F 
ATOM     32  F   UNL     1      -2.095  11.420  20.413  0.00  0.00    +0.000 F 
ATOM     33  F   UNL     1      -0.932  10.629  22.076  0.00  0.00    +0.000 F 
ENDBRANCH  14  30
TORSDOF 3
ENDMDL
MODEL 9
REMARK VINA RESULT:      -7.3      4.642      8.480
REMARK  Name = 
REMARK  4 active torsions:
REMARK  status: ('A' for Active; 'I' for Inactive)
REMARK    1  A    between atoms: C_1  and  N_2
REMARK    2  A    between atoms: C_3  and  C_5
REMARK    3  A    between atoms: C_9  and  N_10
REMARK    4  A    between atoms: C_23  and  C_24
REMARK                            x       y       z     vdW  Elec       q    Type
REMARK                         _______ _______ _______ _____ _____    ______ ____
ROOT
ATOM      1  N   UNL     1       0.775  11.908  21.223  0.00  0.00    +0.000 N 
ATOM      2  C   UNL     1       0.506  10.549  21.436  0.00  0.00    +0.000 A 
ATOM      3  N   UNL     1      -0.405  10.272  22.354  0.00  0.00    +0.000 NA
ATOM      4  C   UNL     1      -0.612   8.968  22.552  0.00  0.00    +0.000 A 
ATOM      5  N   UNL     1       0.037   7.954  21.980  0.00  0.00    +0.000 NA
ATOM      6  C   UNL     1       0.916   8.312  21.065  0.00  0.00    +0.000 A 
ATOM      7  N   UNL     1       1.569   7.367  20.297  0.00  0.00    +0.000 N 
ATOM      8  C   UNL     1       2.203   7.893  19.090  0.00  0.00    +0.000 C 
ATOM      9  C   UNL     1       3.580   7.286  18.937  0.00  0.00    +0.000 C 
ATOM     10  C   UNL     1       3.264   5.856  18.617  0.00  0.00    +0.000 A 
ATOM     11  C   UNL     1       3.606   5.352  17.361  0.00  0.00    +0.000 A 
ATOM     12  C   UNL     1       3.107   4.129  16.962  0.00  0.00    +0.000 A 
ATOM     13  C   UNL     1       2.395   3.357  17.875  0.00  0.00    +0.000 A 
ATOM     14  C   UNL     1       2.104   3.816  19.185  0.00  0.00    +0.000 A 
ATOM     15  C   UNL     1       2.420   5.151  19.515  0.00  0.00    +0.000 A 
ATOM     16  C   UNL     1       1.866   5.967  20.716  0.00  0.00    +0.000 C 
ATOM     17  N   UNL     1       1.150   9.605  20.769  0.00  0.00    +0.000 NA
ATOM     18  H   UNL     1       0.253  12.458  21.894  0.00  0.00    +0.000 HD
ENDROOT
BRANCH   1  23
ATOM     19  C   UNL     1       3.034  13.947  19.026  0.00  0.00    +0.000 A 
ATOM     20  C   UNL     1       2.216  14.125  17.908  0.00  0.00    +0.000 A 
ATOM     21  C   UNL     1       0.938  13.572  17.896  0.00  0.00    +0.000 A 
ATOM     22  C   UNL     1       0.484  12.840  19.002  0.00  0.00    +0.000 A 
ATOM     23  C   UNL     1       1.294  12.632  20.134  0.00  0.00    +0.000 A 
ATOM     24  C   UNL     1       2.560  13.225  20.137  0.00  0.00    +0.000 A 
BRANCH  19  27
ATOM     25  C   UNL     1       6.441  14.982  17.747  0.00  0.00    +0.000 C 
ATOM     26  N   UNL     1       5.126  14.406  17.858  0.00  0.00    +0.000 N 
ATOM     27  C   UNL     1       4.392  14.554  19.021  0.00  0.00    +0.000 C 
ATOM     28  O   UNL     1       4.796  15.169  19.999  0.00  0.00    +0.000 OA
ATOM     29  H   UNL     1       4.675  14.060  17.020  0.00  0.00    +0.000 HD
ENDBRANCH  19  27
ENDBRANCH   1  23
BRANCH  14  30
ATOM     30  C   UNL     1       1.565   2.791  20.157  0.00  0.00    +0.000 C 
ATOM     31  F   UNL     1       2.308   2.698  21.303  0.00  0.00    +0.000 F 
ATOM     32  F   UNL     1       0.307   3.106  20.580  0.00  0.00    +0.000 F 
ATOM     33  F   UNL     1       1.497   1.528  19.664  0.00  0.00    +0.000 F 
ENDBRANCH  14  30
TORSDOF 3
ENDMDL
