MODEL 1
REMARK VINA RESULT:      -7.1      0.000      0.000
REMARK  Name = 
REMARK  8 active torsions:
REMARK  status: ('A' for Active; 'I' for Inactive)
REMARK    1  A    between atoms: C_1  and  C_2
REMARK    2  A    between atoms: C_2  and  C_3
REMARK    3  A    between atoms: C_2  and  C_4
REMARK    4  A    between atoms: C_7  and  C_8
REMARK    5  A    between atoms: C_8  and  C_9
REMARK    6  A    between atoms: C_9  and  N_10
REMARK    7  A    between atoms: C_11  and  C_13
REMARK    8  A    between atoms: C_13  and  C_14
REMARK                            x       y       z     vdW  Elec       q    Type
REMARK                         _______ _______ _______ _____ _____    ______ ____
ROOT
ATOM      1  N   UNL     1       5.348   5.847  18.500  0.00  0.00    +0.000 N 
ATOM      2  C   UNL     1       4.309   6.438  17.818  0.00  0.00    +0.000 C 
ATOM      3  O   UNL     1       4.416   6.822  16.654  0.00  0.00    +0.000 OA
ATOM      4  H   UNL     1       5.209   5.500  19.444  0.00  0.00    +0.000 HD
ENDROOT
BRANCH   1   5
ATOM      5  C   UNL     1       6.611   5.593  17.826  0.00  0.00    +0.000 C 
BRANCH   5   6
ATOM      6  C   UNL     1       6.661   4.226  17.151  0.00  0.00    +0.000 C 
BRANCH   6  10
ATOM      7  C   UNL     1       6.675   4.347  13.602  0.00  0.00    +0.000 A 
ATOM      8  N   UNL     1       7.587   5.303  13.837  0.00  0.00    +0.000 NA
ATOM      9  O   UNL     1       7.661   5.337  15.233  0.00  0.00    +0.000 OA
ATOM     10  C   UNL     1       6.786   4.391  15.685  0.00  0.00    +0.000 A 
ATOM     11  N   UNL     1       6.149   3.764  14.729  0.00  0.00    +0.000 NA
BRANCH   7  13
ATOM     12  C   UNL     1       7.220   2.785  11.743  0.00  0.00    +0.000 C 
ATOM     13  C   UNL     1       6.291   3.903  12.229  0.00  0.00    +0.000 C 
ATOM     14  C   UNL     1       4.838   3.429  12.174  0.00  0.00    +0.000 C 
ENDBRANCH   7  13
ENDBRANCH   6  10
ENDBRANCH   5   6
ENDBRANCH   1   5
BRANCH   2  15
ATOM     15  C   UNL     1       3.017   6.588  18.595  0.00  0.00    +0.000 C 
BRANCH  15  16
ATOM     16  C   UNL     1       2.344   5.277  18.915  0.00  0.00    +0.000 A 
ATOM     17  C   UNL     1       1.942   4.977  20.219  0.00  0.00    +0.000 A 
ATOM     18  C   UNL     1       1.277   3.782  20.455  0.00  0.00    +0.000 A 
ATOM     19  N   UNL     1       0.990   2.880  19.495  0.00  0.00    +0.000 NA
ATOM     20  C   UNL     1       1.382   3.187  18.240  0.00  0.00    +0.000 A 
ATOM     21  C   UNL     1       2.056   4.353  17.905  0.00  0.00    +0.000 A 
ENDBRANCH  15  16
ENDBRANCH   2  15
TORSDOF 6
ENDMDL
MODEL 2
REMARK VINA RESULT:      -7.1      0.828      1.121
REMARK  Name = 
REMARK  8 active torsions:
REMARK  status: ('A' for Active; 'I' for Inactive)
REMARK    1  A    between atoms: C_1  and  C_2
REMARK    2  A    between atoms: C_2  and  C_3
REMARK    3  A    between atoms: C_2  and  C_4
REMARK    4  A    between atoms: C_7  and  C_8
REMARK    5  A    between atoms: C_8  and  C_9
REMARK    6  A    between atoms: C_9  and  N_10
REMARK    7  A    between atoms: C_11  and  C_13
REMARK    8  A    between atoms: C_13  and  C_14
REMARK                            x       y       z     vdW  Elec       q    Type
REMARK                         _______ _______ _______ _____ _____    ______ ____
ROOT
ATOM      1  N   UNL     1       5.006   5.905  18.982  0.00  0.00    +0.000 N 
ATOM      2  C   UNL     1       3.885   6.272  18.271  0.00  0.00    +0.000 C 
ATOM      3  O   UNL     1       3.930   6.584  17.082  0.00  0.00    +0.000 OA
ATOM      4  H   UNL     1       4.923   5.610  19.950  0.00  0.00    +0.000 HD
ENDROOT
BRANCH   1   5
ATOM      5  C   UNL     1       6.293   5.809  18.315  0.00  0.00    +0.000 C 
BRANCH   5   6
ATOM      6  C   UNL     1       6.568   4.418  17.751  0.00  0.00    +0.000 C 
BRANCH   6  10
ATOM      7  C   UNL     1       6.713   4.269  14.206  0.00  0.00    +0.000 A 
ATOM      8  N   UNL     1       7.432   5.387  14.387  0.00  0.00    +0.000 NA
ATOM      9  O   UNL     1       7.439   5.539  15.777  0.00  0.00    +0.000 OA
ATOM     10  C   UNL     1       6.725   4.490  16.281  0.00  0.00    +0.000 A 
ATOM     11  N   UNL     1       6.248   3.690  15.362  0.00  0.00    +0.000 NA
BRANCH   7  13
ATOM     12  C   UNL     1       4.977   3.675  12.525  0.00  0.00    +0.000 C 
ATOM     13  C   UNL     1       6.471   3.660  12.864  0.00  0.00    +0.000 C 
ATOM     14  C   UNL     1       7.258   4.379  11.767  0.00  0.00    +0.000 C 
ENDBRANCH   7  13
ENDBRANCH   6  10
ENDBRANCH   5   6
ENDBRANCH   1   5
BRANCH   2  15
ATOM     15  C   UNL     1       2.586   6.270  19.050  0.00  0.00    +0.000 C 
BRANCH  15  16
ATOM     16  C   UNL     1       2.202   4.914  19.587  0.00  0.00    +0.000 A 
ATOM     17  C   UNL     1       2.325   4.621  20.948  0.00  0.00    +0.000 A 
ATOM     18  C   UNL     1       1.907   3.379  21.404  0.00  0.00    +0.000 A 
ATOM     19  N   UNL     1       1.383   2.424  20.610  0.00  0.00    +0.000 NA
ATOM     20  C   UNL     1       1.268   2.724  19.299  0.00  0.00    +0.000 A 
ATOM     21  C   UNL     1       1.661   3.935  18.747  0.00  0.00    +0.000 A 
ENDBRANCH  15  16
ENDBRANCH   2  15
TORSDOF 6
ENDMDL
MODEL 3
REMARK VINA RESULT:      -7.0      1.567      2.110
REMARK  Name = 
REMARK  8 active torsions:
REMARK  status: ('A' for Active; 'I' for Inactive)
REMARK    1  A    between atoms: C_1  and  C_2
REMARK    2  A    between atoms: C_2  and  C_3
REMARK    3  A    between atoms: C_2  and  C_4
REMARK    4  A    between atoms: C_7  and  C_8
REMARK    5  A    between atoms: C_8  and  C_9
REMARK    6  A    between atoms: C_9  and  N_10
REMARK    7  A    between atoms: C_11  and  C_13
REMARK    8  A    between atoms: C_13  and  C_14
REMARK                            x       y       z     vdW  Elec       q    Type
REMARK                         _______ _______ _______ _____ _____    ______ ____
ROOT
ATOM      1  N   UNL     1       5.487   4.928  17.335  0.00  0.00    +0.000 N 
ATOM      2  C   UNL     1       5.325   5.137  18.686  0.00  0.00    +0.000 C 
ATOM      3  O   UNL     1       6.234   4.954  19.495  0.00  0.00    +0.000 OA
ATOM      4  H   UNL     1       4.728   5.134  16.692  0.00  0.00    +0.000 HD
ENDROOT
BRANCH   1   5
ATOM      5  C   UNL     1       6.785   4.543  16.806  0.00  0.00    +0.000 C 
BRANCH   5   6
ATOM      6  C   UNL     1       7.237   5.422  15.643  0.00  0.00    +0.000 C 
BRANCH   6  10
ATOM      7  C   UNL     1       6.207   3.627  12.758  0.00  0.00    +0.000 A 
ATOM      8  N   UNL     1       7.124   4.418  12.182  0.00  0.00    +0.000 NA
ATOM      9  O   UNL     1       7.604   5.181  13.251  0.00  0.00    +0.000 OA
ATOM     10  C   UNL     1       6.923   4.759  14.358  0.00  0.00    +0.000 A 
ATOM     11  N   UNL     1       6.048   3.818  14.109  0.00  0.00    +0.000 NA
BRANCH   7  13
ATOM     12  C   UNL     1       4.306   3.207  11.208  0.00  0.00    +0.000 C 
ATOM     13  C   UNL     1       5.448   2.578  12.014  0.00  0.00    +0.000 C 
ATOM     14  C   UNL     1       6.357   1.775  11.082  0.00  0.00    +0.000 C 
ENDBRANCH   7  13
ENDBRANCH   6  10
ENDBRANCH   5   6
ENDBRANCH   1   5
BRANCH   2  15
ATOM     15  C   UNL     1       3.951   5.605  19.118  0.00  0.00    +0.000 C 
BRANCH  15  16
ATOM     16  C   UNL     1       3.063   4.496  19.624  0.00  0.00    +0.000 A 
ATOM     17  C   UNL     1       3.007   3.265  18.965  0.00  0.00    +0.000 A 
ATOM     18  C   UNL     1       2.219   2.256  19.500  0.00  0.00    +0.000 A 
ATOM     19  N   UNL     1       1.495   2.387  20.630  0.00  0.00    +0.000 NA
ATOM     20  C   UNL     1       1.563   3.582  21.255  0.00  0.00    +0.000 A 
ATOM     21  C   UNL     1       2.318   4.652  20.797  0.00  0.00    +0.000 A 
ENDBRANCH  15  16
ENDBRANCH   2  15
TORSDOF 6
ENDMDL
MODEL 4
REMARK VINA RESULT:      -7.0      2.092      3.071
REMARK  Name = 
REMARK  8 active torsions:
REMARK  status: ('A' for Active; 'I' for Inactive)
REMARK    1  A    between atoms: C_1  and  C_2
REMARK    2  A    between atoms: C_2  and  C_3
REMARK    3  A    between atoms: C_2  and  C_4
REMARK    4  A    between atoms: C_7  and  C_8
REMARK    5  A    between atoms: C_8  and  C_9
REMARK    6  A    between atoms: C_9  and  N_10
REMARK    7  A    between atoms: C_11  and  C_13
REMARK    8  A    between atoms: C_13  and  C_14
REMARK                            x       y       z     vdW  Elec       q    Type
REMARK                         _______ _______ _______ _____ _____    ______ ____
ROOT
ATOM      1  N   UNL     1       5.305   5.490  19.064  0.00  0.00    +0.000 N 
ATOM      2  C   UNL     1       4.509   4.378  19.220  0.00  0.00    +0.000 C 
ATOM      3  O   UNL     1       4.964   3.280  19.540  0.00  0.00    +0.000 OA
ATOM      4  H   UNL     1       4.889   6.389  18.845  0.00  0.00    +0.000 HD
ENDROOT
BRANCH   1   5
ATOM      5  C   UNL     1       6.729   5.412  19.344  0.00  0.00    +0.000 C 
BRANCH   5   6
ATOM      6  C   UNL     1       7.577   6.172  18.328  0.00  0.00    +0.000 C 
BRANCH   6  10
ATOM      7  C   UNL     1       6.758   5.102  15.043  0.00  0.00    +0.000 A 
ATOM      8  N   UNL     1       5.874   6.105  15.150  0.00  0.00    +0.000 NA
ATOM      9  O   UNL     1       6.117   6.608  16.433  0.00  0.00    +0.000 OA
ATOM     10  C   UNL     1       7.127   5.852  16.955  0.00  0.00    +0.000 A 
ATOM     11  N   UNL     1       7.548   4.909  16.150  0.00  0.00    +0.000 NA
BRANCH   7  13
ATOM     12  C   UNL     1       5.564   3.766  13.316  0.00  0.00    +0.000 C 
ATOM     13  C   UNL     1       6.921   4.285  13.803  0.00  0.00    +0.000 C 
ATOM     14  C   UNL     1       7.603   5.078  12.687  0.00  0.00    +0.000 C 
ENDBRANCH   7  13
ENDBRANCH   6  10
ENDBRANCH   5   6
ENDBRANCH   1   5
BRANCH   2  15
ATOM     15  C   UNL     1       3.030   4.590  18.971  0.00  0.00    +0.000 C 
BRANCH  15  16
ATOM     16  C   UNL     1       2.592   6.026  19.106  0.00  0.00    +0.000 A 
ATOM     17  C   UNL     1       2.612   6.888  18.006  0.00  0.00    +0.000 A 
ATOM     18  C   UNL     1       2.147   8.186  18.165  0.00  0.00    +0.000 A 
ATOM     19  N   UNL     1       1.669   8.675  19.327  0.00  0.00    +0.000 NA
ATOM     20  C   UNL     1       1.654   7.829  20.378  0.00  0.00    +0.000 A 
ATOM     21  C   UNL     1       2.101   6.517  20.320  0.00  0.00    +0.000 A 
ENDBRANCH  15  16
ENDBRANCH   2  15
TORSDOF 6
ENDMDL
MODEL 5
REMARK VINA RESULT:      -6.9      1.408      1.664
REMARK  Name = 
REMARK  8 active torsions:
REMARK  status: ('A' for Active; 'I' for Inactive)
REMARK    1  A    between atoms: C_1  and  C_2
REMARK    2  A    between atoms: C_2  and  C_3
REMARK    3  A    between atoms: C_2  and  C_4
REMARK    4  A    between atoms: C_7  and  C_8
REMARK    5  A    between atoms: C_8  and  C_9
REMARK    6  A    between atoms: C_9  and  N_10
REMARK    7  A    between atoms: C_11  and  C_13
REMARK    8  A    between atoms: C_13  and  C_14
REMARK                            x       y       z     vdW  Elec       q    Type
REMARK                         _______ _______ _______ _____ _____    ______ ____
ROOT
ATOM      1  N   UNL     1       4.677   5.023  16.980  0.00  0.00    +0.000 N 
ATOM      2  C   UNL     1       3.824   5.374  18.001  0.00  0.00    +0.000 C 
ATOM      3  O   UNL     1       4.083   6.276  18.797  0.00  0.00    +0.000 OA
ATOM      4  H   UNL     1       4.408   4.304  16.315  0.00  0.00    +0.000 HD
ENDROOT
BRANCH   1   5
ATOM      5  C   UNL     1       5.905   5.770  16.765  0.00  0.00    +0.000 C 
BRANCH   5   6
ATOM      6  C   UNL     1       7.066   4.888  16.316  0.00  0.00    +0.000 C 
BRANCH   6  10
ATOM      7  C   UNL     1       6.696   4.173  12.858  0.00  0.00    +0.000 A 
ATOM      8  N   UNL     1       7.573   5.184  12.758  0.00  0.00    +0.000 NA
ATOM      9  O   UNL     1       7.793   5.547  14.091  0.00  0.00    +0.000 OA
ATOM     10  C   UNL     1       7.026   4.708  14.848  0.00  0.00    +0.000 A 
ATOM     11  N   UNL     1       6.326   3.856  14.142  0.00  0.00    +0.000 NA
BRANCH   7  13
ATOM     12  C   UNL     1       6.887   2.044  11.584  0.00  0.00    +0.000 C 
ATOM     13  C   UNL     1       6.194   3.407  11.679  0.00  0.00    +0.000 C 
ATOM     14  C   UNL     1       4.677   3.214  11.734  0.00  0.00    +0.000 C 
ENDBRANCH   7  13
ENDBRANCH   6  10
ENDBRANCH   5   6
ENDBRANCH   1   5
BRANCH   2  15
ATOM     15  C   UNL     1       2.540   4.575  18.088  0.00  0.00    +0.000 C 
BRANCH  15  16
ATOM     16  C   UNL     1       2.365   3.848  19.398  0.00  0.00    +0.000 A 
ATOM     17  C   UNL     1       1.116   3.785  20.021  0.00  0.00    +0.000 A 
ATOM     18  C   UNL     1       0.991   3.057  21.196  0.00  0.00    +0.000 A 
ATOM     19  N   UNL     1       2.011   2.398  21.783  0.00  0.00    +0.000 NA
ATOM     20  C   UNL     1       3.210   2.467  21.166  0.00  0.00    +0.000 A 
ATOM     21  C   UNL     1       3.435   3.171  19.992  0.00  0.00    +0.000 A 
ENDBRANCH  15  16
ENDBRANCH   2  15
TORSDOF 6
ENDMDL
MODEL 6
REMARK VINA RESULT:      -6.8      0.940      1.413
REMARK  Name = 
REMARK  8 active torsions:
REMARK  status: ('A' for Active; 'I' for Inactive)
REMARK    1  A    between atoms: C_1  and  C_2
REMARK    2  A    between atoms: C_2  and  C_3
REMARK    3  A    between atoms: C_2  and  C_4
REMARK    4  A    between atoms: C_7  and  C_8
REMARK    5  A    between atoms: C_8  and  C_9
REMARK    6  A    between atoms: C_9  and  N_10
REMARK    7  A    between atoms: C_11  and  C_13
REMARK    8  A    between atoms: C_13  and  C_14
REMARK                            x       y       z     vdW  Elec       q    Type
REMARK                         _______ _______ _______ _____ _____    ______ ____
ROOT
ATOM      1  N   UNL     1       4.766   5.516  17.144  0.00  0.00    +0.000 N 
ATOM      2  C   UNL     1       3.984   5.922  18.201  0.00  0.00    +0.000 C 
ATOM      3  O   UNL     1       4.460   6.411  19.225  0.00  0.00    +0.000 OA
ATOM      4  H   UNL     1       4.335   5.160  16.297  0.00  0.00    +0.000 HD
ENDROOT
BRANCH   1   5
ATOM      5  C   UNL     1       6.205   5.719  17.181  0.00  0.00    +0.000 C 
BRANCH   5   6
ATOM      6  C   UNL     1       6.989   4.517  16.661  0.00  0.00    +0.000 C 
BRANCH   6  10
ATOM      7  C   UNL     1       6.635   4.165  13.145  0.00  0.00    +0.000 A 
ATOM      8  N   UNL     1       7.493   5.196  13.155  0.00  0.00    +0.000 NA
ATOM      9  O   UNL     1       7.705   5.420  14.520  0.00  0.00    +0.000 OA
ATOM     10  C   UNL     1       6.953   4.492  15.181  0.00  0.00    +0.000 A 
ATOM     11  N   UNL     1       6.269   3.707  14.388  0.00  0.00    +0.000 NA
BRANCH   7  13
ATOM     12  C   UNL     1       6.910   2.218  11.621  0.00  0.00    +0.000 C 
ATOM     13  C   UNL     1       6.148   3.519  11.890  0.00  0.00    +0.000 C 
ATOM     14  C   UNL     1       4.645   3.236  11.946  0.00  0.00    +0.000 C 
ENDBRANCH   7  13
ENDBRANCH   6  10
ENDBRANCH   5   6
ENDBRANCH   1   5
BRANCH   2  15
ATOM     15  C   UNL     1       2.492   5.728  18.026  0.00  0.00    +0.000 C 
BRANCH  15  16
ATOM     16  C   UNL     1       1.941   4.548  18.786  0.00  0.00    +0.000 A 
ATOM     17  C   UNL     1       1.777   3.307  18.164  0.00  0.00    +0.000 A 
ATOM     18  C   UNL     1       1.319   2.237  18.918  0.00  0.00    +0.000 A 
ATOM     19  N   UNL     1       1.017   2.316  20.230  0.00  0.00    +0.000 NA
ATOM     20  C   UNL     1       1.183   3.521  20.816  0.00  0.00    +0.000 A 
ATOM     21  C   UNL     1       1.632   4.650  20.146  0.00  0.00    +0.000 A 
ENDBRANCH  15  16
ENDBRANCH   2  15
TORSDOF 6
ENDMDL
MODEL 7
REMARK VINA RESULT:      -6.8      1.859      2.281
REMARK  Name = 
REMARK  8 active torsions:
REMARK  status: ('A' for Active; 'I' for Inactive)
REMARK    1  A    between atoms: C_1  and  C_2
REMARK    2  A    between atoms: C_2  and  C_3
REMARK    3  A    between atoms: C_2  and  C_4
REMARK    4  A    between atoms: C_7  and  C_8
REMARK    5  A    between atoms: C_8  and  C_9
REMARK    6  A    between atoms: C_9  and  N_10
REMARK    7  A    between atoms: C_11  and  C_13
REMARK    8  A    between atoms: C_13  and  C_14
REMARK                            x       y       z     vdW  Elec       q    Type
REMARK                         _______ _______ _______ _____ _____    ______ ____
ROOT
ATOM      1  N   UNL     1       6.574   4.355  18.507  0.00  0.00    +0.000 N 
ATOM      2  C   UNL     1       5.261   4.553  18.871  0.00  0.00    +0.000 C 
ATOM      3  O   UNL     1       4.904   5.507  19.561  0.00  0.00    +0.000 OA
ATOM      4  H   UNL     1       6.824   3.582  17.898  0.00  0.00    +0.000 HD
ENDROOT
BRANCH   1   5
ATOM      5  C   UNL     1       7.589   5.325  18.881  0.00  0.00    +0.000 C 
BRANCH   5   6
ATOM      6  C   UNL     1       7.573   6.572  18.001  0.00  0.00    +0.000 C 
BRANCH   6  10
ATOM      7  C   UNL     1       6.390   5.581  14.803  0.00  0.00    +0.000 A 
ATOM      8  N   UNL     1       5.367   6.373  15.156  0.00  0.00    +0.000 NA
ATOM      9  O   UNL     1       5.739   6.827  16.426  0.00  0.00    +0.000 OA
ATOM     10  C   UNL     1       6.951   6.259  16.695  0.00  0.00    +0.000 A 
ATOM     11  N   UNL     1       7.390   5.479  15.740  0.00  0.00    +0.000 NA
BRANCH   7  13
ATOM     12  C   UNL     1       7.883   5.045  12.885  0.00  0.00    +0.000 C 
ATOM     13  C   UNL     1       6.477   4.899  13.477  0.00  0.00    +0.000 C 
ATOM     14  C   UNL     1       6.109   3.417  13.578  0.00  0.00    +0.000 C 
ENDBRANCH   7  13
ENDBRANCH   6  10
ENDBRANCH   5   6
ENDBRANCH   1   5
BRANCH   2  15
ATOM     15  C   UNL     1       4.277   3.518  18.366  0.00  0.00    +0.000 C 
BRANCH  15  16
ATOM     16  C   UNL     1       3.129   3.262  19.309  0.00  0.00    +0.000 A 
ATOM     17  C   UNL     1       3.352   2.738  20.585  0.00  0.00    +0.000 A 
ATOM     18  C   UNL     1       2.270   2.572  21.438  0.00  0.00    +0.000 A 
ATOM     19  N   UNL     1       1.000   2.889  21.111  0.00  0.00    +0.000 NA
ATOM     20  C   UNL     1       0.803   3.396  19.876  0.00  0.00    +0.000 A 
ATOM     21  C   UNL     1       1.818   3.595  18.952  0.00  0.00    +0.000 A 
ENDBRANCH  15  16
ENDBRANCH   2  15
TORSDOF 6
ENDMDL
MODEL 8
REMARK VINA RESULT:      -6.8      0.957      1.615
REMARK  Name = 
REMARK  8 active torsions:
REMARK  status: ('A' for Active; 'I' for Inactive)
REMARK    1  A    between atoms: C_1  and  C_2
REMARK    2  A    between atoms: C_2  and  C_3
REMARK    3  A    between atoms: C_2  and  C_4
REMARK    4  A    between atoms: C_7  and  C_8
REMARK    5  A    between atoms: C_8  and  C_9
REMARK    6  A    between atoms: C_9  and  N_10
REMARK    7  A    between atoms: C_11  and  C_13
REMARK    8  A    between atoms: C_13  and  C_14
REMARK                            x       y       z     vdW  Elec       q    Type
REMARK                         _______ _______ _______ _____ _____    ______ ____
ROOT
ATOM      1  N   UNL     1       4.741   4.627  17.569  0.00  0.00    +0.000 N 
ATOM      2  C   UNL     1       4.090   5.811  17.835  0.00  0.00    +0.000 C 
ATOM      3  O   UNL     1       4.693   6.862  18.048  0.00  0.00    +0.000 OA
ATOM      4  H   UNL     1       4.209   3.789  17.353  0.00  0.00    +0.000 HD
ENDROOT
BRANCH   1   5
ATOM      5  C   UNL     1       6.190   4.598  17.464  0.00  0.00    +0.000 C 
BRANCH   5   6
ATOM      6  C   UNL     1       6.732   5.593  16.442  0.00  0.00    +0.000 C 
BRANCH   6  10
ATOM      7  C   UNL     1       6.384   3.930  13.324  0.00  0.00    +0.000 A 
ATOM      8  N   UNL     1       7.410   4.733  13.006  0.00  0.00    +0.000 NA
ATOM      9  O   UNL     1       7.635   5.446  14.189  0.00  0.00    +0.000 OA
ATOM     10  C   UNL     1       6.719   4.987  15.092  0.00  0.00    +0.000 A 
ATOM     11  N   UNL     1       5.921   4.068  14.610  0.00  0.00    +0.000 NA
BRANCH   7  13
ATOM     12  C   UNL     1       4.603   3.499  11.642  0.00  0.00    +0.000 C 
ATOM     13  C   UNL     1       5.813   2.922  12.382  0.00  0.00    +0.000 C 
ATOM     14  C   UNL     1       6.855   2.437  11.372  0.00  0.00    +0.000 C 
ENDBRANCH   7  13
ENDBRANCH   6  10
ENDBRANCH   5   6
ENDBRANCH   1   5
BRANCH   2  15
ATOM     15  C   UNL     1       2.577   5.739  17.850  0.00  0.00    +0.000 C 
BRANCH  15  16
ATOM     16  C   UNL     1       2.028   4.715  18.811  0.00  0.00    +0.000 A 
ATOM     17  C   UNL     1       1.377   3.570  18.345  0.00  0.00    +0.000 A 
ATOM     18  C   UNL     1       0.938   2.629  19.265  0.00  0.00    +0.000 A 
ATOM     19  N   UNL     1       1.102   2.749  20.598  0.00  0.00    +0.000 NA
ATOM     20  C   UNL     1       1.735   3.859  21.032  0.00  0.00    +0.000 A 
ATOM     21  C   UNL     1       2.206   4.857  20.191  0.00  0.00    +0.000 A 
ENDBRANCH  15  16
ENDBRANCH   2  15
TORSDOF 6
ENDMDL
MODEL 9
REMARK VINA RESULT:      -6.8      1.504      1.908
REMARK  Name = 
REMARK  8 active torsions:
REMARK  status: ('A' for Active; 'I' for Inactive)
REMARK    1  A    between atoms: C_1  and  C_2
REMARK    2  A    between atoms: C_2  and  C_3
REMARK    3  A    between atoms: C_2  and  C_4
REMARK    4  A    between atoms: C_7  and  C_8
REMARK    5  A    between atoms: C_8  and  C_9
REMARK    6  A    between atoms: C_9  and  N_10
REMARK    7  A    between atoms: C_11  and  C_13
REMARK    8  A    between atoms: C_13  and  C_14
REMARK                            x       y       z     vdW  Elec       q    Type
REMARK                         _______ _______ _______ _____ _____    ______ ____
ROOT
ATOM      1  N   UNL     1       6.218   5.032  18.001  0.00  0.00    +0.000 N 
ATOM      2  C   UNL     1       4.894   4.687  18.158  0.00  0.00    +0.000 C 
ATOM      3  O   UNL     1       4.305   3.953  17.365  0.00  0.00    +0.000 OA
ATOM      4  H   UNL     1       6.683   5.602  18.700  0.00  0.00    +0.000 HD
ENDROOT
BRANCH   1   5
ATOM      5  C   UNL     1       6.992   4.472  16.906  0.00  0.00    +0.000 C 
BRANCH   5   6
ATOM      6  C   UNL     1       7.209   5.461  15.764  0.00  0.00    +0.000 C 
BRANCH   6  10
ATOM      7  C   UNL     1       6.257   3.667  12.852  0.00  0.00    +0.000 A 
ATOM      8  N   UNL     1       7.121   4.521  12.284  0.00  0.00    +0.000 NA
ATOM      9  O   UNL     1       7.566   5.289  13.365  0.00  0.00    +0.000 OA
ATOM     10  C   UNL     1       6.922   4.807  14.468  0.00  0.00    +0.000 A 
ATOM     11  N   UNL     1       6.100   3.822  14.208  0.00  0.00    +0.000 NA
BRANCH   7  13
ATOM     12  C   UNL     1       4.357   3.166  11.325  0.00  0.00    +0.000 C 
ATOM     13  C   UNL     1       5.552   2.591  12.093  0.00  0.00    +0.000 C 
ATOM     14  C   UNL     1       6.494   1.873  11.123  0.00  0.00    +0.000 C 
ENDBRANCH   7  13
ENDBRANCH   6  10
ENDBRANCH   5   6
ENDBRANCH   1   5
BRANCH   2  15
ATOM     15  C   UNL     1       4.204   5.272  19.373  0.00  0.00    +0.000 C 
BRANCH  15  16
ATOM     16  C   UNL     1       3.114   4.393  19.933  0.00  0.00    +0.000 A 
ATOM     17  C   UNL     1       3.422   3.288  20.731  0.00  0.00    +0.000 A 
ATOM     18  C   UNL     1       2.384   2.542  21.270  0.00  0.00    +0.000 A 
ATOM     19  N   UNL     1       1.079   2.818  21.071  0.00  0.00    +0.000 NA
ATOM     20  C   UNL     1       0.799   3.890  20.300  0.00  0.00    +0.000 A 
ATOM     21  C   UNL     1       1.766   4.694  19.714  0.00  0.00    +0.000 A 
ENDBRANCH  15  16
ENDBRANCH   2  15
TORSDOF 6
ENDMDL
