MODEL 1
REMARK VINA RESULT:      -7.9      0.000      0.000
REMARK  Name = 
REMARK  3 active torsions:
REMARK  status: ('A' for Active; 'I' for Inactive)
REMARK    1  A    between atoms: C_1  and  C_2
REMARK    2  A    between atoms: N_12  and  N_13
REMARK    3  A    between atoms: C_14  and  C_16
REMARK                            x       y       z     vdW  Elec       q    Type
REMARK                         _______ _______ _______ _____ _____    ______ ____
ROOT
ATOM      1  C   UNL     1       6.546   5.427  19.124  0.00  0.00    +0.000 C 
ATOM      2  C   UNL     1       5.150   4.889  18.955  0.00  0.00    +0.000 A 
ATOM      3  N   UNL     1       4.418   4.891  20.027  0.00  0.00    +0.000 NA
ATOM      4  C   UNL     1       3.143   4.328  19.991  0.00  0.00    +0.000 A 
ATOM      5  C   UNL     1       2.426   4.246  21.187  0.00  0.00    +0.000 A 
ATOM      6  C   UNL     1       1.190   3.595  21.231  0.00  0.00    +0.000 A 
ATOM      7  C   UNL     1       0.661   3.034  20.070  0.00  0.00    +0.000 A 
ATOM      8  C   UNL     1       1.362   3.133  18.862  0.00  0.00    +0.000 A 
ATOM      9  C   UNL     1       2.605   3.778  18.832  0.00  0.00    +0.000 A 
ATOM     10  C   UNL     1       3.435   3.831  17.608  0.00  0.00    +0.000 A 
ATOM     11  O   UNL     1       3.048   3.296  16.563  0.00  0.00    +0.000 OA
ATOM     12  N   UNL     1       4.697   4.420  17.735  0.00  0.00    +0.000 N 
ENDROOT
BRANCH  12  13
ATOM     13  N   UNL     1       5.551   4.205  16.597  0.00  0.00    +0.000 N 
ATOM     14  C   UNL     1       5.727   5.171  15.623  0.00  0.00    +0.000 C 
ATOM     15  O   UNL     1       5.415   6.349  15.713  0.00  0.00    +0.000 OA
ATOM     16  H   UNL     1       5.583   3.222  16.326  0.00  0.00    +0.000 HD
BRANCH  14  17
ATOM     17  C   UNL     1       6.380   4.742  14.370  0.00  0.00    +0.000 A 
ATOM     18  C   UNL     1       7.375   5.553  13.829  0.00  0.00    +0.000 A 
ATOM     19  N   UNL     1       7.942   5.349  12.613  0.00  0.00    +0.000 NA
ATOM     20  C   UNL     1       7.459   4.313  11.889  0.00  0.00    +0.000 A 
ATOM     21  C   UNL     1       6.470   3.453  12.351  0.00  0.00    +0.000 A 
ATOM     22 BR   UNL     1       5.820   2.069  11.245  0.00  0.00    +0.000 Br
ATOM     23  C   UNL     1       5.929   3.656  13.621  0.00  0.00    +0.000 A 
ENDBRANCH  14  17
ENDBRANCH  12  13
TORSDOF 2
ENDMDL
MODEL 2
REMARK VINA RESULT:      -7.5      3.082      7.314
REMARK  Name = 
REMARK  3 active torsions:
REMARK  status: ('A' for Active; 'I' for Inactive)
REMARK    1  A    between atoms: C_1  and  C_2
REMARK    2  A    between atoms: N_12  and  N_13
REMARK    3  A    between atoms: C_14  and  C_16
REMARK                            x       y       z     vdW  Elec       q    Type
REMARK                         _______ _______ _______ _____ _____    ______ ____
ROOT
ATOM      1  C   UNL     1       7.401   6.917  17.413  0.00  0.00    +0.000 C 
ATOM      2  C   UNL     1       6.893   5.931  16.395  0.00  0.00    +0.000 A 
ATOM      3  N   UNL     1       7.614   5.817  15.321  0.00  0.00    +0.000 NA
ATOM      4  C   UNL     1       7.176   4.999  14.281  0.00  0.00    +0.000 A 
ATOM      5  C   UNL     1       7.917   4.985  13.097  0.00  0.00    +0.000 A 
ATOM      6  C   UNL     1       7.466   4.268  11.986  0.00  0.00    +0.000 A 
ATOM      7  C   UNL     1       6.275   3.549  12.061  0.00  0.00    +0.000 A 
ATOM      8  C   UNL     1       5.538   3.538  13.251  0.00  0.00    +0.000 A 
ATOM      9  C   UNL     1       5.994   4.269  14.356  0.00  0.00    +0.000 A 
ATOM     10  C   UNL     1       5.211   4.373  15.609  0.00  0.00    +0.000 A 
ATOM     11  O   UNL     1       4.116   3.809  15.713  0.00  0.00    +0.000 OA
ATOM     12  N   UNL     1       5.730   5.211  16.600  0.00  0.00    +0.000 N 
ENDROOT
BRANCH  12  13
ATOM     13  N   UNL     1       4.806   5.478  17.671  0.00  0.00    +0.000 N 
ATOM     14  C   UNL     1       4.719   4.659  18.782  0.00  0.00    +0.000 C 
ATOM     15  O   UNL     1       5.529   3.806  19.113  0.00  0.00    +0.000 OA
ATOM     16  H   UNL     1       3.964   5.946  17.338  0.00  0.00    +0.000 HD
BRANCH  14  17
ATOM     17  C   UNL     1       3.551   4.856  19.665  0.00  0.00    +0.000 A 
ATOM     18  C   UNL     1       2.820   3.737  20.055  0.00  0.00    +0.000 A 
ATOM     19  N   UNL     1       1.647   3.797  20.736  0.00  0.00    +0.000 NA
ATOM     20  C   UNL     1       1.165   5.035  20.997  0.00  0.00    +0.000 A 
ATOM     21  C   UNL     1       1.829   6.204  20.645  0.00  0.00    +0.000 A 
ATOM     22 BR   UNL     1       1.049   7.884  21.000  0.00  0.00    +0.000 Br
ATOM     23  C   UNL     1       3.054   6.119  19.981  0.00  0.00    +0.000 A 
ENDBRANCH  14  17
ENDBRANCH  12  13
TORSDOF 2
ENDMDL
MODEL 3
REMARK VINA RESULT:      -7.4      1.908      2.460
REMARK  Name = 
REMARK  3 active torsions:
REMARK  status: ('A' for Active; 'I' for Inactive)
REMARK    1  A    between atoms: C_1  and  C_2
REMARK    2  A    between atoms: N_12  and  N_13
REMARK    3  A    between atoms: C_14  and  C_16
REMARK                            x       y       z     vdW  Elec       q    Type
REMARK                         _______ _______ _______ _____ _____    ______ ____
ROOT
ATOM      1  C   UNL     1       3.765   2.386  18.439  0.00  0.00    +0.000 C 
ATOM      2  C   UNL     1       3.536   3.866  18.593  0.00  0.00    +0.000 A 
ATOM      3  N   UNL     1       2.825   4.215  19.621  0.00  0.00    +0.000 NA
ATOM      4  C   UNL     1       2.481   5.555  19.797  0.00  0.00    +0.000 A 
ATOM      5  C   UNL     1       1.623   5.881  20.850  0.00  0.00    +0.000 A 
ATOM      6  C   UNL     1       1.159   7.189  21.009  0.00  0.00    +0.000 A 
ATOM      7  C   UNL     1       1.566   8.181  20.118  0.00  0.00    +0.000 A 
ATOM      8  C   UNL     1       2.445   7.868  19.074  0.00  0.00    +0.000 A 
ATOM      9  C   UNL     1       2.895   6.551  18.918  0.00  0.00    +0.000 A 
ATOM     10  C   UNL     1       3.747   6.139  17.780  0.00  0.00    +0.000 A 
ATOM     11  O   UNL     1       4.089   6.961  16.922  0.00  0.00    +0.000 OA
ATOM     12  N   UNL     1       4.048   4.777  17.686  0.00  0.00    +0.000 N 
ENDROOT
BRANCH  12  13
ATOM     13  N   UNL     1       4.646   4.403  16.432  0.00  0.00    +0.000 N 
ATOM     14  C   UNL     1       6.015   4.430  16.239  0.00  0.00    +0.000 C 
ATOM     15  O   UNL     1       6.864   4.517  17.114  0.00  0.00    +0.000 OA
ATOM     16  H   UNL     1       4.034   4.610  15.643  0.00  0.00    +0.000 HD
BRANCH  14  17
ATOM     17  C   UNL     1       6.494   4.314  14.847  0.00  0.00    +0.000 A 
ATOM     18  C   UNL     1       7.392   5.268  14.373  0.00  0.00    +0.000 A 
ATOM     19  N   UNL     1       7.787   5.359  13.078  0.00  0.00    +0.000 NA
ATOM     20  C   UNL     1       7.223   4.485  12.212  0.00  0.00    +0.000 A 
ATOM     21  C   UNL     1       6.320   3.502  12.599  0.00  0.00    +0.000 A 
ATOM     22 BR   UNL     1       5.543   2.364  11.309  0.00  0.00    +0.000 Br
ATOM     23  C   UNL     1       5.958   3.398  13.942  0.00  0.00    +0.000 A 
ENDBRANCH  14  17
ENDBRANCH  12  13
TORSDOF 2
ENDMDL
MODEL 4
REMARK VINA RESULT:      -7.2      3.156      3.703
REMARK  Name = 
REMARK  3 active torsions:
REMARK  status: ('A' for Active; 'I' for Inactive)
REMARK    1  A    between atoms: C_1  and  C_2
REMARK    2  A    between atoms: N_12  and  N_13
REMARK    3  A    between atoms: C_14  and  C_16
REMARK                            x       y       z     vdW  Elec       q    Type
REMARK                         _______ _______ _______ _____ _____    ______ ____
ROOT
ATOM      1  C   UNL     1       2.958   4.172  19.880  0.00  0.00    +0.000 C 
ATOM      2  C   UNL     1       2.639   5.625  19.648  0.00  0.00    +0.000 A 
ATOM      3  N   UNL     1       1.858   6.172  20.529  0.00  0.00    +0.000 NA
ATOM      4  C   UNL     1       1.432   7.488  20.349  0.00  0.00    +0.000 A 
ATOM      5  C   UNL     1       0.505   8.009  21.254  0.00  0.00    +0.000 A 
ATOM      6  C   UNL     1      -0.037   9.282  21.061  0.00  0.00    +0.000 A 
ATOM      7  C   UNL     1       0.359  10.045  19.964  0.00  0.00    +0.000 A 
ATOM      8  C   UNL     1       1.305   9.539  19.064  0.00  0.00    +0.000 A 
ATOM      9  C   UNL     1       1.835   8.258  19.262  0.00  0.00    +0.000 A 
ATOM     10  C   UNL     1       2.765   7.633  18.295  0.00  0.00    +0.000 A 
ATOM     11  O   UNL     1       3.104   8.235  17.270  0.00  0.00    +0.000 OA
ATOM     12  N   UNL     1       3.145   6.313  18.559  0.00  0.00    +0.000 N 
ENDROOT
BRANCH  12  13
ATOM     13  N   UNL     1       3.826   5.678  17.462  0.00  0.00    +0.000 N 
ATOM     14  C   UNL     1       5.174   5.377  17.516  0.00  0.00    +0.000 C 
ATOM     15  O   UNL     1       5.871   5.368  18.519  0.00  0.00    +0.000 OA
ATOM     16  H   UNL     1       3.413   5.928  16.564  0.00  0.00    +0.000 HD
BRANCH  14  17
ATOM     17  C   UNL     1       5.824   5.003  16.243  0.00  0.00    +0.000 A 
ATOM     18  C   UNL     1       7.099   5.499  15.979  0.00  0.00    +0.000 A 
ATOM     19  N   UNL     1       7.738   5.353  14.790  0.00  0.00    +0.000 NA
ATOM     20  C   UNL     1       7.050   4.723  13.810  0.00  0.00    +0.000 A 
ATOM     21  C   UNL     1       5.776   4.197  13.987  0.00  0.00    +0.000 A 
ATOM     22 BR   UNL     1       4.874   3.384  12.542  0.00  0.00    +0.000 Br
ATOM     23  C   UNL     1       5.153   4.321  15.229  0.00  0.00    +0.000 A 
ENDBRANCH  14  17
ENDBRANCH  12  13
TORSDOF 2
ENDMDL
MODEL 5
REMARK VINA RESULT:      -7.1      1.343      1.377
REMARK  Name = 
REMARK  3 active torsions:
REMARK  status: ('A' for Active; 'I' for Inactive)
REMARK    1  A    between atoms: C_1  and  C_2
REMARK    2  A    between atoms: N_12  and  N_13
REMARK    3  A    between atoms: C_14  and  C_16
REMARK                            x       y       z     vdW  Elec       q    Type
REMARK                         _______ _______ _______ _____ _____    ______ ____
ROOT
ATOM      1  C   UNL     1       4.264   6.798  17.298  0.00  0.00    +0.000 C 
ATOM      2  C   UNL     1       3.679   5.562  17.926  0.00  0.00    +0.000 A 
ATOM      3  N   UNL     1       3.169   5.725  19.108  0.00  0.00    +0.000 NA
ATOM      4  C   UNL     1       2.687   4.621  19.809  0.00  0.00    +0.000 A 
ATOM      5  C   UNL     1       2.248   4.813  21.121  0.00  0.00    +0.000 A 
ATOM      6  C   UNL     1       1.856   3.726  21.906  0.00  0.00    +0.000 A 
ATOM      7  C   UNL     1       1.891   2.439  21.373  0.00  0.00    +0.000 A 
ATOM      8  C   UNL     1       2.307   2.239  20.052  0.00  0.00    +0.000 A 
ATOM      9  C   UNL     1       2.707   3.335  19.277  0.00  0.00    +0.000 A 
ATOM     10  C   UNL     1       3.247   3.177  17.908  0.00  0.00    +0.000 A 
ATOM     11  O   UNL     1       3.362   2.053  17.404  0.00  0.00    +0.000 OA
ATOM     12  N   UNL     1       3.701   4.339  17.278  0.00  0.00    +0.000 N 
ENDROOT
BRANCH  12  13
ATOM     13  N   UNL     1       4.450   4.089  16.074  0.00  0.00    +0.000 N 
ATOM     14  C   UNL     1       5.828   4.192  16.038  0.00  0.00    +0.000 C 
ATOM     15  O   UNL     1       6.572   4.249  17.005  0.00  0.00    +0.000 OA
ATOM     16  H   UNL     1       3.916   4.328  15.239  0.00  0.00    +0.000 HD
BRANCH  14  17
ATOM     17  C   UNL     1       6.460   4.203  14.702  0.00  0.00    +0.000 A 
ATOM     18  C   UNL     1       7.273   5.283  14.363  0.00  0.00    +0.000 A 
ATOM     19  N   UNL     1       7.785   5.485  13.123  0.00  0.00    +0.000 NA
ATOM     20  C   UNL     1       7.430   4.591  12.171  0.00  0.00    +0.000 A 
ATOM     21  C   UNL     1       6.626   3.486  12.422  0.00  0.00    +0.000 A 
ATOM     22 BR   UNL     1       6.139   2.326  11.016  0.00  0.00    +0.000 Br
ATOM     23  C   UNL     1       6.142   3.274  13.713  0.00  0.00    +0.000 A 
ENDBRANCH  14  17
ENDBRANCH  12  13
TORSDOF 2
ENDMDL
MODEL 6
REMARK VINA RESULT:      -6.8      3.428      7.358
REMARK  Name = 
REMARK  3 active torsions:
REMARK  status: ('A' for Active; 'I' for Inactive)
REMARK    1  A    between atoms: C_1  and  C_2
REMARK    2  A    between atoms: N_12  and  N_13
REMARK    3  A    between atoms: C_14  and  C_16
REMARK                            x       y       z     vdW  Elec       q    Type
REMARK                         _______ _______ _______ _____ _____    ______ ____
ROOT
ATOM      1  C   UNL     1       7.106   6.889  17.671  0.00  0.00    +0.000 C 
ATOM      2  C   UNL     1       6.702   5.913  16.598  0.00  0.00    +0.000 A 
ATOM      3  N   UNL     1       7.476   5.879  15.556  0.00  0.00    +0.000 NA
ATOM      4  C   UNL     1       7.133   5.074  14.470  0.00  0.00    +0.000 A 
ATOM      5  C   UNL     1       7.926   5.145  13.323  0.00  0.00    +0.000 A 
ATOM      6  C   UNL     1       7.569   4.444  12.168  0.00  0.00    +0.000 A 
ATOM      7  C   UNL     1       6.419   3.656  12.164  0.00  0.00    +0.000 A 
ATOM      8  C   UNL     1       5.631   3.561  13.317  0.00  0.00    +0.000 A 
ATOM      9  C   UNL     1       5.993   4.277  14.466  0.00  0.00    +0.000 A 
ATOM     10  C   UNL     1       5.150   4.292  15.683  0.00  0.00    +0.000 A 
ATOM     11  O   UNL     1       4.086   3.664  15.717  0.00  0.00    +0.000 OA
ATOM     12  N   UNL     1       5.574   5.122  16.725  0.00  0.00    +0.000 N 
ENDROOT
BRANCH  12  13
ATOM     13  N   UNL     1       4.589   5.298  17.759  0.00  0.00    +0.000 N 
ATOM     14  C   UNL     1       3.738   6.388  17.778  0.00  0.00    +0.000 C 
ATOM     15  O   UNL     1       3.537   7.161  16.853  0.00  0.00    +0.000 OA
ATOM     16  H   UNL     1       4.893   4.897  18.645  0.00  0.00    +0.000 HD
BRANCH  14  17
ATOM     17  C   UNL     1       2.980   6.619  19.025  0.00  0.00    +0.000 A 
ATOM     18  C   UNL     1       2.686   5.525  19.834  0.00  0.00    +0.000 A 
ATOM     19  N   UNL     1       1.874   5.581  20.920  0.00  0.00    +0.000 NA
ATOM     20  C   UNL     1       1.296   6.777  21.178  0.00  0.00    +0.000 A 
ATOM     21  C   UNL     1       1.534   7.920  20.424  0.00  0.00    +0.000 A 
ATOM     22 BR   UNL     1       0.636   9.530  20.828  0.00  0.00    +0.000 Br
ATOM     23  C   UNL     1       2.404   7.850  19.336  0.00  0.00    +0.000 A 
ENDBRANCH  14  17
ENDBRANCH  12  13
TORSDOF 2
ENDMDL
MODEL 7
REMARK VINA RESULT:      -6.7      9.251     11.913
REMARK  Name = 
REMARK  3 active torsions:
REMARK  status: ('A' for Active; 'I' for Inactive)
REMARK    1  A    between atoms: C_1  and  C_2
REMARK    2  A    between atoms: N_12  and  N_13
REMARK    3  A    between atoms: C_14  and  C_16
REMARK                            x       y       z     vdW  Elec       q    Type
REMARK                         _______ _______ _______ _____ _____    ______ ____
ROOT
ATOM      1  C   UNL     1      -0.419  12.260  18.448  0.00  0.00    +0.000 C 
ATOM      2  C   UNL     1       0.213  11.047  19.078  0.00  0.00    +0.000 A 
ATOM      3  N   UNL     1       0.961  10.337  18.291  0.00  0.00    +0.000 NA
ATOM      4  C   UNL     1       1.514   9.145  18.758  0.00  0.00    +0.000 A 
ATOM      5  C   UNL     1       2.222   8.349  17.854  0.00  0.00    +0.000 A 
ATOM      6  C   UNL     1       2.704   7.096  18.238  0.00  0.00    +0.000 A 
ATOM      7  C   UNL     1       2.491   6.639  19.537  0.00  0.00    +0.000 A 
ATOM      8  C   UNL     1       1.803   7.440  20.457  0.00  0.00    +0.000 A 
ATOM      9  C   UNL     1       1.314   8.691  20.058  0.00  0.00    +0.000 A 
ATOM     10  C   UNL     1       0.499   9.540  20.955  0.00  0.00    +0.000 A 
ATOM     11  O   UNL     1       0.222   9.161  22.098  0.00  0.00    +0.000 OA
ATOM     12  N   UNL     1      -0.009  10.721  20.404  0.00  0.00    +0.000 N 
ENDROOT
BRANCH  12  13
ATOM     13  N   UNL     1      -1.000  11.362  21.228  0.00  0.00    +0.000 N 
ATOM     14  C   UNL     1      -0.685  12.426  22.054  0.00  0.00    +0.000 C 
ATOM     15  O   UNL     1       0.338  13.091  22.013  0.00  0.00    +0.000 OA
ATOM     16  H   UNL     1      -1.729  10.712  21.520  0.00  0.00    +0.000 HD
BRANCH  14  17
ATOM     17  C   UNL     1      -1.697  12.810  23.059  0.00  0.00    +0.000 A 
ATOM     18  C   UNL     1      -2.749  11.932  23.310  0.00  0.00    +0.000 A 
ATOM     19  N   UNL     1      -3.816  12.231  24.094  0.00  0.00    +0.000 NA
ATOM     20  C   UNL     1      -3.851  13.480  24.612  0.00  0.00    +0.000 A 
ATOM     21  C   UNL     1      -2.846  14.418  24.414  0.00  0.00    +0.000 A 
ATOM     22 BR   UNL     1      -3.011  16.156  25.132  0.00  0.00    +0.000 Br
ATOM     23  C   UNL     1      -1.737  14.077  23.639  0.00  0.00    +0.000 A 
ENDBRANCH  14  17
ENDBRANCH  12  13
TORSDOF 2
ENDMDL
MODEL 8
REMARK VINA RESULT:      -6.7      2.938      7.278
REMARK  Name = 
REMARK  3 active torsions:
REMARK  status: ('A' for Active; 'I' for Inactive)
REMARK    1  A    between atoms: C_1  and  C_2
REMARK    2  A    between atoms: N_12  and  N_13
REMARK    3  A    between atoms: C_14  and  C_16
REMARK                            x       y       z     vdW  Elec       q    Type
REMARK                         _______ _______ _______ _____ _____    ______ ____
ROOT
ATOM      1  C   UNL     1       7.300   6.938  17.271  0.00  0.00    +0.000 C 
ATOM      2  C   UNL     1       6.879   5.945  16.221  0.00  0.00    +0.000 A 
ATOM      3  N   UNL     1       7.649   5.877  15.178  0.00  0.00    +0.000 NA
ATOM      4  C   UNL     1       7.291   5.054  14.111  0.00  0.00    +0.000 A 
ATOM      5  C   UNL     1       8.081   5.088  12.960  0.00  0.00    +0.000 A 
ATOM      6  C   UNL     1       7.710   4.368  11.822  0.00  0.00    +0.000 A 
ATOM      7  C   UNL     1       6.549   3.597  11.838  0.00  0.00    +0.000 A 
ATOM      8  C   UNL     1       5.763   3.538  12.995  0.00  0.00    +0.000 A 
ATOM      9  C   UNL     1       6.140   4.273  14.127  0.00  0.00    +0.000 A 
ATOM     10  C   UNL     1       5.301   4.327  15.345  0.00  0.00    +0.000 A 
ATOM     11  O   UNL     1       4.228   3.715  15.397  0.00  0.00    +0.000 OA
ATOM     12  N   UNL     1       5.740   5.173  16.368  0.00  0.00    +0.000 N 
ENDROOT
BRANCH  12  13
ATOM     13  N   UNL     1       4.761   5.386  17.401  0.00  0.00    +0.000 N 
ATOM     14  C   UNL     1       4.741   4.624  18.556  0.00  0.00    +0.000 C 
ATOM     15  O   UNL     1       5.637   3.895  18.953  0.00  0.00    +0.000 OA
ATOM     16  H   UNL     1       3.879   5.729  17.023  0.00  0.00    +0.000 HD
BRANCH  14  17
ATOM     17  C   UNL     1       3.533   4.728  19.400  0.00  0.00    +0.000 A 
ATOM     18  C   UNL     1       2.992   5.990  19.629  0.00  0.00    +0.000 A 
ATOM     19  N   UNL     1       1.981   6.235  20.502  0.00  0.00    +0.000 NA
ATOM     20  C   UNL     1       1.525   5.174  21.208  0.00  0.00    +0.000 A 
ATOM     21  C   UNL     1       2.007   3.881  21.042  0.00  0.00    +0.000 A 
ATOM     22 BR   UNL     1       1.348   2.475  22.114  0.00  0.00    +0.000 Br
ATOM     23  C   UNL     1       3.018   3.644  20.110  0.00  0.00    +0.000 A 
ENDBRANCH  14  17
ENDBRANCH  12  13
TORSDOF 2
ENDMDL
MODEL 9
REMARK VINA RESULT:      -6.5      4.932      6.143
REMARK  Name = 
REMARK  3 active torsions:
REMARK  status: ('A' for Active; 'I' for Inactive)
REMARK    1  A    between atoms: C_1  and  C_2
REMARK    2  A    between atoms: N_12  and  N_13
REMARK    3  A    between atoms: C_14  and  C_16
REMARK                            x       y       z     vdW  Elec       q    Type
REMARK                         _______ _______ _______ _____ _____    ______ ____
ROOT
ATOM      1  C   UNL     1       1.900  10.089  17.513  0.00  0.00    +0.000 C 
ATOM      2  C   UNL     1       1.359   9.693  18.861  0.00  0.00    +0.000 A 
ATOM      3  N   UNL     1       0.522  10.530  19.393  0.00  0.00    +0.000 NA
ATOM      4  C   UNL     1       0.038  10.296  20.680  0.00  0.00    +0.000 A 
ATOM      5  C   UNL     1      -0.773  11.271  21.266  0.00  0.00    +0.000 A 
ATOM      6  C   UNL     1      -1.197  11.140  22.590  0.00  0.00    +0.000 A 
ATOM      7  C   UNL     1      -0.820  10.021  23.331  0.00  0.00    +0.000 A 
ATOM      8  C   UNL     1      -0.027   9.028  22.744  0.00  0.00    +0.000 A 
ATOM      9  C   UNL     1       0.401   9.175  21.419  0.00  0.00    +0.000 A 
ATOM     10  C   UNL     1       1.318   8.207  20.776  0.00  0.00    +0.000 A 
ATOM     11  O   UNL     1       1.738   7.227  21.402  0.00  0.00    +0.000 OA
ATOM     12  N   UNL     1       1.746   8.519  19.482  0.00  0.00    +0.000 N 
ENDROOT
BRANCH  12  13
ATOM     13  N   UNL     1       2.829   7.692  19.018  0.00  0.00    +0.000 N 
ATOM     14  C   UNL     1       2.604   6.490  18.372  0.00  0.00    +0.000 C 
ATOM     15  O   UNL     1       1.541   6.110  17.906  0.00  0.00    +0.000 OA
ATOM     16  H   UNL     1       3.658   7.788  19.603  0.00  0.00    +0.000 HD
BRANCH  14  17
ATOM     17  C   UNL     1       3.769   5.596  18.205  0.00  0.00    +0.000 A 
ATOM     18  C   UNL     1       4.549   5.310  19.323  0.00  0.00    +0.000 A 
ATOM     19  N   UNL     1       5.723   4.629  19.273  0.00  0.00    +0.000 NA
ATOM     20  C   UNL     1       6.154   4.260  18.045  0.00  0.00    +0.000 A 
ATOM     21  C   UNL     1       5.439   4.503  16.879  0.00  0.00    +0.000 A 
ATOM     22 BR   UNL     1       6.149   3.999  15.205  0.00  0.00    +0.000 Br
ATOM     23  C   UNL     1       4.215   5.168  16.955  0.00  0.00    +0.000 A 
ENDBRANCH  14  17
ENDBRANCH  12  13
TORSDOF 2
ENDMDL
