MODEL 1
REMARK VINA RESULT:      -9.2      0.000      0.000
REMARK  Name = 
REMARK  9 active torsions:
REMARK  status: ('A' for Active; 'I' for Inactive)
REMARK    1  A    between atoms: C_1  and  C_2
REMARK    2  A    between atoms: C_2  and  O_3
REMARK    3  A    between atoms: O_3  and  C_4
REMARK    4  A    between atoms: C_4  and  C_6
REMARK    5  A    between atoms: C_6  and  N_7
REMARK    6  A    between atoms: C_10  and  C_11
REMARK    7  A    between atoms: C_16  and  N_17
REMARK    8  A    between atoms: N_17  and  C_18
REMARK    9  A    between atoms: C_18  and  C_19
REMARK                            x       y       z     vdW  Elec       q    Type
REMARK                         _______ _______ _______ _____ _____    ______ ____
ROOT
ATOM      1  N   UNL     1       6.564   5.219  17.658  0.00  0.00    +0.000 N 
ATOM      2  C   UNL     1       5.501   5.106  18.557  0.00  0.00    +0.000 A 
ATOM      3  O   UNL     1       5.521   5.615  19.669  0.00  0.00    +0.000 OA
ATOM      4  C   UNL     1       4.289   4.297  18.086  0.00  0.00    +0.000 A 
ATOM      5  N   UNL     1       4.194   3.880  16.857  0.00  0.00    +0.000 NA
ATOM      6  C   UNL     1       5.204   4.194  15.940  0.00  0.00    +0.000 A 
ATOM      7  C   UNL     1       4.973   3.860  14.600  0.00  0.00    +0.000 A 
ATOM      8  C   UNL     1       5.950   4.065  13.632  0.00  0.00    +0.000 A 
ATOM      9  C   UNL     1       7.177   4.604  14.002  0.00  0.00    +0.000 A 
ATOM     10  C   UNL     1       7.408   4.979  15.331  0.00  0.00    +0.000 A 
ATOM     11  C   UNL     1       6.421   4.799  16.310  0.00  0.00    +0.000 A 
ENDROOT
BRANCH   4  12
ATOM     12  C   UNL     1       3.226   3.974  19.084  0.00  0.00    +0.000 A 
ATOM     13  C   UNL     1       2.822   2.618  19.120  0.00  0.00    +0.000 A 
ATOM     14  C   UNL     1       1.816   2.174  19.973  0.00  0.00    +0.000 A 
ATOM     15  C   UNL     1       1.162   3.091  20.775  0.00  0.00    +0.000 A 
ATOM     16  C   UNL     1       1.532   4.438  20.730  0.00  0.00    +0.000 A 
ATOM     17  C   UNL     1       2.585   4.922  19.918  0.00  0.00    +0.000 A 
BRANCH  17  18
ATOM     18  N   UNL     1       2.820   6.292  20.016  0.00  0.00    +0.000 N 
ATOM     19  H   UNL     1       3.703   6.551  20.442  0.00  0.00    +0.000 HD
BRANCH  18  20
ATOM     20  C   UNL     1       2.326   7.292  19.087  0.00  0.00    +0.000 C 
BRANCH  20  21
ATOM     21  C   UNL     1       1.550   8.357  19.830  0.00  0.00    +0.000 A 
ATOM     22  C   UNL     1       1.221   8.157  21.178  0.00  0.00    +0.000 A 
ATOM     23  C   UNL     1       0.561   9.150  21.900  0.00  0.00    +0.000 A 
ATOM     24  C   UNL     1       0.211  10.347  21.277  0.00  0.00    +0.000 A 
ATOM     25  C   UNL     1       0.505  10.544  19.929  0.00  0.00    +0.000 A 
ATOM     26  C   UNL     1       1.167   9.551  19.204  0.00  0.00    +0.000 A 
ENDBRANCH  20  21
ENDBRANCH  18  20
ENDBRANCH  17  18
ENDBRANCH   4  12
BRANCH   1  27
ATOM     27  C   UNL     1       7.724   5.951  18.149  0.00  0.00    +0.000 C 
BRANCH  27  28
ATOM     28  C   UNL     1       7.600   7.435  17.831  0.00  0.00    +0.000 C 
ATOM     29  O   UNL     1       6.913   7.914  16.938  0.00  0.00    +0.000 OA
BRANCH  28  30
ATOM     30  O   UNL     1       8.489   8.128  18.600  0.00  0.00    +0.000 OA
BRANCH  30  32
ATOM     31  C   UNL     1       9.290  10.201  19.442  0.00  0.00    +0.000 C 
ATOM     32  C   UNL     1       8.610   9.517  18.271  0.00  0.00    +0.000 C 
ENDBRANCH  30  32
ENDBRANCH  28  30
ENDBRANCH  27  28
ENDBRANCH   1  27
TORSDOF 8
ENDMDL
MODEL 2
REMARK VINA RESULT:      -7.9      1.069      1.605
REMARK  Name = 
REMARK  9 active torsions:
REMARK  status: ('A' for Active; 'I' for Inactive)
REMARK    1  A    between atoms: C_1  and  C_2
REMARK    2  A    between atoms: C_2  and  O_3
REMARK    3  A    between atoms: O_3  and  C_4
REMARK    4  A    between atoms: C_4  and  C_6
REMARK    5  A    between atoms: C_6  and  N_7
REMARK    6  A    between atoms: C_10  and  C_11
REMARK    7  A    between atoms: C_16  and  N_17
REMARK    8  A    between atoms: N_17  and  C_18
REMARK    9  A    between atoms: C_18  and  C_19
REMARK                            x       y       z     vdW  Elec       q    Type
REMARK                         _______ _______ _______ _____ _____    ______ ____
ROOT
ATOM      1  N   UNL     1       6.610   4.326  17.603  0.00  0.00    +0.000 N 
ATOM      2  C   UNL     1       5.491   4.210  18.430  0.00  0.00    +0.000 A 
ATOM      3  O   UNL     1       5.559   4.303  19.648  0.00  0.00    +0.000 OA
ATOM      4  C   UNL     1       4.151   3.948  17.737  0.00  0.00    +0.000 A 
ATOM      5  N   UNL     1       4.043   3.995  16.441  0.00  0.00    +0.000 NA
ATOM      6  C   UNL     1       5.164   4.314  15.665  0.00  0.00    +0.000 A 
ATOM      7  C   UNL     1       4.953   4.510  14.294  0.00  0.00    +0.000 A 
ATOM      8  C   UNL     1       6.018   4.755  13.434  0.00  0.00    +0.000 A 
ATOM      9  C   UNL     1       7.311   4.801  13.941  0.00  0.00    +0.000 A 
ATOM     10  C   UNL     1       7.532   4.647  15.315  0.00  0.00    +0.000 A 
ATOM     11  C   UNL     1       6.463   4.423  16.195  0.00  0.00    +0.000 A 
ENDROOT
BRANCH   4  12
ATOM     12  C   UNL     1       2.972   3.608  18.587  0.00  0.00    +0.000 A 
ATOM     13  C   UNL     1       2.372   2.354  18.318  0.00  0.00    +0.000 A 
ATOM     14  C   UNL     1       1.244   1.918  19.005  0.00  0.00    +0.000 A 
ATOM     15  C   UNL     1       0.664   2.751  19.944  0.00  0.00    +0.000 A 
ATOM     16  C   UNL     1       1.229   4.003  20.201  0.00  0.00    +0.000 A 
ATOM     17  C   UNL     1       2.406   4.463  19.565  0.00  0.00    +0.000 A 
BRANCH  17  18
ATOM     18  N   UNL     1       2.830   5.730  19.959  0.00  0.00    +0.000 N 
ATOM     19  H   UNL     1       3.512   6.169  19.349  0.00  0.00    +0.000 HD
BRANCH  18  20
ATOM     20  C   UNL     1       2.021   6.692  20.686  0.00  0.00    +0.000 C 
BRANCH  20  21
ATOM     21  C   UNL     1       1.772   7.916  19.834  0.00  0.00    +0.000 A 
ATOM     22  C   UNL     1       1.074   9.005  20.374  0.00  0.00    +0.000 A 
ATOM     23  C   UNL     1       0.887  10.167  19.629  0.00  0.00    +0.000 A 
ATOM     24  C   UNL     1       1.384  10.247  18.329  0.00  0.00    +0.000 A 
ATOM     25  C   UNL     1       2.053   9.159  17.769  0.00  0.00    +0.000 A 
ATOM     26  C   UNL     1       2.242   7.994  18.515  0.00  0.00    +0.000 A 
ENDBRANCH  20  21
ENDBRANCH  18  20
ENDBRANCH  17  18
ENDBRANCH   4  12
BRANCH   1  27
ATOM     27  C   UNL     1       7.879   4.525  18.290  0.00  0.00    +0.000 C 
BRANCH  27  28
ATOM     28  C   UNL     1       7.822   5.757  19.182  0.00  0.00    +0.000 C 
ATOM     29  O   UNL     1       7.875   5.751  20.405  0.00  0.00    +0.000 OA
BRANCH  28  30
ATOM     30  O   UNL     1       7.555   6.852  18.410  0.00  0.00    +0.000 OA
BRANCH  30  32
ATOM     31  C   UNL     1       7.981   9.079  17.701  0.00  0.00    +0.000 C 
ATOM     32  C   UNL     1       8.469   7.941  18.579  0.00  0.00    +0.000 C 
ENDBRANCH  30  32
ENDBRANCH  28  30
ENDBRANCH  27  28
ENDBRANCH   1  27
TORSDOF 8
ENDMDL
MODEL 3
REMARK VINA RESULT:      -7.8      0.826      1.156
REMARK  Name = 
REMARK  9 active torsions:
REMARK  status: ('A' for Active; 'I' for Inactive)
REMARK    1  A    between atoms: C_1  and  C_2
REMARK    2  A    between atoms: C_2  and  O_3
REMARK    3  A    between atoms: O_3  and  C_4
REMARK    4  A    between atoms: C_4  and  C_6
REMARK    5  A    between atoms: C_6  and  N_7
REMARK    6  A    between atoms: C_10  and  C_11
REMARK    7  A    between atoms: C_16  and  N_17
REMARK    8  A    between atoms: N_17  and  C_18
REMARK    9  A    between atoms: C_18  and  C_19
REMARK                            x       y       z     vdW  Elec       q    Type
REMARK                         _______ _______ _______ _____ _____    ______ ____
ROOT
ATOM      1  N   UNL     1       6.557   4.395  17.557  0.00  0.00    +0.000 N 
ATOM      2  C   UNL     1       5.460   4.321  18.418  0.00  0.00    +0.000 A 
ATOM      3  O   UNL     1       5.557   4.488  19.626  0.00  0.00    +0.000 OA
ATOM      4  C   UNL     1       4.106   4.007  17.776  0.00  0.00    +0.000 A 
ATOM      5  N   UNL     1       3.965   3.975  16.482  0.00  0.00    +0.000 NA
ATOM      6  C   UNL     1       5.063   4.255  15.660  0.00  0.00    +0.000 A 
ATOM      7  C   UNL     1       4.816   4.366  14.286  0.00  0.00    +0.000 A 
ATOM      8  C   UNL     1       5.856   4.566  13.386  0.00  0.00    +0.000 A 
ATOM      9  C   UNL     1       7.162   4.652  13.856  0.00  0.00    +0.000 A 
ATOM     10  C   UNL     1       7.418   4.584  15.231  0.00  0.00    +0.000 A 
ATOM     11  C   UNL     1       6.374   4.406  16.149  0.00  0.00    +0.000 A 
ENDROOT
BRANCH   4  12
ATOM     12  C   UNL     1       2.951   3.711  18.675  0.00  0.00    +0.000 A 
ATOM     13  C   UNL     1       2.344   2.446  18.485  0.00  0.00    +0.000 A 
ATOM     14  C   UNL     1       1.236   2.044  19.223  0.00  0.00    +0.000 A 
ATOM     15  C   UNL     1       0.683   2.923  20.137  0.00  0.00    +0.000 A 
ATOM     16  C   UNL     1       1.255   4.185  20.316  0.00  0.00    +0.000 A 
ATOM     17  C   UNL     1       2.413   4.612  19.625  0.00  0.00    +0.000 A 
BRANCH  17  18
ATOM     18  N   UNL     1       2.848   5.897  19.945  0.00  0.00    +0.000 N 
ATOM     19  H   UNL     1       3.653   5.943  20.560  0.00  0.00    +0.000 HD
BRANCH  18  20
ATOM     20  C   UNL     1       2.732   7.057  19.079  0.00  0.00    +0.000 C 
BRANCH  20  21
ATOM     21  C   UNL     1       1.785   8.068  19.685  0.00  0.00    +0.000 A 
ATOM     22  C   UNL     1       1.341   7.897  21.003  0.00  0.00    +0.000 A 
ATOM     23  C   UNL     1       0.519   8.848  21.604  0.00  0.00    +0.000 A 
ATOM     24  C   UNL     1       0.118   9.973  20.886  0.00  0.00    +0.000 A 
ATOM     25  C   UNL     1       0.526  10.139  19.563  0.00  0.00    +0.000 A 
ATOM     26  C   UNL     1       1.352   9.188  18.960  0.00  0.00    +0.000 A 
ENDBRANCH  20  21
ENDBRANCH  18  20
ENDBRANCH  17  18
ENDBRANCH   4  12
BRANCH   1  27
ATOM     27  C   UNL     1       7.840   4.645  18.198  0.00  0.00    +0.000 C 
BRANCH  27  28
ATOM     28  C   UNL     1       7.823   5.973  18.943  0.00  0.00    +0.000 C 
ATOM     29  O   UNL     1       8.232   6.153  20.082  0.00  0.00    +0.000 OA
BRANCH  28  30
ATOM     30  O   UNL     1       7.144   6.892  18.194  0.00  0.00    +0.000 OA
BRANCH  30  32
ATOM     31  C   UNL     1       8.213   9.009  18.056  0.00  0.00    +0.000 C 
ATOM     32  C   UNL     1       7.968   7.694  17.340  0.00  0.00    +0.000 C 
ENDBRANCH  30  32
ENDBRANCH  28  30
ENDBRANCH  27  28
ENDBRANCH   1  27
TORSDOF 8
ENDMDL
MODEL 4
REMARK VINA RESULT:      -7.7      2.377      5.158
REMARK  Name = 
REMARK  9 active torsions:
REMARK  status: ('A' for Active; 'I' for Inactive)
REMARK    1  A    between atoms: C_1  and  C_2
REMARK    2  A    between atoms: C_2  and  O_3
REMARK    3  A    between atoms: O_3  and  C_4
REMARK    4  A    between atoms: C_4  and  C_6
REMARK    5  A    between atoms: C_6  and  N_7
REMARK    6  A    between atoms: C_10  and  C_11
REMARK    7  A    between atoms: C_16  and  N_17
REMARK    8  A    between atoms: N_17  and  C_18
REMARK    9  A    between atoms: C_18  and  C_19
REMARK                            x       y       z     vdW  Elec       q    Type
REMARK                         _______ _______ _______ _____ _____    ______ ____
ROOT
ATOM      1  N   UNL     1       3.264   5.984  18.429  0.00  0.00    +0.000 N 
ATOM      2  C   UNL     1       2.690   7.178  18.874  0.00  0.00    +0.000 A 
ATOM      3  O   UNL     1       2.937   8.260  18.360  0.00  0.00    +0.000 OA
ATOM      4  C   UNL     1       1.726   7.073  20.059  0.00  0.00    +0.000 A 
ATOM      5  N   UNL     1       1.342   5.916  20.515  0.00  0.00    +0.000 NA
ATOM      6  C   UNL     1       1.797   4.745  19.900  0.00  0.00    +0.000 A 
ATOM      7  C   UNL     1       1.227   3.539  20.327  0.00  0.00    +0.000 A 
ATOM      8  C   UNL     1       1.671   2.320  19.827  0.00  0.00    +0.000 A 
ATOM      9  C   UNL     1       2.700   2.298  18.892  0.00  0.00    +0.000 A 
ATOM     10  C   UNL     1       3.252   3.497  18.427  0.00  0.00    +0.000 A 
ATOM     11  C   UNL     1       2.796   4.733  18.907  0.00  0.00    +0.000 A 
ENDROOT
BRANCH   4  12
ATOM     12  C   UNL     1       1.256   8.338  20.699  0.00  0.00    +0.000 A 
ATOM     13  C   UNL     1       1.408   8.397  22.106  0.00  0.00    +0.000 A 
ATOM     14  C   UNL     1       0.982   9.497  22.844  0.00  0.00    +0.000 A 
ATOM     15  C   UNL     1       0.353  10.541  22.192  0.00  0.00    +0.000 A 
ATOM     16  C   UNL     1       0.173  10.485  20.808  0.00  0.00    +0.000 A 
ATOM     17  C   UNL     1       0.638   9.411  20.013  0.00  0.00    +0.000 A 
BRANCH  17  18
ATOM     18  N   UNL     1       0.380   9.535  18.649  0.00  0.00    +0.000 N 
ATOM     19  H   UNL     1       0.003   8.707  18.201  0.00  0.00    +0.000 HD
BRANCH  18  20
ATOM     20  C   UNL     1      -0.008  10.764  17.981  0.00  0.00    +0.000 C 
BRANCH  20  21
ATOM     21  C   UNL     1      -1.504  10.788  17.760  0.00  0.00    +0.000 A 
ATOM     22  C   UNL     1      -2.085   9.877  16.867  0.00  0.00    +0.000 A 
ATOM     23  C   UNL     1      -3.467   9.838  16.694  0.00  0.00    +0.000 A 
ATOM     24  C   UNL     1      -4.282  10.721  17.401  0.00  0.00    +0.000 A 
ATOM     25  C   UNL     1      -3.713  11.653  18.267  0.00  0.00    +0.000 A 
ATOM     26  C   UNL     1      -2.329  11.693  18.443  0.00  0.00    +0.000 A 
ENDBRANCH  20  21
ENDBRANCH  18  20
ENDBRANCH  17  18
ENDBRANCH   4  12
BRANCH   1  27
ATOM     27  C   UNL     1       4.214   6.117  17.333  0.00  0.00    +0.000 C 
BRANCH  27  28
ATOM     28  C   UNL     1       5.642   6.164  17.859  0.00  0.00    +0.000 C 
ATOM     29  O   UNL     1       6.083   5.486  18.779  0.00  0.00    +0.000 OA
BRANCH  28  30
ATOM     30  O   UNL     1       6.308   7.185  17.243  0.00  0.00    +0.000 OA
BRANCH  30  32
ATOM     31  C   UNL     1       7.921   8.858  17.740  0.00  0.00    +0.000 C 
ATOM     32  C   UNL     1       7.661   7.364  17.677  0.00  0.00    +0.000 C 
ENDBRANCH  30  32
ENDBRANCH  28  30
ENDBRANCH  27  28
ENDBRANCH   1  27
TORSDOF 8
ENDMDL
MODEL 5
REMARK VINA RESULT:      -7.5      1.184      1.639
REMARK  Name = 
REMARK  9 active torsions:
REMARK  status: ('A' for Active; 'I' for Inactive)
REMARK    1  A    between atoms: C_1  and  C_2
REMARK    2  A    between atoms: C_2  and  O_3
REMARK    3  A    between atoms: O_3  and  C_4
REMARK    4  A    between atoms: C_4  and  C_6
REMARK    5  A    between atoms: C_6  and  N_7
REMARK    6  A    between atoms: C_10  and  C_11
REMARK    7  A    between atoms: C_16  and  N_17
REMARK    8  A    between atoms: N_17  and  C_18
REMARK    9  A    between atoms: C_18  and  C_19
REMARK                            x       y       z     vdW  Elec       q    Type
REMARK                         _______ _______ _______ _____ _____    ______ ____
ROOT
ATOM      1  N   UNL     1       6.370   5.654  16.427  0.00  0.00    +0.000 N 
ATOM      2  C   UNL     1       5.277   5.415  17.263  0.00  0.00    +0.000 A 
ATOM      3  O   UNL     1       5.075   6.058  18.284  0.00  0.00    +0.000 OA
ATOM      4  C   UNL     1       4.329   4.288  16.844  0.00  0.00    +0.000 A 
ATOM      5  N   UNL     1       4.450   3.701  15.689  0.00  0.00    +0.000 NA
ATOM      6  C   UNL     1       5.448   4.119  14.801  0.00  0.00    +0.000 A 
ATOM      7  C   UNL     1       5.428   3.565  13.515  0.00  0.00    +0.000 A 
ATOM      8  C   UNL     1       6.424   3.864  12.592  0.00  0.00    +0.000 A 
ATOM      9  C   UNL     1       7.458   4.721  12.953  0.00  0.00    +0.000 A 
ATOM     10  C   UNL     1       7.468   5.313  14.221  0.00  0.00    +0.000 A 
ATOM     11  C   UNL     1       6.456   5.037  15.152  0.00  0.00    +0.000 A 
ENDROOT
BRANCH   4  12
ATOM     12  C   UNL     1       3.273   3.859  17.809  0.00  0.00    +0.000 A 
ATOM     13  C   UNL     1       3.159   2.461  18.000  0.00  0.00    +0.000 A 
ATOM     14  C   UNL     1       2.198   1.911  18.841  0.00  0.00    +0.000 A 
ATOM     15  C   UNL     1       1.298   2.750  19.473  0.00  0.00    +0.000 A 
ATOM     16  C   UNL     1       1.382   4.131  19.273  0.00  0.00    +0.000 A 
ATOM     17  C   UNL     1       2.377   4.735  18.470  0.00  0.00    +0.000 A 
BRANCH  17  18
ATOM     18  N   UNL     1       2.313   6.125  18.400  0.00  0.00    +0.000 N 
ATOM     19  H   UNL     1       1.660   6.495  17.717  0.00  0.00    +0.000 HD
BRANCH  18  20
ATOM     20  C   UNL     1       2.538   7.028  19.514  0.00  0.00    +0.000 C 
BRANCH  20  21
ATOM     21  C   UNL     1       1.666   8.256  19.376  0.00  0.00    +0.000 A 
ATOM     22  C   UNL     1       1.602   8.923  18.145  0.00  0.00    +0.000 A 
ATOM     23  C   UNL     1       0.758  10.019  17.976  0.00  0.00    +0.000 A 
ATOM     24  C   UNL     1      -0.021  10.467  19.042  0.00  0.00    +0.000 A 
ATOM     25  C   UNL     1       0.057   9.831  20.280  0.00  0.00    +0.000 A 
ATOM     26  C   UNL     1       0.902   8.733  20.451  0.00  0.00    +0.000 A 
ENDBRANCH  20  21
ENDBRANCH  18  20
ENDBRANCH  17  18
ENDBRANCH   4  12
BRANCH   1  27
ATOM     27  C   UNL     1       7.283   6.697  16.874  0.00  0.00    +0.000 C 
BRANCH  27  28
ATOM     28  C   UNL     1       7.947   6.308  18.188  0.00  0.00    +0.000 C 
ATOM     29  O   UNL     1       8.016   5.172  18.638  0.00  0.00    +0.000 OA
BRANCH  28  30
ATOM     30  O   UNL     1       8.317   7.443  18.850  0.00  0.00    +0.000 OA
BRANCH  30  32
ATOM     31  C   UNL     1       9.015   9.714  18.783  0.00  0.00    +0.000 C 
ATOM     32  C   UNL     1       8.183   8.650  18.091  0.00  0.00    +0.000 C 
ENDBRANCH  30  32
ENDBRANCH  28  30
ENDBRANCH  27  28
ENDBRANCH   1  27
TORSDOF 8
ENDMDL
MODEL 6
REMARK VINA RESULT:      -7.5      2.574      5.254
REMARK  Name = 
REMARK  9 active torsions:
REMARK  status: ('A' for Active; 'I' for Inactive)
REMARK    1  A    between atoms: C_1  and  C_2
REMARK    2  A    between atoms: C_2  and  O_3
REMARK    3  A    between atoms: O_3  and  C_4
REMARK    4  A    between atoms: C_4  and  C_6
REMARK    5  A    between atoms: C_6  and  N_7
REMARK    6  A    between atoms: C_10  and  C_11
REMARK    7  A    between atoms: C_16  and  N_17
REMARK    8  A    between atoms: N_17  and  C_18
REMARK    9  A    between atoms: C_18  and  C_19
REMARK                            x       y       z     vdW  Elec       q    Type
REMARK                         _______ _______ _______ _____ _____    ______ ____
ROOT
ATOM      1  N   UNL     1       3.444   6.530  17.814  0.00  0.00    +0.000 N 
ATOM      2  C   UNL     1       2.789   7.600  18.427  0.00  0.00    +0.000 A 
ATOM      3  O   UNL     1       2.896   8.753  18.032  0.00  0.00    +0.000 OA
ATOM      4  C   UNL     1       1.920   7.265  19.643  0.00  0.00    +0.000 A 
ATOM      5  N   UNL     1       1.680   6.031  19.980  0.00  0.00    +0.000 NA
ATOM      6  C   UNL     1       2.204   4.988  19.206  0.00  0.00    +0.000 A 
ATOM      7  C   UNL     1       1.781   3.691  19.518  0.00  0.00    +0.000 A 
ATOM      8  C   UNL     1       2.306   2.587  18.854  0.00  0.00    +0.000 A 
ATOM      9  C   UNL     1       3.268   2.776  17.868  0.00  0.00    +0.000 A 
ATOM     10  C   UNL     1       3.670   4.071  17.518  0.00  0.00    +0.000 A 
ATOM     11  C   UNL     1       3.130   5.191  18.165  0.00  0.00    +0.000 A 
ENDROOT
BRANCH   4  12
ATOM     12  C   UNL     1       1.375   8.394  20.453  0.00  0.00    +0.000 A 
ATOM     13  C   UNL     1       1.610   8.309  21.847  0.00  0.00    +0.000 A 
ATOM     14  C   UNL     1       1.130   9.269  22.732  0.00  0.00    +0.000 A 
ATOM     15  C   UNL     1       0.365  10.312  22.244  0.00  0.00    +0.000 A 
ATOM     16  C   UNL     1       0.103  10.395  20.874  0.00  0.00    +0.000 A 
ATOM     17  C   UNL     1       0.616   9.471  19.933  0.00  0.00    +0.000 A 
BRANCH  17  18
ATOM     18  N   UNL     1       0.262   9.722  18.609  0.00  0.00    +0.000 N 
ATOM     19  H   UNL     1      -0.150   8.939  18.114  0.00  0.00    +0.000 HD
BRANCH  18  20
ATOM     20  C   UNL     1      -0.168  11.008  18.090  0.00  0.00    +0.000 C 
BRANCH  20  21
ATOM     21  C   UNL     1      -1.654  10.988  17.810  0.00  0.00    +0.000 A 
ATOM     22  C   UNL     1      -2.149  10.204  16.759  0.00  0.00    +0.000 A 
ATOM     23  C   UNL     1      -3.519  10.120  16.522  0.00  0.00    +0.000 A 
ATOM     24  C   UNL     1      -4.408  10.834  17.324  0.00  0.00    +0.000 A 
ATOM     25  C   UNL     1      -3.926  11.642  18.352  0.00  0.00    +0.000 A 
ATOM     26  C   UNL     1      -2.554  11.726  18.592  0.00  0.00    +0.000 A 
ENDBRANCH  20  21
ENDBRANCH  18  20
ENDBRANCH  17  18
ENDBRANCH   4  12
BRANCH   1  27
ATOM     27  C   UNL     1       4.302   6.882  16.691  0.00  0.00    +0.000 C 
BRANCH  27  28
ATOM     28  C   UNL     1       5.734   6.433  16.944  0.00  0.00    +0.000 C 
ATOM     29  O   UNL     1       6.318   6.495  18.018  0.00  0.00    +0.000 OA
BRANCH  28  30
ATOM     30  O   UNL     1       6.309   6.090  15.753  0.00  0.00    +0.000 OA
BRANCH  30  32
ATOM     31  C   UNL     1       6.177   3.988  14.654  0.00  0.00    +0.000 C 
ATOM     32  C   UNL     1       6.897   4.785  15.726  0.00  0.00    +0.000 C 
ENDBRANCH  30  32
ENDBRANCH  28  30
ENDBRANCH  27  28
ENDBRANCH   1  27
TORSDOF 8
ENDMDL
MODEL 7
REMARK VINA RESULT:      -7.4      2.758      7.765
REMARK  Name = 
REMARK  9 active torsions:
REMARK  status: ('A' for Active; 'I' for Inactive)
REMARK    1  A    between atoms: C_1  and  C_2
REMARK    2  A    between atoms: C_2  and  O_3
REMARK    3  A    between atoms: O_3  and  C_4
REMARK    4  A    between atoms: C_4  and  C_6
REMARK    5  A    between atoms: C_6  and  N_7
REMARK    6  A    between atoms: C_10  and  C_11
REMARK    7  A    between atoms: C_16  and  N_17
REMARK    8  A    between atoms: N_17  and  C_18
REMARK    9  A    between atoms: C_18  and  C_19
REMARK                            x       y       z     vdW  Elec       q    Type
REMARK                         _______ _______ _______ _____ _____    ______ ____
ROOT
ATOM      1  N   UNL     1       1.182   9.221  19.484  0.00  0.00    +0.000 N 
ATOM      2  C   UNL     1       1.766   7.962  19.322  0.00  0.00    +0.000 A 
ATOM      3  O   UNL     1       2.451   7.673  18.351  0.00  0.00    +0.000 OA
ATOM      4  C   UNL     1       1.499   6.937  20.428  0.00  0.00    +0.000 A 
ATOM      5  N   UNL     1       0.899   7.278  21.532  0.00  0.00    +0.000 NA
ATOM      6  C   UNL     1       0.510   8.609  21.725  0.00  0.00    +0.000 A 
ATOM      7  C   UNL     1       0.017   8.950  22.991  0.00  0.00    +0.000 A 
ATOM      8  C   UNL     1      -0.464  10.228  23.251  0.00  0.00    +0.000 A 
ATOM      9  C   UNL     1      -0.461  11.180  22.238  0.00  0.00    +0.000 A 
ATOM     10  C   UNL     1       0.065  10.865  20.979  0.00  0.00    +0.000 A 
ATOM     11  C   UNL     1       0.574   9.586  20.713  0.00  0.00    +0.000 A 
ENDROOT
BRANCH   4  12
ATOM     12  C   UNL     1       1.923   5.525  20.197  0.00  0.00    +0.000 A 
ATOM     13  C   UNL     1       0.915   4.549  20.396  0.00  0.00    +0.000 A 
ATOM     14  C   UNL     1       1.171   3.190  20.254  0.00  0.00    +0.000 A 
ATOM     15  C   UNL     1       2.456   2.775  19.954  0.00  0.00    +0.000 A 
ATOM     16  C   UNL     1       3.466   3.725  19.781  0.00  0.00    +0.000 A 
ATOM     17  C   UNL     1       3.238   5.118  19.864  0.00  0.00    +0.000 A 
BRANCH  17  18
ATOM     18  N   UNL     1       4.362   5.912  19.648  0.00  0.00    +0.000 N 
ATOM     19  H   UNL     1       4.449   6.717  20.258  0.00  0.00    +0.000 HD
BRANCH  18  20
ATOM     20  C   UNL     1       5.643   5.431  19.162  0.00  0.00    +0.000 C 
BRANCH  20  21
ATOM     21  C   UNL     1       5.618   5.310  17.655  0.00  0.00    +0.000 A 
ATOM     22  C   UNL     1       5.243   6.416  16.879  0.00  0.00    +0.000 A 
ATOM     23  C   UNL     1       5.273   6.348  15.488  0.00  0.00    +0.000 A 
ATOM     24  C   UNL     1       5.664   5.167  14.858  0.00  0.00    +0.000 A 
ATOM     25  C   UNL     1       6.009   4.051  15.618  0.00  0.00    +0.000 A 
ATOM     26  C   UNL     1       5.981   4.118  17.012  0.00  0.00    +0.000 A 
ENDBRANCH  20  21
ENDBRANCH  18  20
ENDBRANCH  17  18
ENDBRANCH   4  12
BRANCH   1  27
ATOM     27  C   UNL     1       1.410  10.161  18.394  0.00  0.00    +0.000 C 
BRANCH  27  28
ATOM     28  C   UNL     1       0.107  10.828  17.976  0.00  0.00    +0.000 C 
ATOM     29  O   UNL     1      -0.157  12.016  18.110  0.00  0.00    +0.000 OA
BRANCH  28  30
ATOM     30  O   UNL     1      -0.773   9.867  17.567  0.00  0.00    +0.000 OA
BRANCH  30  32
ATOM     31  C   UNL     1      -2.989   9.861  16.712  0.00  0.00    +0.000 C 
ATOM     32  C   UNL     1      -2.134  10.103  17.942  0.00  0.00    +0.000 C 
ENDBRANCH  30  32
ENDBRANCH  28  30
ENDBRANCH  27  28
ENDBRANCH   1  27
TORSDOF 8
ENDMDL
MODEL 8
REMARK VINA RESULT:      -7.4      2.520      5.574
REMARK  Name = 
REMARK  9 active torsions:
REMARK  status: ('A' for Active; 'I' for Inactive)
REMARK    1  A    between atoms: C_1  and  C_2
REMARK    2  A    between atoms: C_2  and  O_3
REMARK    3  A    between atoms: O_3  and  C_4
REMARK    4  A    between atoms: C_4  and  C_6
REMARK    5  A    between atoms: C_6  and  N_7
REMARK    6  A    between atoms: C_10  and  C_11
REMARK    7  A    between atoms: C_16  and  N_17
REMARK    8  A    between atoms: N_17  and  C_18
REMARK    9  A    between atoms: C_18  and  C_19
REMARK                            x       y       z     vdW  Elec       q    Type
REMARK                         _______ _______ _______ _____ _____    ______ ____
ROOT
ATOM      1  N   UNL     1       3.151   6.199  18.542  0.00  0.00    +0.000 N 
ATOM      2  C   UNL     1       2.523   7.362  18.995  0.00  0.00    +0.000 A 
ATOM      3  O   UNL     1       2.707   8.454  18.477  0.00  0.00    +0.000 OA
ATOM      4  C   UNL     1       1.585   7.210  20.195  0.00  0.00    +0.000 A 
ATOM      5  N   UNL     1       1.267   6.035  20.657  0.00  0.00    +0.000 NA
ATOM      6  C   UNL     1       1.773   4.887  20.035  0.00  0.00    +0.000 A 
ATOM      7  C   UNL     1       1.271   3.655  20.472  0.00  0.00    +0.000 A 
ATOM      8  C   UNL     1       1.769   2.459  19.966  0.00  0.00    +0.000 A 
ATOM      9  C   UNL     1       2.784   2.489  19.016  0.00  0.00    +0.000 A 
ATOM     10  C   UNL     1       3.267   3.714  18.541  0.00  0.00    +0.000 A 
ATOM     11  C   UNL     1       2.755   4.925  19.028  0.00  0.00    +0.000 A 
ENDROOT
BRANCH   4  12
ATOM     12  C   UNL     1       1.060   8.449  20.841  0.00  0.00    +0.000 A 
ATOM     13  C   UNL     1       1.198   8.503  22.249  0.00  0.00    +0.000 A 
ATOM     14  C   UNL     1       0.724   9.578  22.993  0.00  0.00    +0.000 A 
ATOM     15  C   UNL     1       0.059  10.603  22.345  0.00  0.00    +0.000 A 
ATOM     16  C   UNL     1      -0.108  10.551  20.958  0.00  0.00    +0.000 A 
ATOM     17  C   UNL     1       0.405   9.503  20.158  0.00  0.00    +0.000 A 
BRANCH  17  18
ATOM     18  N   UNL     1       0.154   9.628  18.794  0.00  0.00    +0.000 N 
ATOM     19  H   UNL     1      -0.225   8.802  18.345  0.00  0.00    +0.000 HD
BRANCH  18  20
ATOM     20  C   UNL     1      -0.226  10.860  18.125  0.00  0.00    +0.000 C 
BRANCH  20  21
ATOM     21  C   UNL     1      -1.689  10.816  17.743  0.00  0.00    +0.000 A 
ATOM     22  C   UNL     1      -2.617  11.573  18.472  0.00  0.00    +0.000 A 
ATOM     23  C   UNL     1      -3.959  11.598  18.100  0.00  0.00    +0.000 A 
ATOM     24  C   UNL     1      -4.391  10.853  17.003  0.00  0.00    +0.000 A 
ATOM     25  C   UNL     1      -3.484  10.071  16.290  0.00  0.00    +0.000 A 
ATOM     26  C   UNL     1      -2.138  10.046  16.660  0.00  0.00    +0.000 A 
ENDBRANCH  20  21
ENDBRANCH  18  20
ENDBRANCH  17  18
ENDBRANCH   4  12
BRANCH   1  27
ATOM     27  C   UNL     1       4.076   6.379  17.432  0.00  0.00    +0.000 C 
BRANCH  27  28
ATOM     28  C   UNL     1       5.483   5.949  17.826  0.00  0.00    +0.000 C 
ATOM     29  O   UNL     1       5.913   5.891  18.970  0.00  0.00    +0.000 OA
BRANCH  28  30
ATOM     30  O   UNL     1       6.229   5.782  16.694  0.00  0.00    +0.000 OA
BRANCH  30  32
ATOM     31  C   UNL     1       6.108   4.019  15.106  0.00  0.00    +0.000 C 
ATOM     32  C   UNL     1       5.491   5.331  15.552  0.00  0.00    +0.000 C 
ENDBRANCH  30  32
ENDBRANCH  28  30
ENDBRANCH  27  28
ENDBRANCH   1  27
TORSDOF 8
ENDMDL
MODEL 9
REMARK VINA RESULT:      -7.4      2.540      5.218
REMARK  Name = 
REMARK  9 active torsions:
REMARK  status: ('A' for Active; 'I' for Inactive)
REMARK    1  A    between atoms: C_1  and  C_2
REMARK    2  A    between atoms: C_2  and  O_3
REMARK    3  A    between atoms: O_3  and  C_4
REMARK    4  A    between atoms: C_4  and  C_6
REMARK    5  A    between atoms: C_6  and  N_7
REMARK    6  A    between atoms: C_10  and  C_11
REMARK    7  A    between atoms: C_16  and  N_17
REMARK    8  A    between atoms: N_17  and  C_18
REMARK    9  A    between atoms: C_18  and  C_19
REMARK                            x       y       z     vdW  Elec       q    Type
REMARK                         _______ _______ _______ _____ _____    ______ ____
ROOT
ATOM      1  N   UNL     1       3.355   6.228  18.175  0.00  0.00    +0.000 N 
ATOM      2  C   UNL     1       2.711   7.367  18.666  0.00  0.00    +0.000 A 
ATOM      3  O   UNL     1       2.844   8.471  18.156  0.00  0.00    +0.000 OA
ATOM      4  C   UNL     1       1.823   7.173  19.898  0.00  0.00    +0.000 A 
ATOM      5  N   UNL     1       1.558   5.984  20.357  0.00  0.00    +0.000 NA
ATOM      6  C   UNL     1       2.072   4.859  19.701  0.00  0.00    +0.000 A 
ATOM      7  C   UNL     1       1.624   3.607  20.140  0.00  0.00    +0.000 A 
ATOM      8  C   UNL     1       2.137   2.433  19.599  0.00  0.00    +0.000 A 
ATOM      9  C   UNL     1       3.114   2.504  18.613  0.00  0.00    +0.000 A 
ATOM     10  C   UNL     1       3.543   3.749  18.137  0.00  0.00    +0.000 A 
ATOM     11  C   UNL     1       3.015   4.938  18.658  0.00  0.00    +0.000 A 
ENDROOT
BRANCH   4  12
ATOM     12  C   UNL     1       1.288   8.388  20.580  0.00  0.00    +0.000 A 
ATOM     13  C   UNL     1       1.552   8.469  21.969  0.00  0.00    +0.000 A 
ATOM     14  C   UNL     1       1.085   9.526  22.744  0.00  0.00    +0.000 A 
ATOM     15  C   UNL     1       0.303  10.501  22.152  0.00  0.00    +0.000 A 
ATOM     16  C   UNL     1       0.013  10.419  20.788  0.00  0.00    +0.000 A 
ATOM     17  C   UNL     1       0.512   9.392  19.952  0.00  0.00    +0.000 A 
BRANCH  17  18
ATOM     18  N   UNL     1       0.128   9.484  18.616  0.00  0.00    +0.000 N 
ATOM     19  H   UNL     1      -0.366   8.678  18.250  0.00  0.00    +0.000 HD
BRANCH  18  20
ATOM     20  C   UNL     1      -0.213  10.716  17.928  0.00  0.00    +0.000 C 
BRANCH  20  21
ATOM     21  C   UNL     1      -1.694  10.753  17.626  0.00  0.00    +0.000 A 
ATOM     22  C   UNL     1      -2.552  11.479  18.462  0.00  0.00    +0.000 A 
ATOM     23  C   UNL     1      -3.911  11.579  18.168  0.00  0.00    +0.000 A 
ATOM     24  C   UNL     1      -4.428  10.939  17.043  0.00  0.00    +0.000 A 
ATOM     25  C   UNL     1      -3.590  10.188  16.221  0.00  0.00    +0.000 A 
ATOM     26  C   UNL     1      -2.228  10.088  16.513  0.00  0.00    +0.000 A 
ENDBRANCH  20  21
ENDBRANCH  18  20
ENDBRANCH  17  18
ENDBRANCH   4  12
BRANCH   1  27
ATOM     27  C   UNL     1       4.232   6.449  17.034  0.00  0.00    +0.000 C 
BRANCH  27  28
ATOM     28  C   UNL     1       5.639   6.806  17.494  0.00  0.00    +0.000 C 
ATOM     29  O   UNL     1       6.370   7.635  16.968  0.00  0.00    +0.000 OA
BRANCH  28  30
ATOM     30  O   UNL     1       6.009   5.950  18.493  0.00  0.00    +0.000 OA
BRANCH  30  32
ATOM     31  C   UNL     1       7.658   4.514  17.564  0.00  0.00    +0.000 C 
ATOM     32  C   UNL     1       7.409   5.652  18.537  0.00  0.00    +0.000 C 
ENDBRANCH  30  32
ENDBRANCH  28  30
ENDBRANCH  27  28
ENDBRANCH   1  27
TORSDOF 8
ENDMDL
