MODEL 1
REMARK VINA RESULT:      -7.6      0.000      0.000
REMARK  Name = 
REMARK  7 active torsions:
REMARK  status: ('A' for Active; 'I' for Inactive)
REMARK    1  A    between atoms: C_1  and  N_2
REMARK    2  A    between atoms: C_3  and  C_5
REMARK    3  A    between atoms: C_5  and  C_6
REMARK    4  A    between atoms: C_5  and  S_7
REMARK    5  A    between atoms: S_7  and  C_10
REMARK    6  A    between atoms: C_10  and  C_11
REMARK    7  A    between atoms: C_15  and  C_16
REMARK                            x       y       z     vdW  Elec       q    Type
REMARK                         _______ _______ _______ _____ _____    ______ ____
ROOT
ATOM      1  C   UNL     1       4.597   6.068  18.452  0.00  0.00    +0.000 C 
ENDROOT
BRANCH   1   2
ATOM      2  C   UNL     1       3.450   5.115  18.710  0.00  0.00    +0.000 A 
ATOM      3  C   UNL     1       2.560   4.777  17.676  0.00  0.00    +0.000 A 
ATOM      4  C   UNL     1       1.522   3.872  17.898  0.00  0.00    +0.000 A 
ATOM      5  C   UNL     1       1.349   3.298  19.152  0.00  0.00    +0.000 A 
ATOM      6  C   UNL     1       2.209   3.625  20.210  0.00  0.00    +0.000 A 
ATOM      7  C   UNL     1       3.261   4.533  19.975  0.00  0.00    +0.000 A 
BRANCH   6   8
ATOM      8  C   UNL     1       2.008   3.016  21.577  0.00  0.00    +0.000 C 
ATOM      9  F   UNL     1       2.311   3.863  22.602  0.00  0.00    +0.000 F 
ATOM     10  F   UNL     1       0.727   2.613  21.794  0.00  0.00    +0.000 F 
ATOM     11  F   UNL     1       2.785   1.912  21.771  0.00  0.00    +0.000 F 
ENDBRANCH   6   8
ENDBRANCH   1   2
BRANCH   1  12
ATOM     12  S   UNL     1       6.148   5.166  18.583  0.00  0.00    +0.000 S 
ATOM     13  O   UNL     1       5.889   3.776  18.238  0.00  0.00    +0.000 OA
ATOM     14  O   UNL     1       6.792   5.494  19.847  0.00  0.00    +0.000 OA
BRANCH  12  15
ATOM     15  C   UNL     1       7.174   5.828  17.282  0.00  0.00    +0.000 C 
ATOM     16  C   UNL     1       7.483   7.305  17.494  0.00  0.00    +0.000 C 
BRANCH  15  19
ATOM     17  C   UNL     1       6.145   3.985  14.115  0.00  0.00    +0.000 C 
ATOM     18  N   UNL     1       6.671   4.318  15.415  0.00  0.00    +0.000 N 
ATOM     19  C   UNL     1       6.522   5.579  15.945  0.00  0.00    +0.000 C 
ATOM     20  O   UNL     1       5.883   6.465  15.383  0.00  0.00    +0.000 OA
ATOM     21  H   UNL     1       7.418   3.725  15.780  0.00  0.00    +0.000 HD
ENDBRANCH  15  19
ENDBRANCH  12  15
ENDBRANCH   1  12
TORSDOF 5
ENDMDL
MODEL 2
REMARK VINA RESULT:      -7.4      1.737      2.777
REMARK  Name = 
REMARK  7 active torsions:
REMARK  status: ('A' for Active; 'I' for Inactive)
REMARK    1  A    between atoms: C_1  and  N_2
REMARK    2  A    between atoms: C_3  and  C_5
REMARK    3  A    between atoms: C_5  and  C_6
REMARK    4  A    between atoms: C_5  and  S_7
REMARK    5  A    between atoms: S_7  and  C_10
REMARK    6  A    between atoms: C_10  and  C_11
REMARK    7  A    between atoms: C_15  and  C_16
REMARK                            x       y       z     vdW  Elec       q    Type
REMARK                         _______ _______ _______ _____ _____    ______ ____
ROOT
ATOM      1  C   UNL     1       4.911   3.994  17.011  0.00  0.00    +0.000 C 
ENDROOT
BRANCH   1   2
ATOM      2  C   UNL     1       3.627   3.851  17.800  0.00  0.00    +0.000 A 
ATOM      3  C   UNL     1       2.386   4.097  17.187  0.00  0.00    +0.000 A 
ATOM      4  C   UNL     1       1.197   3.933  17.899  0.00  0.00    +0.000 A 
ATOM      5  C   UNL     1       1.226   3.531  19.229  0.00  0.00    +0.000 A 
ATOM      6  C   UNL     1       2.447   3.293  19.875  0.00  0.00    +0.000 A 
ATOM      7  C   UNL     1       3.643   3.451  19.147  0.00  0.00    +0.000 A 
BRANCH   6   8
ATOM      8  C   UNL     1       2.478   2.876  21.326  0.00  0.00    +0.000 C 
ATOM      9  F   UNL     1       3.577   2.141  21.659  0.00  0.00    +0.000 F 
ATOM     10  F   UNL     1       2.465   3.934  22.180  0.00  0.00    +0.000 F 
ATOM     11  F   UNL     1       1.404   2.107  21.667  0.00  0.00    +0.000 F 
ENDBRANCH   6   8
ENDBRANCH   1   2
BRANCH   1  12
ATOM     12  S   UNL     1       5.406   5.723  17.009  0.00  0.00    +0.000 S 
ATOM     13  O   UNL     1       4.963   6.319  18.261  0.00  0.00    +0.000 OA
ATOM     14  O   UNL     1       5.031   6.332  15.741  0.00  0.00    +0.000 OA
BRANCH  12  15
ATOM     15  C   UNL     1       7.190   5.688  17.069  0.00  0.00    +0.000 C 
ATOM     16  C   UNL     1       7.715   4.376  17.640  0.00  0.00    +0.000 C 
BRANCH  15  19
ATOM     17  C   UNL     1       8.030   9.311  17.876  0.00  0.00    +0.000 C 
ATOM     18  N   UNL     1       7.528   8.111  17.255  0.00  0.00    +0.000 N 
ATOM     19  C   UNL     1       7.695   6.878  17.845  0.00  0.00    +0.000 C 
ATOM     20  O   UNL     1       8.212   6.734  18.950  0.00  0.00    +0.000 OA
ATOM     21  H   UNL     1       7.350   8.146  16.251  0.00  0.00    +0.000 HD
ENDBRANCH  15  19
ENDBRANCH  12  15
ENDBRANCH   1  12
TORSDOF 5
ENDMDL
MODEL 3
REMARK VINA RESULT:      -7.2      1.400      1.907
REMARK  Name = 
REMARK  7 active torsions:
REMARK  status: ('A' for Active; 'I' for Inactive)
REMARK    1  A    between atoms: C_1  and  N_2
REMARK    2  A    between atoms: C_3  and  C_5
REMARK    3  A    between atoms: C_5  and  C_6
REMARK    4  A    between atoms: C_5  and  S_7
REMARK    5  A    between atoms: S_7  and  C_10
REMARK    6  A    between atoms: C_10  and  C_11
REMARK    7  A    between atoms: C_15  and  C_16
REMARK                            x       y       z     vdW  Elec       q    Type
REMARK                         _______ _______ _______ _____ _____    ______ ____
ROOT
ATOM      1  C   UNL     1       4.236   5.749  17.488  0.00  0.00    +0.000 C 
ENDROOT
BRANCH   1   2
ATOM      2  C   UNL     1       3.246   5.592  18.623  0.00  0.00    +0.000 A 
ATOM      3  C   UNL     1       2.853   6.707  19.382  0.00  0.00    +0.000 A 
ATOM      4  C   UNL     1       1.915   6.574  20.406  0.00  0.00    +0.000 A 
ATOM      5  C   UNL     1       1.362   5.332  20.695  0.00  0.00    +0.000 A 
ATOM      6  C   UNL     1       1.745   4.196  19.968  0.00  0.00    +0.000 A 
ATOM      7  C   UNL     1       2.686   4.340  18.929  0.00  0.00    +0.000 A 
BRANCH   6   8
ATOM      8  C   UNL     1       1.159   2.843  20.295  0.00  0.00    +0.000 C 
ATOM      9  F   UNL     1       1.988   1.803  19.997  0.00  0.00    +0.000 F 
ATOM     10  F   UNL     1       0.849   2.706  21.612  0.00  0.00    +0.000 F 
ATOM     11  F   UNL     1       0.004   2.600  19.612  0.00  0.00    +0.000 F 
ENDBRANCH   6   8
ENDBRANCH   1   2
BRANCH   1  12
ATOM     12  S   UNL     1       5.423   4.399  17.556  0.00  0.00    +0.000 S 
ATOM     13  O   UNL     1       4.851   3.262  16.851  0.00  0.00    +0.000 OA
ATOM     14  O   UNL     1       5.899   4.243  18.923  0.00  0.00    +0.000 OA
BRANCH  12  15
ATOM     15  C   UNL     1       6.807   4.958  16.577  0.00  0.00    +0.000 C 
ATOM     16  C   UNL     1       7.308   6.325  17.025  0.00  0.00    +0.000 C 
BRANCH  15  19
ATOM     17  C   UNL     1       6.187   3.611  13.071  0.00  0.00    +0.000 C 
ATOM     18  N   UNL     1       6.464   3.729  14.481  0.00  0.00    +0.000 N 
ATOM     19  C   UNL     1       6.431   4.949  15.116  0.00  0.00    +0.000 C 
ATOM     20  O   UNL     1       6.102   5.987  14.547  0.00  0.00    +0.000 OA
ATOM     21  H   UNL     1       6.993   2.972  14.915  0.00  0.00    +0.000 HD
ENDBRANCH  15  19
ENDBRANCH  12  15
ENDBRANCH   1  12
TORSDOF 5
ENDMDL
MODEL 4
REMARK VINA RESULT:      -7.2      1.236      1.683
REMARK  Name = 
REMARK  7 active torsions:
REMARK  status: ('A' for Active; 'I' for Inactive)
REMARK    1  A    between atoms: C_1  and  N_2
REMARK    2  A    between atoms: C_3  and  C_5
REMARK    3  A    between atoms: C_5  and  C_6
REMARK    4  A    between atoms: C_5  and  S_7
REMARK    5  A    between atoms: S_7  and  C_10
REMARK    6  A    between atoms: C_10  and  C_11
REMARK    7  A    between atoms: C_15  and  C_16
REMARK                            x       y       z     vdW  Elec       q    Type
REMARK                         _______ _______ _______ _____ _____    ______ ____
ROOT
ATOM      1  C   UNL     1       5.840   3.923  18.211  0.00  0.00    +0.000 C 
ENDROOT
BRANCH   1   2
ATOM      2  C   UNL     1       4.332   3.792  18.245  0.00  0.00    +0.000 A 
ATOM      3  C   UNL     1       3.609   3.600  17.055  0.00  0.00    +0.000 A 
ATOM      4  C   UNL     1       2.223   3.443  17.083  0.00  0.00    +0.000 A 
ATOM      5  C   UNL     1       1.537   3.485  18.291  0.00  0.00    +0.000 A 
ATOM      6  C   UNL     1       2.226   3.691  19.495  0.00  0.00    +0.000 A 
ATOM      7  C   UNL     1       3.627   3.839  19.459  0.00  0.00    +0.000 A 
BRANCH   6   8
ATOM      8  C   UNL     1       1.478   3.756  20.805  0.00  0.00    +0.000 C 
ATOM      9  F   UNL     1       0.895   2.577  21.160  0.00  0.00    +0.000 F 
ATOM     10  F   UNL     1       2.275   4.107  21.851  0.00  0.00    +0.000 F 
ATOM     11  F   UNL     1       0.469   4.673  20.781  0.00  0.00    +0.000 F 
ENDBRANCH   6   8
ENDBRANCH   1   2
BRANCH   1  12
ATOM     12  S   UNL     1       6.295   5.580  18.744  0.00  0.00    +0.000 S 
ATOM     13  O   UNL     1       7.124   5.457  19.935  0.00  0.00    +0.000 OA
ATOM     14  O   UNL     1       5.109   6.423  18.767  0.00  0.00    +0.000 OA
BRANCH  12  15
ATOM     15  C   UNL     1       7.358   6.201  17.451  0.00  0.00    +0.000 C 
ATOM     16  C   UNL     1       7.668   7.681  17.630  0.00  0.00    +0.000 C 
BRANCH  15  19
ATOM     17  C   UNL     1       6.959   4.756  13.952  0.00  0.00    +0.000 C 
ATOM     18  N   UNL     1       7.423   5.050  15.285  0.00  0.00    +0.000 N 
ATOM     19  C   UNL     1       6.739   5.917  16.106  0.00  0.00    +0.000 C 
ATOM     20  O   UNL     1       5.670   6.432  15.785  0.00  0.00    +0.000 OA
ATOM     21  H   UNL     1       8.409   4.874  15.483  0.00  0.00    +0.000 HD
ENDBRANCH  15  19
ENDBRANCH  12  15
ENDBRANCH   1  12
TORSDOF 5
ENDMDL
MODEL 5
REMARK VINA RESULT:      -7.1      1.898      2.347
REMARK  Name = 
REMARK  7 active torsions:
REMARK  status: ('A' for Active; 'I' for Inactive)
REMARK    1  A    between atoms: C_1  and  N_2
REMARK    2  A    between atoms: C_3  and  C_5
REMARK    3  A    between atoms: C_5  and  C_6
REMARK    4  A    between atoms: C_5  and  S_7
REMARK    5  A    between atoms: S_7  and  C_10
REMARK    6  A    between atoms: C_10  and  C_11
REMARK    7  A    between atoms: C_15  and  C_16
REMARK                            x       y       z     vdW  Elec       q    Type
REMARK                         _______ _______ _______ _____ _____    ______ ____
ROOT
ATOM      1  C   UNL     1       5.274   5.918  18.186  0.00  0.00    +0.000 C 
ENDROOT
BRANCH   1   2
ATOM      2  C   UNL     1       4.029   5.708  19.022  0.00  0.00    +0.000 A 
ATOM      3  C   UNL     1       3.052   6.714  19.105  0.00  0.00    +0.000 A 
ATOM      4  C   UNL     1       1.886   6.514  19.846  0.00  0.00    +0.000 A 
ATOM      5  C   UNL     1       1.681   5.315  20.520  0.00  0.00    +0.000 A 
ATOM      6  C   UNL     1       2.643   4.297  20.470  0.00  0.00    +0.000 A 
ATOM      7  C   UNL     1       3.813   4.504  19.713  0.00  0.00    +0.000 A 
BRANCH   6   8
ATOM      8  C   UNL     1       2.429   3.003  21.219  0.00  0.00    +0.000 C 
ATOM      9  F   UNL     1       1.443   2.224  20.692  0.00  0.00    +0.000 F 
ATOM     10  F   UNL     1       3.542   2.222  21.252  0.00  0.00    +0.000 F 
ATOM     11  F   UNL     1       2.079   3.210  22.521  0.00  0.00    +0.000 F 
ENDBRANCH   6   8
ENDBRANCH   1   2
BRANCH   1  12
ATOM     12  S   UNL     1       5.007   5.211  16.554  0.00  0.00    +0.000 S 
ATOM     13  O   UNL     1       5.003   6.300  15.587  0.00  0.00    +0.000 OA
ATOM     14  O   UNL     1       3.887   4.282  16.607  0.00  0.00    +0.000 OA
BRANCH  12  15
ATOM     15  C   UNL     1       6.475   4.250  16.226  0.00  0.00    +0.000 C 
ATOM     16  C   UNL     1       7.608   4.595  17.184  0.00  0.00    +0.000 C 
BRANCH  15  19
ATOM     17  C   UNL     1       6.578   3.687  12.463  0.00  0.00    +0.000 C 
ATOM     18  N   UNL     1       6.224   3.650  13.860  0.00  0.00    +0.000 N 
ATOM     19  C   UNL     1       6.885   4.425  14.786  0.00  0.00    +0.000 C 
ATOM     20  O   UNL     1       7.756   5.234  14.475  0.00  0.00    +0.000 OA
ATOM     21  H   UNL     1       5.722   2.825  14.191  0.00  0.00    +0.000 HD
ENDBRANCH  15  19
ENDBRANCH  12  15
ENDBRANCH   1  12
TORSDOF 5
ENDMDL
MODEL 6
REMARK VINA RESULT:      -7.1      1.301      1.632
REMARK  Name = 
REMARK  7 active torsions:
REMARK  status: ('A' for Active; 'I' for Inactive)
REMARK    1  A    between atoms: C_1  and  N_2
REMARK    2  A    between atoms: C_3  and  C_5
REMARK    3  A    between atoms: C_5  and  C_6
REMARK    4  A    between atoms: C_5  and  S_7
REMARK    5  A    between atoms: S_7  and  C_10
REMARK    6  A    between atoms: C_10  and  C_11
REMARK    7  A    between atoms: C_15  and  C_16
REMARK                            x       y       z     vdW  Elec       q    Type
REMARK                         _______ _______ _______ _____ _____    ______ ____
ROOT
ATOM      1  C   UNL     1       5.196   3.515  17.558  0.00  0.00    +0.000 C 
ENDROOT
BRANCH   1   2
ATOM      2  C   UNL     1       3.815   3.608  18.172  0.00  0.00    +0.000 A 
ATOM      3  C   UNL     1       2.716   4.001  17.391  0.00  0.00    +0.000 A 
ATOM      4  C   UNL     1       1.434   4.054  17.943  0.00  0.00    +0.000 A 
ATOM      5  C   UNL     1       1.232   3.727  19.278  0.00  0.00    +0.000 A 
ATOM      6  C   UNL     1       2.310   3.346  20.090  0.00  0.00    +0.000 A 
ATOM      7  C   UNL     1       3.599   3.285  19.523  0.00  0.00    +0.000 A 
BRANCH   6   8
ATOM      8  C   UNL     1       2.092   3.010  21.546  0.00  0.00    +0.000 C 
ATOM      9  F   UNL     1       2.905   2.016  22.004  0.00  0.00    +0.000 F 
ATOM     10  F   UNL     1       2.301   4.072  22.370  0.00  0.00    +0.000 F 
ATOM     11  F   UNL     1       0.819   2.588  21.795  0.00  0.00    +0.000 F 
ENDBRANCH   6   8
ENDBRANCH   1   2
BRANCH   1  12
ATOM     12  S   UNL     1       6.142   4.973  18.023  0.00  0.00    +0.000 S 
ATOM     13  O   UNL     1       7.491   4.544  18.362  0.00  0.00    +0.000 OA
ATOM     14  O   UNL     1       5.371   5.767  18.970  0.00  0.00    +0.000 OA
BRANCH  12  15
ATOM     15  C   UNL     1       6.277   5.928  16.521  0.00  0.00    +0.000 C 
ATOM     16  C   UNL     1       4.990   6.678  16.205  0.00  0.00    +0.000 C 
BRANCH  15  19
ATOM     17  C   UNL     1       5.999   3.817  13.367  0.00  0.00    +0.000 C 
ATOM     18  N   UNL     1       5.728   4.718  14.459  0.00  0.00    +0.000 N 
ATOM     19  C   UNL     1       6.697   5.031  15.385  0.00  0.00    +0.000 C 
ATOM     20  O   UNL     1       7.853   4.623  15.301  0.00  0.00    +0.000 OA
ATOM     21  H   UNL     1       4.750   4.853  14.719  0.00  0.00    +0.000 HD
ENDBRANCH  15  19
ENDBRANCH  12  15
ENDBRANCH   1  12
TORSDOF 5
ENDMDL
MODEL 7
REMARK VINA RESULT:      -7.1      1.888      2.475
REMARK  Name = 
REMARK  7 active torsions:
REMARK  status: ('A' for Active; 'I' for Inactive)
REMARK    1  A    between atoms: C_1  and  N_2
REMARK    2  A    between atoms: C_3  and  C_5
REMARK    3  A    between atoms: C_5  and  C_6
REMARK    4  A    between atoms: C_5  and  S_7
REMARK    5  A    between atoms: S_7  and  C_10
REMARK    6  A    between atoms: C_10  and  C_11
REMARK    7  A    between atoms: C_15  and  C_16
REMARK                            x       y       z     vdW  Elec       q    Type
REMARK                         _______ _______ _______ _____ _____    ______ ____
ROOT
ATOM      1  C   UNL     1       4.989   5.643  18.316  0.00  0.00    +0.000 C 
ENDROOT
BRANCH   1   2
ATOM      2  C   UNL     1       4.362   4.469  19.039  0.00  0.00    +0.000 A 
ATOM      3  C   UNL     1       5.134   3.341  19.364  0.00  0.00    +0.000 A 
ATOM      4  C   UNL     1       4.572   2.271  20.061  0.00  0.00    +0.000 A 
ATOM      5  C   UNL     1       3.235   2.305  20.438  0.00  0.00    +0.000 A 
ATOM      6  C   UNL     1       2.432   3.409  20.116  0.00  0.00    +0.000 A 
ATOM      7  C   UNL     1       3.009   4.489  19.419  0.00  0.00    +0.000 A 
BRANCH   6   8
ATOM      8  C   UNL     1       0.974   3.437  20.507  0.00  0.00    +0.000 C 
ATOM      9  F   UNL     1       0.473   4.695  20.658  0.00  0.00    +0.000 F 
ATOM     10  F   UNL     1       0.171   2.822  19.597  0.00  0.00    +0.000 F 
ATOM     11  F   UNL     1       0.744   2.805  21.694  0.00  0.00    +0.000 F 
ENDBRANCH   6   8
ENDBRANCH   1   2
BRANCH   1  12
ATOM     12  S   UNL     1       5.006   5.299  16.550  0.00  0.00    +0.000 S 
ATOM     13  O   UNL     1       5.144   6.566  15.847  0.00  0.00    +0.000 OA
ATOM     14  O   UNL     1       3.909   4.400  16.222  0.00  0.00    +0.000 OA
BRANCH  12  15
ATOM     15  C   UNL     1       6.524   4.399  16.275  0.00  0.00    +0.000 C 
ATOM     16  C   UNL     1       7.638   4.863  17.204  0.00  0.00    +0.000 C 
BRANCH  15  19
ATOM     17  C   UNL     1       6.594   3.665  12.541  0.00  0.00    +0.000 C 
ATOM     18  N   UNL     1       6.252   3.692  13.941  0.00  0.00    +0.000 N 
ATOM     19  C   UNL     1       6.922   4.508  14.825  0.00  0.00    +0.000 C 
ATOM     20  O   UNL     1       7.791   5.301  14.470  0.00  0.00    +0.000 OA
ATOM     21  H   UNL     1       5.752   2.884  14.314  0.00  0.00    +0.000 HD
ENDBRANCH  15  19
ENDBRANCH  12  15
ENDBRANCH   1  12
TORSDOF 5
ENDMDL
MODEL 8
REMARK VINA RESULT:      -7.1      1.163      1.264
REMARK  Name = 
REMARK  7 active torsions:
REMARK  status: ('A' for Active; 'I' for Inactive)
REMARK    1  A    between atoms: C_1  and  N_2
REMARK    2  A    between atoms: C_3  and  C_5
REMARK    3  A    between atoms: C_5  and  C_6
REMARK    4  A    between atoms: C_5  and  S_7
REMARK    5  A    between atoms: S_7  and  C_10
REMARK    6  A    between atoms: C_10  and  C_11
REMARK    7  A    between atoms: C_15  and  C_16
REMARK                            x       y       z     vdW  Elec       q    Type
REMARK                         _______ _______ _______ _____ _____    ______ ____
ROOT
ATOM      1  C   UNL     1       5.337   3.586  17.586  0.00  0.00    +0.000 C 
ENDROOT
BRANCH   1   2
ATOM      2  C   UNL     1       3.946   3.699  18.174  0.00  0.00    +0.000 A 
ATOM      3  C   UNL     1       2.874   4.142  17.381  0.00  0.00    +0.000 A 
ATOM      4  C   UNL     1       1.583   4.215  17.906  0.00  0.00    +0.000 A 
ATOM      5  C   UNL     1       1.343   3.858  19.228  0.00  0.00    +0.000 A 
ATOM      6  C   UNL     1       2.393   3.427  20.051  0.00  0.00    +0.000 A 
ATOM      7  C   UNL     1       3.691   3.347  19.510  0.00  0.00    +0.000 A 
BRANCH   6   8
ATOM      8  C   UNL     1       2.135   3.058  21.493  0.00  0.00    +0.000 C 
ATOM      9  F   UNL     1       2.303   4.095  22.360  0.00  0.00    +0.000 F 
ATOM     10  F   UNL     1       0.872   2.598  21.702  0.00  0.00    +0.000 F 
ATOM     11  F   UNL     1       2.969   2.072  21.931  0.00  0.00    +0.000 F 
ENDBRANCH   6   8
ENDBRANCH   1   2
BRANCH   1  12
ATOM     12  S   UNL     1       6.361   4.906  18.251  0.00  0.00    +0.000 S 
ATOM     13  O   UNL     1       7.753   4.496  18.135  0.00  0.00    +0.000 OA
ATOM     14  O   UNL     1       5.832   5.325  19.541  0.00  0.00    +0.000 OA
BRANCH  12  15
ATOM     15  C   UNL     1       6.140   6.270  17.122  0.00  0.00    +0.000 C 
ATOM     16  C   UNL     1       4.894   7.084  17.449  0.00  0.00    +0.000 C 
BRANCH  15  19
ATOM     17  C   UNL     1       7.427   4.855  13.832  0.00  0.00    +0.000 C 
ATOM     18  N   UNL     1       7.315   5.308  15.196  0.00  0.00    +0.000 N 
ATOM     19  C   UNL     1       6.118   5.757  15.705  0.00  0.00    +0.000 C 
ATOM     20  O   UNL     1       5.072   5.737  15.060  0.00  0.00    +0.000 OA
ATOM     21  H   UNL     1       8.177   5.595  15.662  0.00  0.00    +0.000 HD
ENDBRANCH  15  19
ENDBRANCH  12  15
ENDBRANCH   1  12
TORSDOF 5
ENDMDL
MODEL 9
REMARK VINA RESULT:      -7.1      1.510      2.252
REMARK  Name = 
REMARK  7 active torsions:
REMARK  status: ('A' for Active; 'I' for Inactive)
REMARK    1  A    between atoms: C_1  and  N_2
REMARK    2  A    between atoms: C_3  and  C_5
REMARK    3  A    between atoms: C_5  and  C_6
REMARK    4  A    between atoms: C_5  and  S_7
REMARK    5  A    between atoms: S_7  and  C_10
REMARK    6  A    between atoms: C_10  and  C_11
REMARK    7  A    between atoms: C_15  and  C_16
REMARK                            x       y       z     vdW  Elec       q    Type
REMARK                         _______ _______ _______ _____ _____    ______ ____
ROOT
ATOM      1  C   UNL     1       3.726   4.666  16.844  0.00  0.00    +0.000 C 
ENDROOT
BRANCH   1   2
ATOM      2  C   UNL     1       3.086   4.857  18.203  0.00  0.00    +0.000 A 
ATOM      3  C   UNL     1       2.706   6.139  18.635  0.00  0.00    +0.000 A 
ATOM      4  C   UNL     1       2.085   6.318  19.871  0.00  0.00    +0.000 A 
ATOM      5  C   UNL     1       1.841   5.228  20.698  0.00  0.00    +0.000 A 
ATOM      6  C   UNL     1       2.222   3.937  20.305  0.00  0.00    +0.000 A 
ATOM      7  C   UNL     1       2.841   3.763  19.051  0.00  0.00    +0.000 A 
BRANCH   6   8
ATOM      8  C   UNL     1       1.975   2.755  21.211  0.00  0.00    +0.000 C 
ATOM      9  F   UNL     1       1.510   1.653  20.558  0.00  0.00    +0.000 F 
ATOM     10  F   UNL     1       3.095   2.352  21.871  0.00  0.00    +0.000 F 
ATOM     11  F   UNL     1       1.051   3.027  22.177  0.00  0.00    +0.000 F 
ENDBRANCH   6   8
ENDBRANCH   1   2
BRANCH   1  12
ATOM     12  S   UNL     1       5.254   5.611  16.779  0.00  0.00    +0.000 S 
ATOM     13  O   UNL     1       5.540   6.098  18.121  0.00  0.00    +0.000 OA
ATOM     14  O   UNL     1       5.197   6.546  15.664  0.00  0.00    +0.000 OA
BRANCH  12  15
ATOM     15  C   UNL     1       6.519   4.411  16.396  0.00  0.00    +0.000 C 
ATOM     16  C   UNL     1       7.729   4.546  17.312  0.00  0.00    +0.000 C 
BRANCH  15  19
ATOM     17  C   UNL     1       6.508   3.723  12.653  0.00  0.00    +0.000 C 
ATOM     18  N   UNL     1       6.187   3.745  14.058  0.00  0.00    +0.000 N 
ATOM     19  C   UNL     1       6.901   4.522  14.942  0.00  0.00    +0.000 C 
ATOM     20  O   UNL     1       7.796   5.285  14.585  0.00  0.00    +0.000 OA
ATOM     21  H   UNL     1       5.661   2.953  14.428  0.00  0.00    +0.000 HD
ENDBRANCH  15  19
ENDBRANCH  12  15
ENDBRANCH   1  12
TORSDOF 5
ENDMDL
