MODEL 1
REMARK VINA RESULT:      -7.3      0.000      0.000
REMARK  Name = 
REMARK  5 active torsions:
REMARK  status: ('A' for Active; 'I' for Inactive)
REMARK    1  A    between atoms: C_2  and  C_3
REMARK    2  A    between atoms: N_7  and  C_8
REMARK    3  A    between atoms: N_7  and  C_12
REMARK    4  A    between atoms: C_8  and  C_9
REMARK    5  A    between atoms: N_15  and  C_16
REMARK                            x       y       z     vdW  Elec       q    Type
REMARK                         _______ _______ _______ _____ _____    ______ ____
ROOT
ATOM      1  C   UNL     1       3.756   5.420  19.265  0.00  0.00    +0.000 C 
ATOM      2  C   UNL     1       3.016   4.877  20.494  0.00  0.00    +0.000 C 
ATOM      3  C   UNL     1       1.734   5.689  20.624  0.00  0.00    +0.000 C 
ATOM      4  N   UNL     1       2.003   6.941  19.934  0.00  0.00    +0.000 N 
ATOM      5  C   UNL     1       3.112   6.813  18.988  0.00  0.00    +0.000 C 
ENDROOT
BRANCH   4   6
ATOM      6  C   UNL     1       1.562   8.130  20.483  0.00  0.00    +0.000 A 
ATOM      7  N   UNL     1       1.507   8.232  21.846  0.00  0.00    +0.000 NA
ATOM      8  C   UNL     1       1.061   9.360  22.430  0.00  0.00    +0.000 A 
ATOM      9  N   UNL     1       0.606  10.467  21.835  0.00  0.00    +0.000 NA
ATOM     10  C   UNL     1       0.648  10.346  20.503  0.00  0.00    +0.000 A 
ATOM     11  N   UNL     1       0.204  11.313  19.643  0.00  0.00    +0.000 N 
ATOM     12  C   UNL     1       0.376  10.894  18.351  0.00  0.00    +0.000 A 
ATOM     13  C   UNL     1       0.939   9.634  18.392  0.00  0.00    +0.000 A 
ATOM     14  C   UNL     1       1.109   9.262  19.760  0.00  0.00    +0.000 A 
ATOM     15  H   UNL     1      -0.204  12.186  19.946  0.00  0.00    +0.000 HD
ENDBRANCH   4   6
BRANCH   1  20
ATOM     16  C   UNL     1       6.735   5.069  15.244  0.00  0.00    +0.000 A 
ATOM     17  C   UNL     1       7.095   4.831  16.563  0.00  0.00    +0.000 A 
ATOM     18  C   UNL     1       6.093   4.619  17.522  0.00  0.00    +0.000 A 
ATOM     19  C   UNL     1       4.739   4.657  17.164  0.00  0.00    +0.000 A 
ATOM     20  N   UNL     1       3.751   4.429  18.142  0.00  0.00    +0.000 N 
ATOM     21  N   UNL     1       4.395   4.875  15.875  0.00  0.00    +0.000 NA
ATOM     22  C   UNL     1       5.379   5.070  14.955  0.00  0.00    +0.000 A 
BRANCH  16  24
ATOM     23  N   UNL     1       8.492   5.493  13.379  0.00  0.00    +0.000 NA
ATOM     24  C   UNL     1       7.709   5.299  14.220  0.00  0.00    +0.000 C 
ENDBRANCH  16  24
BRANCH  20  25
ATOM     25  C   UNL     1       2.438   4.030  17.617  0.00  0.00    +0.000 C 
BRANCH  25  26
ATOM     26  C   UNL     1       2.122   2.564  17.812  0.00  0.00    +0.000 C 
ATOM     27  C   UNL     1       2.406   1.727  19.043  0.00  0.00    +0.000 C 
ATOM     28  C   UNL     1       1.014   2.219  18.788  0.00  0.00    +0.000 C 
ENDBRANCH  25  26
ENDBRANCH  20  25
ENDBRANCH   1  20
TORSDOF 5
ENDMDL
MODEL 2
REMARK VINA RESULT:      -7.1      1.686      2.772
REMARK  Name = 
REMARK  5 active torsions:
REMARK  status: ('A' for Active; 'I' for Inactive)
REMARK    1  A    between atoms: C_2  and  C_3
REMARK    2  A    between atoms: N_7  and  C_8
REMARK    3  A    between atoms: N_7  and  C_12
REMARK    4  A    between atoms: C_8  and  C_9
REMARK    5  A    between atoms: N_15  and  C_16
REMARK                            x       y       z     vdW  Elec       q    Type
REMARK                         _______ _______ _______ _____ _____    ______ ____
ROOT
ATOM      1  C   UNL     1       1.947   7.101  18.900  0.00  0.00    +0.000 C 
ATOM      2  C   UNL     1       2.115   7.906  17.605  0.00  0.00    +0.000 C 
ATOM      3  C   UNL     1       2.212   9.371  18.013  0.00  0.00    +0.000 C 
ATOM      4  N   UNL     1       1.562   9.450  19.311  0.00  0.00    +0.000 N 
ATOM      5  C   UNL     1       1.502   8.144  19.971  0.00  0.00    +0.000 C 
ENDROOT
BRANCH   4   6
ATOM      6  C   UNL     1       0.735  10.520  19.596  0.00  0.00    +0.000 A 
ATOM      7  N   UNL     1       1.064  11.328  20.650  0.00  0.00    +0.000 NA
ATOM      8  C   UNL     1       0.278  12.369  20.984  0.00  0.00    +0.000 A 
ATOM      9  N   UNL     1      -0.873  12.744  20.417  0.00  0.00    +0.000 NA
ATOM     10  C   UNL     1      -1.191  11.934  19.401  0.00  0.00    +0.000 A 
ATOM     11  N   UNL     1      -2.339  12.059  18.668  0.00  0.00    +0.000 N 
ATOM     12  C   UNL     1      -2.380  11.084  17.707  0.00  0.00    +0.000 A 
ATOM     13  C   UNL     1      -1.235  10.323  17.835  0.00  0.00    +0.000 A 
ATOM     14  C   UNL     1      -0.468  10.845  18.921  0.00  0.00    +0.000 A 
ATOM     15  H   UNL     1      -3.042  12.761  18.845  0.00  0.00    +0.000 HD
ENDBRANCH   4   6
BRANCH   1  20
ATOM     16  C   UNL     1       5.307   5.033  15.802  0.00  0.00    +0.000 A 
ATOM     17  C   UNL     1       5.125   6.388  16.040  0.00  0.00    +0.000 A 
ATOM     18  C   UNL     1       4.412   6.797  17.176  0.00  0.00    +0.000 A 
ATOM     19  C   UNL     1       3.872   5.855  18.061  0.00  0.00    +0.000 A 
ATOM     20  N   UNL     1       3.169   6.290  19.202  0.00  0.00    +0.000 N 
ATOM     21  N   UNL     1       4.063   4.537  17.831  0.00  0.00    +0.000 NA
ATOM     22  C   UNL     1       4.766   4.156  16.729  0.00  0.00    +0.000 A 
BRANCH  16  24
ATOM     23  N   UNL     1       6.598   4.168  13.721  0.00  0.00    +0.000 NA
ATOM     24  C   UNL     1       6.019   4.550  14.657  0.00  0.00    +0.000 C 
ENDBRANCH  16  24
BRANCH  20  25
ATOM     25  C   UNL     1       3.055   5.297  20.277  0.00  0.00    +0.000 C 
BRANCH  25  26
ATOM     26  C   UNL     1       1.654   4.757  20.464  0.00  0.00    +0.000 C 
ATOM     27  C   UNL     1       1.031   3.574  19.750  0.00  0.00    +0.000 C 
ATOM     28  C   UNL     1       1.517   3.415  21.158  0.00  0.00    +0.000 C 
ENDBRANCH  25  26
ENDBRANCH  20  25
ENDBRANCH   1  20
TORSDOF 5
ENDMDL
MODEL 3
REMARK VINA RESULT:      -7.0      2.637      8.837
REMARK  Name = 
REMARK  5 active torsions:
REMARK  status: ('A' for Active; 'I' for Inactive)
REMARK    1  A    between atoms: C_2  and  C_3
REMARK    2  A    between atoms: N_7  and  C_8
REMARK    3  A    between atoms: N_7  and  C_12
REMARK    4  A    between atoms: C_8  and  C_9
REMARK    5  A    between atoms: N_15  and  C_16
REMARK                            x       y       z     vdW  Elec       q    Type
REMARK                         _______ _______ _______ _____ _____    ______ ____
ROOT
ATOM      1  C   UNL     1       1.408  10.100  19.403  0.00  0.00    +0.000 C 
ATOM      2  C   UNL     1       2.031  10.042  18.003  0.00  0.00    +0.000 C 
ATOM      3  C   UNL     1       2.035   8.576  17.589  0.00  0.00    +0.000 C 
ATOM      4  N   UNL     1       1.994   7.826  18.834  0.00  0.00    +0.000 N 
ATOM      5  C   UNL     1       1.484   8.637  19.940  0.00  0.00    +0.000 C 
ENDROOT
BRANCH   4   6
ATOM      6  C   UNL     1       2.776   6.695  18.975  0.00  0.00    +0.000 A 
ATOM      7  N   UNL     1       3.939   6.621  18.260  0.00  0.00    +0.000 NA
ATOM      8  C   UNL     1       4.724   5.529  18.343  0.00  0.00    +0.000 A 
ATOM      9  N   UNL     1       4.508   4.415  19.049  0.00  0.00    +0.000 NA
ATOM     10  C   UNL     1       3.358   4.495  19.728  0.00  0.00    +0.000 A 
ATOM     11  N   UNL     1       2.866   3.480  20.502  0.00  0.00    +0.000 N 
ATOM     12  C   UNL     1       1.676   3.861  21.061  0.00  0.00    +0.000 A 
ATOM     13  C   UNL     1       1.405   5.145  20.629  0.00  0.00    +0.000 A 
ATOM     14  C   UNL     1       2.463   5.562  19.767  0.00  0.00    +0.000 A 
ATOM     15  H   UNL     1       3.325   2.587  20.610  0.00  0.00    +0.000 HD
ENDBRANCH   4   6
BRANCH   1  20
ATOM     16  C   UNL     1      -0.655  13.420  22.547  0.00  0.00    +0.000 A 
ATOM     17  C   UNL     1       0.399  13.651  21.674  0.00  0.00    +0.000 A 
ATOM     18  C   UNL     1       0.629  12.756  20.620  0.00  0.00    +0.000 A 
ATOM     19  C   UNL     1      -0.185  11.628  20.448  0.00  0.00    +0.000 A 
ATOM     20  N   UNL     1       0.058  10.749  19.375  0.00  0.00    +0.000 N 
ATOM     21  N   UNL     1      -1.218  11.415  21.292  0.00  0.00    +0.000 NA
ATOM     22  C   UNL     1      -1.433  12.299  22.305  0.00  0.00    +0.000 A 
BRANCH  16  24
ATOM     23  N   UNL     1      -1.181  15.001  24.539  0.00  0.00    +0.000 NA
ATOM     24  C   UNL     1      -0.938  14.293  23.646  0.00  0.00    +0.000 C 
ENDBRANCH  16  24
BRANCH  20  25
ATOM     25  C   UNL     1      -1.078   9.896  19.001  0.00  0.00    +0.000 C 
BRANCH  25  26
ATOM     26  C   UNL     1      -1.940  10.473  17.901  0.00  0.00    +0.000 C 
ATOM     27  C   UNL     1      -2.200   9.867  16.536  0.00  0.00    +0.000 C 
ATOM     28  C   UNL     1      -3.248   9.764  17.602  0.00  0.00    +0.000 C 
ENDBRANCH  25  26
ENDBRANCH  20  25
ENDBRANCH   1  20
TORSDOF 5
ENDMDL
MODEL 4
REMARK VINA RESULT:      -6.9      1.491      2.667
REMARK  Name = 
REMARK  5 active torsions:
REMARK  status: ('A' for Active; 'I' for Inactive)
REMARK    1  A    between atoms: C_2  and  C_3
REMARK    2  A    between atoms: N_7  and  C_8
REMARK    3  A    between atoms: N_7  and  C_12
REMARK    4  A    between atoms: C_8  and  C_9
REMARK    5  A    between atoms: N_15  and  C_16
REMARK                            x       y       z     vdW  Elec       q    Type
REMARK                         _______ _______ _______ _____ _____    ______ ____
ROOT
ATOM      1  C   UNL     1       2.212   6.209  19.245  0.00  0.00    +0.000 C 
ATOM      2  C   UNL     1       2.194   6.905  17.878  0.00  0.00    +0.000 C 
ATOM      3  C   UNL     1       2.283   8.401  18.150  0.00  0.00    +0.000 C 
ATOM      4  N   UNL     1       1.790   8.573  19.507  0.00  0.00    +0.000 N 
ATOM      5  C   UNL     1       1.858   7.327  20.273  0.00  0.00    +0.000 C 
ENDROOT
BRANCH   4   6
ATOM      6  C   UNL     1       0.962   9.640  19.802  0.00  0.00    +0.000 A 
ATOM      7  N   UNL     1       0.778  10.598  18.843  0.00  0.00    +0.000 NA
ATOM      8  C   UNL     1       0.001  11.671  19.090  0.00  0.00    +0.000 A 
ATOM      9  N   UNL     1      -0.642  11.976  20.221  0.00  0.00    +0.000 NA
ATOM     10  C   UNL     1      -0.437  11.039  21.155  0.00  0.00    +0.000 A 
ATOM     11  N   UNL     1      -0.942  11.116  22.424  0.00  0.00    +0.000 N 
ATOM     12  C   UNL     1      -0.557  10.015  23.140  0.00  0.00    +0.000 A 
ATOM     13  C   UNL     1       0.212   9.224  22.309  0.00  0.00    +0.000 A 
ATOM     14  C   UNL     1       0.309   9.869  21.038  0.00  0.00    +0.000 A 
ATOM     15  H   UNL     1      -1.496  11.891  22.759  0.00  0.00    +0.000 HD
ENDBRANCH   4   6
BRANCH   1  20
ATOM     16  C   UNL     1       6.026   5.344  16.103  0.00  0.00    +0.000 A 
ATOM     17  C   UNL     1       5.671   6.566  16.656  0.00  0.00    +0.000 A 
ATOM     18  C   UNL     1       4.827   6.596  17.775  0.00  0.00    +0.000 A 
ATOM     19  C   UNL     1       4.330   5.408  18.330  0.00  0.00    +0.000 A 
ATOM     20  N   UNL     1       3.493   5.462  19.461  0.00  0.00    +0.000 N 
ATOM     21  N   UNL     1       4.689   4.220  17.795  0.00  0.00    +0.000 NA
ATOM     22  C   UNL     1       5.518   4.208  16.714  0.00  0.00    +0.000 A 
BRANCH  16  24
ATOM     23  N   UNL     1       7.570   5.178  14.021  0.00  0.00    +0.000 NA
ATOM     24  C   UNL     1       6.880   5.246  14.957  0.00  0.00    +0.000 C 
ENDBRANCH  16  24
BRANCH  20  25
ATOM     25  C   UNL     1       3.408   4.214  20.231  0.00  0.00    +0.000 C 
BRANCH  25  26
ATOM     26  C   UNL     1       2.044   3.958  20.833  0.00  0.00    +0.000 C 
ATOM     27  C   UNL     1       1.036   2.915  20.393  0.00  0.00    +0.000 C 
ATOM     28  C   UNL     1       1.864   2.673  21.617  0.00  0.00    +0.000 C 
ENDBRANCH  25  26
ENDBRANCH  20  25
ENDBRANCH   1  20
TORSDOF 5
ENDMDL
MODEL 5
REMARK VINA RESULT:      -6.7      1.718      2.701
REMARK  Name = 
REMARK  5 active torsions:
REMARK  status: ('A' for Active; 'I' for Inactive)
REMARK    1  A    between atoms: C_2  and  C_3
REMARK    2  A    between atoms: N_7  and  C_8
REMARK    3  A    between atoms: N_7  and  C_12
REMARK    4  A    between atoms: C_8  and  C_9
REMARK    5  A    between atoms: N_15  and  C_16
REMARK                            x       y       z     vdW  Elec       q    Type
REMARK                         _______ _______ _______ _____ _____    ______ ____
ROOT
ATOM      1  C   UNL     1       2.013   6.704  19.084  0.00  0.00    +0.000 C 
ATOM      2  C   UNL     1       1.955   7.257  17.654  0.00  0.00    +0.000 C 
ATOM      3  C   UNL     1       2.151   8.764  17.763  0.00  0.00    +0.000 C 
ATOM      4  N   UNL     1       1.752   9.105  19.119  0.00  0.00    +0.000 N 
ATOM      5  C   UNL     1       1.791   7.942  20.006  0.00  0.00    +0.000 C 
ENDROOT
BRANCH   4   6
ATOM      6  C   UNL     1       1.010  10.249  19.344  0.00  0.00    +0.000 A 
ATOM      7  N   UNL     1      -0.201  10.121  19.969  0.00  0.00    +0.000 NA
ATOM      8  C   UNL     1      -0.973  11.202  20.189  0.00  0.00    +0.000 A 
ATOM      9  N   UNL     1      -0.730  12.470  19.840  0.00  0.00    +0.000 NA
ATOM     10  C   UNL     1       0.447  12.576  19.214  0.00  0.00    +0.000 A 
ATOM     11  N   UNL     1       0.930  13.752  18.709  0.00  0.00    +0.000 N 
ATOM     12  C   UNL     1       2.150  13.536  18.126  0.00  0.00    +0.000 A 
ATOM     13  C   UNL     1       2.446  12.194  18.260  0.00  0.00    +0.000 A 
ATOM     14  C   UNL     1       1.363  11.562  18.944  0.00  0.00    +0.000 A 
ATOM     15  H   UNL     1       0.429  14.628  18.757  0.00  0.00    +0.000 HD
ENDBRANCH   4   6
BRANCH   1  20
ATOM     16  C   UNL     1       5.323   4.872  15.788  0.00  0.00    +0.000 A 
ATOM     17  C   UNL     1       5.126   6.208  16.108  0.00  0.00    +0.000 A 
ATOM     18  C   UNL     1       4.437   6.541  17.283  0.00  0.00    +0.000 A 
ATOM     19  C   UNL     1       3.936   5.541  18.127  0.00  0.00    +0.000 A 
ATOM     20  N   UNL     1       3.257   5.899  19.308  0.00  0.00    +0.000 N 
ATOM     21  N   UNL     1       4.141   4.241  17.818  0.00  0.00    +0.000 NA
ATOM     22  C   UNL     1       4.821   3.935  16.678  0.00  0.00    +0.000 A 
BRANCH  16  24
ATOM     23  N   UNL     1       6.571   4.125  13.637  0.00  0.00    +0.000 NA
ATOM     24  C   UNL     1       6.012   4.467  14.601  0.00  0.00    +0.000 C 
ENDBRANCH  16  24
BRANCH  20  25
ATOM     25  C   UNL     1       3.187   4.844  20.328  0.00  0.00    +0.000 C 
BRANCH  25  26
ATOM     26  C   UNL     1       1.777   4.412  20.665  0.00  0.00    +0.000 C 
ATOM     27  C   UNL     1       1.005   3.263  20.047  0.00  0.00    +0.000 C 
ATOM     28  C   UNL     1       1.614   3.099  21.406  0.00  0.00    +0.000 C 
ENDBRANCH  25  26
ENDBRANCH  20  25
ENDBRANCH   1  20
TORSDOF 5
ENDMDL
MODEL 6
REMARK VINA RESULT:      -6.7      0.841      1.790
REMARK  Name = 
REMARK  5 active torsions:
REMARK  status: ('A' for Active; 'I' for Inactive)
REMARK    1  A    between atoms: C_2  and  C_3
REMARK    2  A    between atoms: N_7  and  C_8
REMARK    3  A    between atoms: N_7  and  C_12
REMARK    4  A    between atoms: C_8  and  C_9
REMARK    5  A    between atoms: N_15  and  C_16
REMARK                            x       y       z     vdW  Elec       q    Type
REMARK                         _______ _______ _______ _____ _____    ______ ____
ROOT
ATOM      1  C   UNL     1       3.922   5.628  18.926  0.00  0.00    +0.000 C 
ATOM      2  C   UNL     1       2.956   5.294  20.070  0.00  0.00    +0.000 C 
ATOM      3  C   UNL     1       1.708   6.137  19.845  0.00  0.00    +0.000 C 
ATOM      4  N   UNL     1       2.146   7.262  19.035  0.00  0.00    +0.000 N 
ATOM      5  C   UNL     1       3.397   6.972  18.333  0.00  0.00    +0.000 C 
ENDROOT
BRANCH   4   6
ATOM      6  C   UNL     1       1.669   8.529  19.312  0.00  0.00    +0.000 A 
ATOM      7  N   UNL     1       1.739   9.475  18.326  0.00  0.00    +0.000 NA
ATOM      8  C   UNL     1       1.310  10.731  18.552  0.00  0.00    +0.000 A 
ATOM      9  N   UNL     1       0.815  11.237  19.686  0.00  0.00    +0.000 NA
ATOM     10  C   UNL     1       0.769  10.306  20.646  0.00  0.00    +0.000 A 
ATOM     11  N   UNL     1       0.345  10.558  21.922  0.00  0.00    +0.000 N 
ATOM     12  C   UNL     1       0.419   9.411  22.666  0.00  0.00    +0.000 A 
ATOM     13  C   UNL     1       0.904   8.412  21.846  0.00  0.00    +0.000 A 
ATOM     14  C   UNL     1       1.145   8.968  20.553  0.00  0.00    +0.000 A 
ATOM     15  H   UNL     1       0.047  11.468  22.242  0.00  0.00    +0.000 HD
ENDBRANCH   4   6
BRANCH   1  20
ATOM     16  C   UNL     1       6.878   5.093  14.908  0.00  0.00    +0.000 A 
ATOM     17  C   UNL     1       7.285   5.142  16.235  0.00  0.00    +0.000 A 
ATOM     18  C   UNL     1       6.342   4.934  17.252  0.00  0.00    +0.000 A 
ATOM     19  C   UNL     1       4.997   4.692  16.943  0.00  0.00    +0.000 A 
ATOM     20  N   UNL     1       4.070   4.475  17.982  0.00  0.00    +0.000 N 
ATOM     21  N   UNL     1       4.608   4.632  15.650  0.00  0.00    +0.000 NA
ATOM     22  C   UNL     1       5.538   4.826  14.674  0.00  0.00    +0.000 A 
BRANCH  16  24
ATOM     23  N   UNL     1       8.523   5.467  12.934  0.00  0.00    +0.000 NA
ATOM     24  C   UNL     1       7.789   5.302  13.824  0.00  0.00    +0.000 C 
ENDBRANCH  16  24
BRANCH  20  25
ATOM     25  C   UNL     1       2.837   3.787  17.579  0.00  0.00    +0.000 C 
BRANCH  25  26
ATOM     26  C   UNL     1       2.856   2.297  17.836  0.00  0.00    +0.000 C 
ATOM     27  C   UNL     1       3.572   1.576  18.961  0.00  0.00    +0.000 C 
ATOM     28  C   UNL     1       2.092   1.792  19.045  0.00  0.00    +0.000 C 
ENDBRANCH  25  26
ENDBRANCH  20  25
ENDBRANCH   1  20
TORSDOF 5
ENDMDL
MODEL 7
REMARK VINA RESULT:      -6.6      1.537      2.080
REMARK  Name = 
REMARK  5 active torsions:
REMARK  status: ('A' for Active; 'I' for Inactive)
REMARK    1  A    between atoms: C_2  and  C_3
REMARK    2  A    between atoms: N_7  and  C_8
REMARK    3  A    between atoms: N_7  and  C_12
REMARK    4  A    between atoms: C_8  and  C_9
REMARK    5  A    between atoms: N_15  and  C_16
REMARK                            x       y       z     vdW  Elec       q    Type
REMARK                         _______ _______ _______ _____ _____    ______ ____
ROOT
ATOM      1  C   UNL     1       2.250   5.967  19.178  0.00  0.00    +0.000 C 
ATOM      2  C   UNL     1       2.265   6.804  17.892  0.00  0.00    +0.000 C 
ATOM      3  C   UNL     1       2.338   8.263  18.323  0.00  0.00    +0.000 C 
ATOM      4  N   UNL     1       1.808   8.289  19.676  0.00  0.00    +0.000 N 
ATOM      5  C   UNL     1       1.863   6.970  20.308  0.00  0.00    +0.000 C 
ENDROOT
BRANCH   4   6
ATOM      6  C   UNL     1       0.967   9.317  20.060  0.00  0.00    +0.000 A 
ATOM      7  N   UNL     1       1.049   9.773  21.347  0.00  0.00    +0.000 NA
ATOM      8  C   UNL     1       0.235  10.755  21.777  0.00  0.00    +0.000 A 
ATOM      9  N   UNL     1      -0.730  11.379  21.095  0.00  0.00    +0.000 NA
ATOM     10  C   UNL     1      -0.811  10.910  19.845  0.00  0.00    +0.000 A 
ATOM     11  N   UNL     1      -1.740  11.339  18.937  0.00  0.00    +0.000 N 
ATOM     12  C   UNL     1      -1.571  10.671  17.754  0.00  0.00    +0.000 A 
ATOM     13  C   UNL     1      -0.514   9.796  17.916  0.00  0.00    +0.000 A 
ATOM     14  C   UNL     1      -0.024   9.927  19.251  0.00  0.00    +0.000 A 
ATOM     15  H   UNL     1      -2.445  12.032  19.143  0.00  0.00    +0.000 HD
ENDBRANCH   4   6
BRANCH   1  20
ATOM     16  C   UNL     1       6.066   5.290  15.992  0.00  0.00    +0.000 A 
ATOM     17  C   UNL     1       5.713   6.476  16.621  0.00  0.00    +0.000 A 
ATOM     18  C   UNL     1       4.867   6.438  17.738  0.00  0.00    +0.000 A 
ATOM     19  C   UNL     1       4.367   5.220  18.217  0.00  0.00    +0.000 A 
ATOM     20  N   UNL     1       3.528   5.205  19.348  0.00  0.00    +0.000 N 
ATOM     21  N   UNL     1       4.724   4.066  17.610  0.00  0.00    +0.000 NA
ATOM     22  C   UNL     1       5.554   4.120  16.531  0.00  0.00    +0.000 A 
BRANCH  16  24
ATOM     23  N   UNL     1       7.626   5.240  13.917  0.00  0.00    +0.000 NA
ATOM     24  C   UNL     1       6.921   5.262  14.844  0.00  0.00    +0.000 C 
ENDBRANCH  16  24
BRANCH  20  25
ATOM     25  C   UNL     1       3.439   3.911  20.039  0.00  0.00    +0.000 C 
BRANCH  25  26
ATOM     26  C   UNL     1       2.261   3.801  20.980  0.00  0.00    +0.000 C 
ATOM     27  C   UNL     1       1.075   2.865  20.848  0.00  0.00    +0.000 C 
ATOM     28  C   UNL     1       2.165   2.544  21.825  0.00  0.00    +0.000 C 
ENDBRANCH  25  26
ENDBRANCH  20  25
ENDBRANCH   1  20
TORSDOF 5
ENDMDL
MODEL 8
REMARK VINA RESULT:      -6.6      2.641      8.920
REMARK  Name = 
REMARK  5 active torsions:
REMARK  status: ('A' for Active; 'I' for Inactive)
REMARK    1  A    between atoms: C_2  and  C_3
REMARK    2  A    between atoms: N_7  and  C_8
REMARK    3  A    between atoms: N_7  and  C_12
REMARK    4  A    between atoms: C_8  and  C_9
REMARK    5  A    between atoms: N_15  and  C_16
REMARK                            x       y       z     vdW  Elec       q    Type
REMARK                         _______ _______ _______ _____ _____    ______ ____
ROOT
ATOM      1  C   UNL     1       1.176  10.311  19.591  0.00  0.00    +0.000 C 
ATOM      2  C   UNL     1       1.820  10.292  18.198  0.00  0.00    +0.000 C 
ATOM      3  C   UNL     1       1.809   8.841  17.734  0.00  0.00    +0.000 C 
ATOM      4  N   UNL     1       1.738   8.050  18.952  0.00  0.00    +0.000 N 
ATOM      5  C   UNL     1       1.222   8.830  20.078  0.00  0.00    +0.000 C 
ENDROOT
BRANCH   4   6
ATOM      6  C   UNL     1       2.500   6.903  19.066  0.00  0.00    +0.000 A 
ATOM      7  N   UNL     1       2.187   6.015  20.059  0.00  0.00    +0.000 NA
ATOM      8  C   UNL     1       2.914   4.894  20.227  0.00  0.00    +0.000 A 
ATOM      9  N   UNL     1       3.991   4.503  19.539  0.00  0.00    +0.000 NA
ATOM     10  C   UNL     1       4.296   5.390  18.584  0.00  0.00    +0.000 A 
ATOM     11  N   UNL     1       5.377   5.264  17.755  0.00  0.00    +0.000 N 
ATOM     12  C   UNL     1       5.422   6.327  16.893  0.00  0.00    +0.000 A 
ATOM     13  C   UNL     1       4.350   7.146  17.184  0.00  0.00    +0.000 A 
ATOM     14  C   UNL     1       3.625   6.569  18.271  0.00  0.00    +0.000 A 
ATOM     15  H   UNL     1       6.036   4.501  17.808  0.00  0.00    +0.000 HD
ENDBRANCH   4   6
BRANCH   1  20
ATOM     16  C   UNL     1      -0.843  13.637  22.758  0.00  0.00    +0.000 A 
ATOM     17  C   UNL     1       0.218  13.859  21.890  0.00  0.00    +0.000 A 
ATOM     18  C   UNL     1       0.436  12.969  20.828  0.00  0.00    +0.000 A 
ATOM     19  C   UNL     1      -0.395  11.855  20.644  0.00  0.00    +0.000 A 
ATOM     20  N   UNL     1      -0.163  10.981  19.564  0.00  0.00    +0.000 N 
ATOM     21  N   UNL     1      -1.434  11.651  21.484  0.00  0.00    +0.000 NA
ATOM     22  C   UNL     1      -1.638  12.530  22.505  0.00  0.00    +0.000 A 
BRANCH  16  24
ATOM     23  N   UNL     1      -1.329  15.204  24.771  0.00  0.00    +0.000 NA
ATOM     24  C   UNL     1      -1.115  14.504  23.864  0.00  0.00    +0.000 C 
ENDBRANCH  16  24
BRANCH  20  25
ATOM     25  C   UNL     1      -1.311  10.149  19.181  0.00  0.00    +0.000 C 
BRANCH  25  26
ATOM     26  C   UNL     1      -2.041  10.644  17.952  0.00  0.00    +0.000 C 
ATOM     27  C   UNL     1      -2.125   9.954  16.604  0.00  0.00    +0.000 C 
ATOM     28  C   UNL     1      -3.292   9.891  17.541  0.00  0.00    +0.000 C 
ENDBRANCH  25  26
ENDBRANCH  20  25
ENDBRANCH   1  20
TORSDOF 5
ENDMDL
MODEL 9
REMARK VINA RESULT:      -6.5      2.683      8.147
REMARK  Name = 
REMARK  5 active torsions:
REMARK  status: ('A' for Active; 'I' for Inactive)
REMARK    1  A    between atoms: C_2  and  C_3
REMARK    2  A    between atoms: N_7  and  C_8
REMARK    3  A    between atoms: N_7  and  C_12
REMARK    4  A    between atoms: C_8  and  C_9
REMARK    5  A    between atoms: N_15  and  C_16
REMARK                            x       y       z     vdW  Elec       q    Type
REMARK                         _______ _______ _______ _____ _____    ______ ____
ROOT
ATOM      1  C   UNL     1      -0.174   9.878  20.234  0.00  0.00    +0.000 C 
ATOM      2  C   UNL     1      -0.173   8.845  21.368  0.00  0.00    +0.000 C 
ATOM      3  C   UNL     1       1.195   8.176  21.345  0.00  0.00    +0.000 C 
ATOM      4  N   UNL     1       1.688   8.360  19.989  0.00  0.00    +0.000 N 
ATOM      5  C   UNL     1       1.013   9.467  19.310  0.00  0.00    +0.000 C 
ENDROOT
BRANCH   4   6
ATOM      6  C   UNL     1       2.341   7.320  19.354  0.00  0.00    +0.000 A 
ATOM      7  N   UNL     1       3.097   7.610  18.252  0.00  0.00    +0.000 NA
ATOM      8  C   UNL     1       3.733   6.629  17.582  0.00  0.00    +0.000 A 
ATOM      9  N   UNL     1       3.712   5.316  17.834  0.00  0.00    +0.000 NA
ATOM     10  C   UNL     1       2.953   5.047  18.903  0.00  0.00    +0.000 A 
ATOM     11  N   UNL     1       2.721   3.779  19.362  0.00  0.00    +0.000 N 
ATOM     12  C   UNL     1       1.907   3.831  20.462  0.00  0.00    +0.000 A 
ATOM     13  C   UNL     1       1.615   5.158  20.704  0.00  0.00    +0.000 A 
ATOM     14  C   UNL     1       2.266   5.950  19.709  0.00  0.00    +0.000 A 
ATOM     15  H   UNL     1       3.091   2.949  18.923  0.00  0.00    +0.000 HD
ENDBRANCH   4   6
BRANCH   1  20
ATOM     16  C   UNL     1       2.722  13.796  19.040  0.00  0.00    +0.000 A 
ATOM     17  C   UNL     1       1.750  13.211  18.240  0.00  0.00    +0.000 A 
ATOM     18  C   UNL     1       0.790  12.374  18.825  0.00  0.00    +0.000 A 
ATOM     19  C   UNL     1       0.810  12.112  20.202  0.00  0.00    +0.000 A 
ATOM     20  N   UNL     1      -0.172  11.277  20.769  0.00  0.00    +0.000 N 
ATOM     21  N   UNL     1       1.751  12.695  20.978  0.00  0.00    +0.000 NA
ATOM     22  C   UNL     1       2.671  13.513  20.396  0.00  0.00    +0.000 A 
BRANCH  16  24
ATOM     23  N   UNL     1       4.565  15.344  18.063  0.00  0.00    +0.000 NA
ATOM     24  C   UNL     1       3.734  14.655  18.503  0.00  0.00    +0.000 C 
ENDBRANCH  16  24
BRANCH  20  25
ATOM     25  C   UNL     1      -0.357  11.432  22.218  0.00  0.00    +0.000 C 
BRANCH  25  26
ATOM     26  C   UNL     1      -1.402  12.458  22.595  0.00  0.00    +0.000 C 
ATOM     27  C   UNL     1      -2.780  12.620  21.985  0.00  0.00    +0.000 C 
ATOM     28  C   UNL     1      -2.636  11.955  23.320  0.00  0.00    +0.000 C 
ENDBRANCH  25  26
ENDBRANCH  20  25
ENDBRANCH   1  20
TORSDOF 5
ENDMDL
