MODEL 1
REMARK VINA RESULT:      -7.2      0.000      0.000
REMARK  Name = 
REMARK  2 active torsions:
REMARK  status: ('A' for Active; 'I' for Inactive)
REMARK    1  A    between atoms: C_2  and  C_3
REMARK    2  A    between atoms: C_8  and  C_9
REMARK                            x       y       z     vdW  Elec       q    Type
REMARK                         _______ _______ _______ _____ _____    ______ ____
ROOT
ATOM      1  C   UNL     1       6.017   4.921  17.690  0.00  0.00    +0.000 A 
ATOM      2  C   UNL     1       7.182   5.398  17.065  0.00  0.00    +0.000 A 
ATOM      3  C   UNL     1       7.417   5.149  15.718  0.00  0.00    +0.000 A 
ATOM      4  C   UNL     1       6.478   4.434  14.987  0.00  0.00    +0.000 A 
ATOM      5  C   UNL     1       5.299   3.990  15.600  0.00  0.00    +0.000 A 
ATOM      6  C   UNL     1       5.024   4.216  16.971  0.00  0.00    +0.000 A 
ENDROOT
BRANCH   6   7
ATOM      7  C   UNL     1       3.731   3.734  17.538  0.00  0.00    +0.000 A 
ATOM      8  C   UNL     1       3.565   2.389  17.932  0.00  0.00    +0.000 A 
ATOM      9  C   UNL     1       2.350   1.914  18.444  0.00  0.00    +0.000 A 
ATOM     10  C   UNL     1       1.286   2.788  18.599  0.00  0.00    +0.000 A 
ATOM     11  F   UNL     1       0.131   2.342  19.110  0.00  0.00    +0.000 F 
ATOM     12  C   UNL     1       1.405   4.116  18.225  0.00  0.00    +0.000 A 
ATOM     13  C   UNL     1       2.606   4.576  17.671  0.00  0.00    +0.000 A 
ENDBRANCH   6   7
BRANCH   1  15
ATOM     14  O   UNL     1       6.935   5.298  19.842  0.00  0.00    +0.000 OA
ATOM     15  C   UNL     1       5.934   5.155  19.152  0.00  0.00    +0.000 C 
ENDBRANCH   1  15
TORSDOF 2
ENDMDL
MODEL 2
REMARK VINA RESULT:      -7.2      0.055      1.243
REMARK  Name = 
REMARK  2 active torsions:
REMARK  status: ('A' for Active; 'I' for Inactive)
REMARK    1  A    between atoms: C_2  and  C_3
REMARK    2  A    between atoms: C_8  and  C_9
REMARK                            x       y       z     vdW  Elec       q    Type
REMARK                         _______ _______ _______ _____ _____    ______ ____
ROOT
ATOM      1  C   UNL     1       6.019   4.862  17.689  0.00  0.00    +0.000 A 
ATOM      2  C   UNL     1       7.183   5.360  17.079  0.00  0.00    +0.000 A 
ATOM      3  C   UNL     1       7.415   5.159  15.723  0.00  0.00    +0.000 A 
ATOM      4  C   UNL     1       6.474   4.470  14.969  0.00  0.00    +0.000 A 
ATOM      5  C   UNL     1       5.297   4.005  15.568  0.00  0.00    +0.000 A 
ATOM      6  C   UNL     1       5.024   4.183  16.947  0.00  0.00    +0.000 A 
ENDROOT
BRANCH   6   7
ATOM      7  C   UNL     1       3.733   3.681  17.499  0.00  0.00    +0.000 A 
ATOM      8  C   UNL     1       2.614   4.533  17.626  0.00  0.00    +0.000 A 
ATOM      9  C   UNL     1       1.401   4.085  18.166  0.00  0.00    +0.000 A 
ATOM     10  C   UNL     1       1.278   2.763  18.562  0.00  0.00    +0.000 A 
ATOM     11  F   UNL     1       0.112   2.325  19.057  0.00  0.00    +0.000 F 
ATOM     12  C   UNL     1       2.349   1.892  18.456  0.00  0.00    +0.000 A 
ATOM     13  C   UNL     1       3.574   2.356  17.959  0.00  0.00    +0.000 A 
ENDBRANCH   6   7
BRANCH   1  15
ATOM     14  O   UNL     1       6.920   5.340  19.827  0.00  0.00    +0.000 OA
ATOM     15  C   UNL     1       5.938   5.043  19.158  0.00  0.00    +0.000 C 
ENDBRANCH   1  15
TORSDOF 2
ENDMDL
MODEL 3
REMARK VINA RESULT:      -6.9      3.029      5.304
REMARK  Name = 
REMARK  2 active torsions:
REMARK  status: ('A' for Active; 'I' for Inactive)
REMARK    1  A    between atoms: C_2  and  C_3
REMARK    2  A    between atoms: C_8  and  C_9
REMARK                            x       y       z     vdW  Elec       q    Type
REMARK                         _______ _______ _______ _____ _____    ______ ____
ROOT
ATOM      1  C   UNL     1       3.590   2.918  20.129  0.00  0.00    +0.000 A 
ATOM      2  C   UNL     1       2.561   2.825  21.082  0.00  0.00    +0.000 A 
ATOM      3  C   UNL     1       1.630   3.847  21.223  0.00  0.00    +0.000 A 
ATOM      4  C   UNL     1       1.716   4.961  20.400  0.00  0.00    +0.000 A 
ATOM      5  C   UNL     1       2.718   5.039  19.424  0.00  0.00    +0.000 A 
ATOM      6  C   UNL     1       3.691   4.024  19.251  0.00  0.00    +0.000 A 
ENDROOT
BRANCH   6   7
ATOM      7  C   UNL     1       4.708   4.172  18.170  0.00  0.00    +0.000 A 
ATOM      8  C   UNL     1       6.021   4.604  18.458  0.00  0.00    +0.000 A 
ATOM      9  C   UNL     1       6.980   4.773  17.452  0.00  0.00    +0.000 A 
ATOM     10  C   UNL     1       6.650   4.482  16.138  0.00  0.00    +0.000 A 
ATOM     11  F   UNL     1       7.573   4.619  15.176  0.00  0.00    +0.000 F 
ATOM     12  C   UNL     1       5.374   4.055  15.810  0.00  0.00    +0.000 A 
ATOM     13  C   UNL     1       4.404   3.933  16.813  0.00  0.00    +0.000 A 
ENDBRANCH   6   7
BRANCH   1  15
ATOM     14  O   UNL     1       5.303   1.616  21.119  0.00  0.00    +0.000 OA
ATOM     15  C   UNL     1       4.584   1.819  20.149  0.00  0.00    +0.000 C 
ENDBRANCH   1  15
TORSDOF 2
ENDMDL
MODEL 4
REMARK VINA RESULT:      -6.9      2.051      2.830
REMARK  Name = 
REMARK  2 active torsions:
REMARK  status: ('A' for Active; 'I' for Inactive)
REMARK    1  A    between atoms: C_2  and  C_3
REMARK    2  A    between atoms: C_8  and  C_9
REMARK                            x       y       z     vdW  Elec       q    Type
REMARK                         _______ _______ _______ _____ _____    ______ ____
ROOT
ATOM      1  C   UNL     1       5.726   6.311  17.351  0.00  0.00    +0.000 A 
ATOM      2  C   UNL     1       6.987   6.932  17.373  0.00  0.00    +0.000 A 
ATOM      3  C   UNL     1       7.895   6.656  18.388  0.00  0.00    +0.000 A 
ATOM      4  C   UNL     1       7.550   5.745  19.378  0.00  0.00    +0.000 A 
ATOM      5  C   UNL     1       6.309   5.098  19.336  0.00  0.00    +0.000 A 
ATOM      6  C   UNL     1       5.352   5.354  18.324  0.00  0.00    +0.000 A 
ENDROOT
BRANCH   6   7
ATOM      7  C   UNL     1       4.065   4.600  18.337  0.00  0.00    +0.000 A 
ATOM      8  C   UNL     1       3.000   4.991  19.178  0.00  0.00    +0.000 A 
ATOM      9  C   UNL     1       1.794   4.279  19.221  0.00  0.00    +0.000 A 
ATOM     10  C   UNL     1       1.621   3.178  18.397  0.00  0.00    +0.000 A 
ATOM     11  F   UNL     1       0.460   2.510  18.419  0.00  0.00    +0.000 F 
ATOM     12  C   UNL     1       2.639   2.760  17.557  0.00  0.00    +0.000 A 
ATOM     13  C   UNL     1       3.860   3.446  17.551  0.00  0.00    +0.000 A 
ENDBRANCH   6   7
BRANCH   1  15
ATOM     14  O   UNL     1       5.171   6.882  15.119  0.00  0.00    +0.000 OA
ATOM     15  C   UNL     1       4.805   6.769  16.283  0.00  0.00    +0.000 C 
ENDBRANCH   1  15
TORSDOF 2
ENDMDL
MODEL 5
REMARK VINA RESULT:      -6.9      2.044      2.643
REMARK  Name = 
REMARK  2 active torsions:
REMARK  status: ('A' for Active; 'I' for Inactive)
REMARK    1  A    between atoms: C_2  and  C_3
REMARK    2  A    between atoms: C_8  and  C_9
REMARK                            x       y       z     vdW  Elec       q    Type
REMARK                         _______ _______ _______ _____ _____    ______ ____
ROOT
ATOM      1  C   UNL     1       5.728   6.293  17.350  0.00  0.00    +0.000 A 
ATOM      2  C   UNL     1       6.990   6.913  17.363  0.00  0.00    +0.000 A 
ATOM      3  C   UNL     1       7.892   6.663  18.391  0.00  0.00    +0.000 A 
ATOM      4  C   UNL     1       7.540   5.779  19.403  0.00  0.00    +0.000 A 
ATOM      5  C   UNL     1       6.297   5.133  19.371  0.00  0.00    +0.000 A 
ATOM      6  C   UNL     1       5.347   5.364  18.346  0.00  0.00    +0.000 A 
ENDROOT
BRANCH   6   7
ATOM      7  C   UNL     1       4.058   4.612  18.372  0.00  0.00    +0.000 A 
ATOM      8  C   UNL     1       3.898   3.416  17.639  0.00  0.00    +0.000 A 
ATOM      9  C   UNL     1       2.686   2.711  17.632  0.00  0.00    +0.000 A 
ATOM     10  C   UNL     1       1.621   3.177  18.386  0.00  0.00    +0.000 A 
ATOM     11  F   UNL     1       0.470   2.492  18.400  0.00  0.00    +0.000 F 
ATOM     12  C   UNL     1       1.735   4.346  19.119  0.00  0.00    +0.000 A 
ATOM     13  C   UNL     1       2.932   5.073  19.086  0.00  0.00    +0.000 A 
ENDBRANCH   6   7
BRANCH   1  15
ATOM     14  O   UNL     1       5.209   6.890  15.117  0.00  0.00    +0.000 OA
ATOM     15  C   UNL     1       4.815   6.723  16.264  0.00  0.00    +0.000 C 
ENDBRANCH   1  15
TORSDOF 2
ENDMDL
MODEL 6
REMARK VINA RESULT:      -6.8      3.237      5.660
REMARK  Name = 
REMARK  2 active torsions:
REMARK  status: ('A' for Active; 'I' for Inactive)
REMARK    1  A    between atoms: C_2  and  C_3
REMARK    2  A    between atoms: C_8  and  C_9
REMARK                            x       y       z     vdW  Elec       q    Type
REMARK                         _______ _______ _______ _____ _____    ______ ____
ROOT
ATOM      1  C   UNL     1       2.777   3.351  18.783  0.00  0.00    +0.000 A 
ATOM      2  C   UNL     1       1.583   2.837  19.317  0.00  0.00    +0.000 A 
ATOM      3  C   UNL     1       0.844   3.571  20.238  0.00  0.00    +0.000 A 
ATOM      4  C   UNL     1       1.291   4.830  20.616  0.00  0.00    +0.000 A 
ATOM      5  C   UNL     1       2.461   5.359  20.057  0.00  0.00    +0.000 A 
ATOM      6  C   UNL     1       3.247   4.642  19.121  0.00  0.00    +0.000 A 
ENDROOT
BRANCH   6   7
ATOM      7  C   UNL     1       4.465   5.289  18.552  0.00  0.00    +0.000 A 
ATOM      8  C   UNL     1       5.726   5.139  19.169  0.00  0.00    +0.000 A 
ATOM      9  C   UNL     1       6.875   5.760  18.662  0.00  0.00    +0.000 A 
ATOM     10  C   UNL     1       6.786   6.520  17.507  0.00  0.00    +0.000 A 
ATOM     11  F   UNL     1       7.888   7.096  17.006  0.00  0.00    +0.000 F 
ATOM     12  C   UNL     1       5.570   6.694  16.869  0.00  0.00    +0.000 A 
ATOM     13  C   UNL     1       4.415   6.110  17.405  0.00  0.00    +0.000 A 
ENDBRANCH   6   7
BRANCH   1  15
ATOM     14  O   UNL     1       3.774   1.276  18.224  0.00  0.00    +0.000 OA
ATOM     15  C   UNL     1       3.530   2.431  17.897  0.00  0.00    +0.000 C 
ENDBRANCH   1  15
TORSDOF 2
ENDMDL
MODEL 7
REMARK VINA RESULT:      -6.8      3.029      5.295
REMARK  Name = 
REMARK  2 active torsions:
REMARK  status: ('A' for Active; 'I' for Inactive)
REMARK    1  A    between atoms: C_2  and  C_3
REMARK    2  A    between atoms: C_8  and  C_9
REMARK                            x       y       z     vdW  Elec       q    Type
REMARK                         _______ _______ _______ _____ _____    ______ ____
ROOT
ATOM      1  C   UNL     1       3.611   3.128  19.936  0.00  0.00    +0.000 A 
ATOM      2  C   UNL     1       2.602   3.091  20.914  0.00  0.00    +0.000 A 
ATOM      3  C   UNL     1       1.814   4.208  21.162  0.00  0.00    +0.000 A 
ATOM      4  C   UNL     1       2.022   5.364  20.422  0.00  0.00    +0.000 A 
ATOM      5  C   UNL     1       3.002   5.391  19.422  0.00  0.00    +0.000 A 
ATOM      6  C   UNL     1       3.832   4.277  19.141  0.00  0.00    +0.000 A 
ENDROOT
BRANCH   6   7
ATOM      7  C   UNL     1       4.833   4.381  18.040  0.00  0.00    +0.000 A 
ATOM      8  C   UNL     1       4.469   4.130  16.698  0.00  0.00    +0.000 A 
ATOM      9  C   UNL     1       5.402   4.197  15.655  0.00  0.00    +0.000 A 
ATOM     10  C   UNL     1       6.713   4.549  15.934  0.00  0.00    +0.000 A 
ATOM     11  F   UNL     1       7.602   4.638  14.935  0.00  0.00    +0.000 F 
ATOM     12  C   UNL     1       7.114   4.803  17.235  0.00  0.00    +0.000 A 
ATOM     13  C   UNL     1       6.189   4.689  18.280  0.00  0.00    +0.000 A 
ENDBRANCH   6   7
BRANCH   1  15
ATOM     14  O   UNL     1       5.271   1.624  20.707  0.00  0.00    +0.000 OA
ATOM     15  C   UNL     1       4.456   1.914  19.840  0.00  0.00    +0.000 C 
ENDBRANCH   1  15
TORSDOF 2
ENDMDL
MODEL 8
REMARK VINA RESULT:      -6.8      3.259      5.788
REMARK  Name = 
REMARK  2 active torsions:
REMARK  status: ('A' for Active; 'I' for Inactive)
REMARK    1  A    between atoms: C_2  and  C_3
REMARK    2  A    between atoms: C_8  and  C_9
REMARK                            x       y       z     vdW  Elec       q    Type
REMARK                         _______ _______ _______ _____ _____    ______ ____
ROOT
ATOM      1  C   UNL     1       2.687   3.629  18.650  0.00  0.00    +0.000 A 
ATOM      2  C   UNL     1       1.476   3.141  19.170  0.00  0.00    +0.000 A 
ATOM      3  C   UNL     1       0.823   3.812  20.197  0.00  0.00    +0.000 A 
ATOM      4  C   UNL     1       1.372   4.984  20.699  0.00  0.00    +0.000 A 
ATOM      5  C   UNL     1       2.560   5.492  20.157  0.00  0.00    +0.000 A 
ATOM      6  C   UNL     1       3.261   4.836  19.114  0.00  0.00    +0.000 A 
ENDROOT
BRANCH   6   7
ATOM      7  C   UNL     1       4.504   5.459  18.575  0.00  0.00    +0.000 A 
ATOM      8  C   UNL     1       4.464   6.309  17.448  0.00  0.00    +0.000 A 
ATOM      9  C   UNL     1       5.625   6.882  16.913  0.00  0.00    +0.000 A 
ATOM     10  C   UNL     1       6.848   6.639  17.519  0.00  0.00    +0.000 A 
ATOM     11  F   UNL     1       7.957   7.205  17.024  0.00  0.00    +0.000 F 
ATOM     12  C   UNL     1       6.934   5.811  18.625  0.00  0.00    +0.000 A 
ATOM     13  C   UNL     1       5.777   5.203  19.128  0.00  0.00    +0.000 A 
ENDBRANCH   6   7
BRANCH   1  15
ATOM     14  O   UNL     1       3.684   1.620  17.888  0.00  0.00    +0.000 OA
ATOM     15  C   UNL     1       3.342   2.768  17.637  0.00  0.00    +0.000 C 
ENDBRANCH   1  15
TORSDOF 2
ENDMDL
MODEL 9
REMARK VINA RESULT:      -6.7      1.558      2.429
REMARK  Name = 
REMARK  2 active torsions:
REMARK  status: ('A' for Active; 'I' for Inactive)
REMARK    1  A    between atoms: C_2  and  C_3
REMARK    2  A    between atoms: C_8  and  C_9
REMARK                            x       y       z     vdW  Elec       q    Type
REMARK                         _______ _______ _______ _____ _____    ______ ____
ROOT
ATOM      1  C   UNL     1       6.032   4.365  17.044  0.00  0.00    +0.000 A 
ATOM      2  C   UNL     1       7.331   4.901  17.045  0.00  0.00    +0.000 A 
ATOM      3  C   UNL     1       7.826   5.560  18.165  0.00  0.00    +0.000 A 
ATOM      4  C   UNL     1       7.026   5.672  19.294  0.00  0.00    +0.000 A 
ATOM      5  C   UNL     1       5.745   5.106  19.307  0.00  0.00    +0.000 A 
ATOM      6  C   UNL     1       5.200   4.432  18.186  0.00  0.00    +0.000 A 
ENDROOT
BRANCH   6   7
ATOM      7  C   UNL     1       3.838   3.833  18.294  0.00  0.00    +0.000 A 
ATOM      8  C   UNL     1       3.655   2.522  18.784  0.00  0.00    +0.000 A 
ATOM      9  C   UNL     1       2.385   1.935  18.867  0.00  0.00    +0.000 A 
ATOM     10  C   UNL     1       1.270   2.665  18.490  0.00  0.00    +0.000 A 
ATOM     11  F   UNL     1       0.052   2.115  18.592  0.00  0.00    +0.000 F 
ATOM     12  C   UNL     1       1.403   3.955  18.003  0.00  0.00    +0.000 A 
ATOM     13  C   UNL     1       2.678   4.521  17.877  0.00  0.00    +0.000 A 
ENDBRANCH   6   7
BRANCH   1  15
ATOM     14  O   UNL     1       6.296   3.777  14.764  0.00  0.00    +0.000 OA
ATOM     15  C   UNL     1       5.580   3.784  15.757  0.00  0.00    +0.000 C 
ENDBRANCH   1  15
TORSDOF 2
ENDMDL
