MODEL 1
REMARK VINA RESULT:      -6.8      0.000      0.000
REMARK  Name = 
REMARK  6 active torsions:
REMARK  status: ('A' for Active; 'I' for Inactive)
REMARK    1  A    between atoms: C_1  and  O_2
REMARK    2  A    between atoms: O_2  and  C_3
REMARK    3  A    between atoms: C_6  and  C_7
REMARK    4  A    between atoms: N_18  and  C_19
REMARK    5  A    between atoms: C_22  and  O_23
REMARK    6  A    between atoms: O_23  and  C_24
REMARK                            x       y       z     vdW  Elec       q    Type
REMARK                         _______ _______ _______ _____ _____    ______ ____
ROOT
ATOM      1  C   UNL     1      -5.028  12.609  19.310  0.00  0.00    +0.000 A 
ATOM      2  C   UNL     1      -6.235  13.271  19.139  0.00  0.00    +0.000 A 
ATOM      3  S   UNL     1      -6.627  14.301  20.426  0.00  0.00    +0.000 S 
ATOM      4  C   UNL     1      -5.211  13.876  21.266  0.00  0.00    +0.000 A 
ATOM      5  N   UNL     1      -5.032  14.415  22.485  0.00  0.00    +0.000 NA
ATOM      6  C   UNL     1      -3.905  14.005  23.049  0.00  0.00    +0.000 A 
ATOM      7  N   UNL     1      -2.981  13.208  22.512  0.00  0.00    +0.000 NA
ATOM      8  C   UNL     1      -3.130  12.719  21.241  0.00  0.00    +0.000 A 
ATOM      9  N   UNL     1      -2.027  12.035  20.773  0.00  0.00    +0.000 N 
ATOM     10  C   UNL     1      -1.584  12.001  19.381  0.00  0.00    +0.000 C 
ATOM     11  C   UNL     1      -0.057  12.083  19.238  0.00  0.00    +0.000 C 
ATOM     12  N   UNL     1       0.618  11.091  20.097  0.00  0.00    +0.000 N 
ATOM     13  C   UNL     1       0.202  11.149  21.517  0.00  0.00    +0.000 C 
ATOM     14  C   UNL     1      -1.340  11.093  21.677  0.00  0.00    +0.000 C 
ATOM     15  C   UNL     1      -4.365  13.008  20.570  0.00  0.00    +0.000 A 
ENDROOT
BRANCH   1  19
ATOM     16  C   UNL     1      -3.383  10.068  16.287  0.00  0.00    +0.000 A 
ATOM     17  C   UNL     1      -4.059  11.229  15.928  0.00  0.00    +0.000 A 
ATOM     18  C   UNL     1      -4.650  12.033  16.909  0.00  0.00    +0.000 A 
ATOM     19  C   UNL     1      -4.607  11.666  18.263  0.00  0.00    +0.000 A 
ATOM     20  C   UNL     1      -4.104  10.401  18.583  0.00  0.00    +0.000 A 
ATOM     21  C   UNL     1      -3.450   9.625  17.606  0.00  0.00    +0.000 A 
BRANCH  16  23
ATOM     22  C   UNL     1      -3.043   9.885  13.971  0.00  0.00    +0.000 C 
ATOM     23  O   UNL     1      -2.737   9.407  15.280  0.00  0.00    +0.000 OA
ENDBRANCH  16  23
ENDBRANCH   1  19
BRANCH  12  24
ATOM     24  C   UNL     1       1.215   9.945  19.607  0.00  0.00    +0.000 A 
ATOM     25  C   UNL     1       1.634   9.887  18.272  0.00  0.00    +0.000 A 
ATOM     26  C   UNL     1       2.187   8.727  17.715  0.00  0.00    +0.000 A 
ATOM     27  C   UNL     1       2.374   7.589  18.492  0.00  0.00    +0.000 A 
ATOM     28  C   UNL     1       1.970   7.615  19.821  0.00  0.00    +0.000 A 
ATOM     29  C   UNL     1       1.397   8.782  20.362  0.00  0.00    +0.000 A 
BRANCH  27  30
ATOM     30  O   UNL     1       2.896   6.514  17.831  0.00  0.00    +0.000 OA
ATOM     31  C   UNL     1       4.080   5.956  18.389  0.00  0.00    +0.000 C 
ENDBRANCH  27  30
ENDBRANCH  12  24
TORSDOF 4
ENDMDL
MODEL 2
REMARK VINA RESULT:      -6.7      0.657      1.078
REMARK  Name = 
REMARK  6 active torsions:
REMARK  status: ('A' for Active; 'I' for Inactive)
REMARK    1  A    between atoms: C_1  and  O_2
REMARK    2  A    between atoms: O_2  and  C_3
REMARK    3  A    between atoms: C_6  and  C_7
REMARK    4  A    between atoms: N_18  and  C_19
REMARK    5  A    between atoms: C_22  and  O_23
REMARK    6  A    between atoms: O_23  and  C_24
REMARK                            x       y       z     vdW  Elec       q    Type
REMARK                         _______ _______ _______ _____ _____    ______ ____
ROOT
ATOM      1  C   UNL     1      -5.509  12.831  19.401  0.00  0.00    +0.000 A 
ATOM      2  C   UNL     1      -6.750  13.432  19.240  0.00  0.00    +0.000 A 
ATOM      3  S   UNL     1      -7.154  14.492  20.499  0.00  0.00    +0.000 S 
ATOM      4  C   UNL     1      -5.699  14.161  21.315  0.00  0.00    +0.000 A 
ATOM      5  N   UNL     1      -5.513  14.753  22.508  0.00  0.00    +0.000 NA
ATOM      6  C   UNL     1      -4.353  14.415  23.055  0.00  0.00    +0.000 A 
ATOM      7  N   UNL     1      -3.409  13.640  22.521  0.00  0.00    +0.000 NA
ATOM      8  C   UNL     1      -3.569  13.098  21.274  0.00  0.00    +0.000 A 
ATOM      9  N   UNL     1      -2.449  12.447  20.800  0.00  0.00    +0.000 N 
ATOM     10  C   UNL     1      -2.041  12.380  19.399  0.00  0.00    +0.000 C 
ATOM     11  C   UNL     1      -0.523  12.524  19.211  0.00  0.00    +0.000 C 
ATOM     12  N   UNL     1       0.218  11.596  20.086  0.00  0.00    +0.000 N 
ATOM     13  C   UNL     1      -0.163  11.688  21.514  0.00  0.00    +0.000 C 
ATOM     14  C   UNL     1      -1.696  11.570  21.719  0.00  0.00    +0.000 C 
ATOM     15  C   UNL     1      -4.833  13.306  20.627  0.00  0.00    +0.000 A 
ENDROOT
BRANCH   1  19
ATOM     16  C   UNL     1      -3.808  10.186  16.502  0.00  0.00    +0.000 A 
ATOM     17  C   UNL     1      -4.308  11.422  16.107  0.00  0.00    +0.000 A 
ATOM     18  C   UNL     1      -4.920  12.266  17.041  0.00  0.00    +0.000 A 
ATOM     19  C   UNL     1      -5.074  11.869  18.379  0.00  0.00    +0.000 A 
ATOM     20  C   UNL     1      -4.750  10.550  18.711  0.00  0.00    +0.000 A 
ATOM     21  C   UNL     1      -4.075   9.726  17.789  0.00  0.00    +0.000 A 
BRANCH  16  23
ATOM     22  C   UNL     1      -3.240  10.002  14.231  0.00  0.00    +0.000 C 
ATOM     23  O   UNL     1      -3.123   9.479  15.553  0.00  0.00    +0.000 OA
ENDBRANCH  16  23
ENDBRANCH   1  19
BRANCH  12  24
ATOM     24  C   UNL     1       0.854  10.460  19.621  0.00  0.00    +0.000 A 
ATOM     25  C   UNL     1       0.997   9.343  20.454  0.00  0.00    +0.000 A 
ATOM     26  C   UNL     1       1.687   8.195  20.048  0.00  0.00    +0.000 A 
ATOM     27  C   UNL     1       2.229   8.110  18.771  0.00  0.00    +0.000 A 
ATOM     28  C   UNL     1       2.104   9.201  17.919  0.00  0.00    +0.000 A 
ATOM     29  C   UNL     1       1.425  10.358  18.349  0.00  0.00    +0.000 A 
BRANCH  27  30
ATOM     30  O   UNL     1       2.902   6.953  18.501  0.00  0.00    +0.000 OA
ATOM     31  C   UNL     1       2.566   5.835  19.314  0.00  0.00    +0.000 C 
ENDBRANCH  27  30
ENDBRANCH  12  24
TORSDOF 4
ENDMDL
MODEL 3
REMARK VINA RESULT:      -6.6      1.542      2.180
REMARK  Name = 
REMARK  6 active torsions:
REMARK  status: ('A' for Active; 'I' for Inactive)
REMARK    1  A    between atoms: C_1  and  O_2
REMARK    2  A    between atoms: O_2  and  C_3
REMARK    3  A    between atoms: C_6  and  C_7
REMARK    4  A    between atoms: N_18  and  C_19
REMARK    5  A    between atoms: C_22  and  O_23
REMARK    6  A    between atoms: O_23  and  C_24
REMARK                            x       y       z     vdW  Elec       q    Type
REMARK                         _______ _______ _______ _____ _____    ______ ____
ROOT
ATOM      1  C   UNL     1      -3.089  12.434  19.901  0.00  0.00    +0.000 A 
ATOM      2  C   UNL     1      -3.989  13.484  19.779  0.00  0.00    +0.000 A 
ATOM      3  S   UNL     1      -4.140  14.410  21.191  0.00  0.00    +0.000 S 
ATOM      4  C   UNL     1      -3.030  13.423  22.019  0.00  0.00    +0.000 A 
ATOM      5  N   UNL     1      -2.801  13.706  23.313  0.00  0.00    +0.000 NA
ATOM      6  C   UNL     1      -1.930  12.868  23.859  0.00  0.00    +0.000 A 
ATOM      7  N   UNL     1      -1.273  11.882  23.248  0.00  0.00    +0.000 NA
ATOM      8  C   UNL     1      -1.454  11.642  21.911  0.00  0.00    +0.000 A 
ATOM      9  N   UNL     1      -0.599  10.691  21.395  0.00  0.00    +0.000 N 
ATOM     10  C   UNL     1      -0.061  10.689  20.036  0.00  0.00    +0.000 C 
ATOM     11  C   UNL     1       1.414  10.265  19.977  0.00  0.00    +0.000 C 
ATOM     12  N   UNL     1       1.640   9.001  20.703  0.00  0.00    +0.000 N 
ATOM     13  C   UNL     1       1.133   9.012  22.095  0.00  0.00    +0.000 C 
ATOM     14  C   UNL     1      -0.350   9.463  22.173  0.00  0.00    +0.000 C 
ATOM     15  C   UNL     1      -2.455  12.418  21.237  0.00  0.00    +0.000 A 
ENDROOT
BRANCH   1  19
ATOM     16  C   UNL     1      -2.920  10.078  16.336  0.00  0.00    +0.000 A 
ATOM     17  C   UNL     1      -3.626   9.616  17.442  0.00  0.00    +0.000 A 
ATOM     18  C   UNL     1      -3.636  10.355  18.630  0.00  0.00    +0.000 A 
ATOM     19  C   UNL     1      -2.905  11.549  18.742  0.00  0.00    +0.000 A 
ATOM     20  C   UNL     1      -2.044  11.889  17.695  0.00  0.00    +0.000 A 
ATOM     21  C   UNL     1      -2.086  11.184  16.477  0.00  0.00    +0.000 A 
BRANCH  16  23
ATOM     22  C   UNL     1      -3.498  10.118  14.061  0.00  0.00    +0.000 C 
ATOM     23  O   UNL     1      -3.062   9.355  15.184  0.00  0.00    +0.000 OA
ENDBRANCH  16  23
ENDBRANCH   1  19
BRANCH  12  24
ATOM     24  C   UNL     1       1.870   7.794  20.070  0.00  0.00    +0.000 A 
ATOM     25  C   UNL     1       2.291   7.770  18.735  0.00  0.00    +0.000 A 
ATOM     26  C   UNL     1       2.477   6.572  18.034  0.00  0.00    +0.000 A 
ATOM     27  C   UNL     1       2.281   5.347  18.663  0.00  0.00    +0.000 A 
ATOM     28  C   UNL     1       1.863   5.337  19.988  0.00  0.00    +0.000 A 
ATOM     29  C   UNL     1       1.661   6.550  20.674  0.00  0.00    +0.000 A 
BRANCH  27  30
ATOM     30  O   UNL     1       2.466   4.251  17.870  0.00  0.00    +0.000 OA
ATOM     31  C   UNL     1       3.768   4.097  17.316  0.00  0.00    +0.000 C 
ENDBRANCH  27  30
ENDBRANCH  12  24
TORSDOF 4
ENDMDL
MODEL 4
REMARK VINA RESULT:      -6.5      3.565      5.304
REMARK  Name = 
REMARK  6 active torsions:
REMARK  status: ('A' for Active; 'I' for Inactive)
REMARK    1  A    between atoms: C_1  and  O_2
REMARK    2  A    between atoms: O_2  and  C_3
REMARK    3  A    between atoms: C_6  and  C_7
REMARK    4  A    between atoms: N_18  and  C_19
REMARK    5  A    between atoms: C_22  and  O_23
REMARK    6  A    between atoms: O_23  and  C_24
REMARK                            x       y       z     vdW  Elec       q    Type
REMARK                         _______ _______ _______ _____ _____    ______ ____
ROOT
ATOM      1  C   UNL     1      -1.901  16.034  20.780  0.00  0.00    +0.000 A 
ATOM      2  C   UNL     1      -2.651  17.182  20.998  0.00  0.00    +0.000 A 
ATOM      3  S   UNL     1      -2.060  18.539  20.173  0.00  0.00    +0.000 S 
ATOM      4  C   UNL     1      -0.768  17.646  19.522  0.00  0.00    +0.000 A 
ATOM      5  N   UNL     1       0.121  18.311  18.764  0.00  0.00    +0.000 NA
ATOM      6  C   UNL     1       1.088  17.519  18.320  0.00  0.00    +0.000 A 
ATOM      7  N   UNL     1       1.199  16.204  18.508  0.00  0.00    +0.000 NA
ATOM      8  C   UNL     1       0.252  15.516  19.220  0.00  0.00    +0.000 A 
ATOM      9  N   UNL     1       0.426  14.147  19.201  0.00  0.00    +0.000 N 
ATOM     10  C   UNL     1      -0.650  13.160  19.230  0.00  0.00    +0.000 C 
ATOM     11  C   UNL     1      -0.391  11.966  18.298  0.00  0.00    +0.000 C 
ATOM     12  N   UNL     1       0.947  11.387  18.524  0.00  0.00    +0.000 N 
ATOM     13  C   UNL     1       2.046  12.378  18.456  0.00  0.00    +0.000 C 
ATOM     14  C   UNL     1       1.787  13.602  19.372  0.00  0.00    +0.000 C 
ATOM     15  C   UNL     1      -0.787  16.285  19.841  0.00  0.00    +0.000 A 
ENDROOT
BRANCH   1  19
ATOM     16  C   UNL     1      -3.315  12.734  23.105  0.00  0.00    +0.000 A 
ATOM     17  C   UNL     1      -2.055  13.268  23.350  0.00  0.00    +0.000 A 
ATOM     18  C   UNL     1      -1.563  14.308  22.554  0.00  0.00    +0.000 A 
ATOM     19  C   UNL     1      -2.311  14.804  21.474  0.00  0.00    +0.000 A 
ATOM     20  C   UNL     1      -3.479  14.123  21.119  0.00  0.00    +0.000 A 
ATOM     21  C   UNL     1      -4.005  13.122  21.959  0.00  0.00    +0.000 A 
BRANCH  16  23
ATOM     22  C   UNL     1      -4.783  12.276  24.880  0.00  0.00    +0.000 C 
ATOM     23  O   UNL     1      -3.763  11.804  24.002  0.00  0.00    +0.000 OA
ENDBRANCH  16  23
ENDBRANCH   1  19
BRANCH  12  24
ATOM     24  C   UNL     1       1.153  10.183  19.170  0.00  0.00    +0.000 A 
ATOM     25  C   UNL     1       1.833   9.144  18.522  0.00  0.00    +0.000 A 
ATOM     26  C   UNL     1       2.009   7.888  19.113  0.00  0.00    +0.000 A 
ATOM     27  C   UNL     1       1.541   7.638  20.398  0.00  0.00    +0.000 A 
ATOM     28  C   UNL     1       0.862   8.648  21.068  0.00  0.00    +0.000 A 
ATOM     29  C   UNL     1       0.674   9.901  20.453  0.00  0.00    +0.000 A 
BRANCH  27  30
ATOM     30  O   UNL     1       1.749   6.368  20.855  0.00  0.00    +0.000 OA
ATOM     31  C   UNL     1       2.319   5.457  19.923  0.00  0.00    +0.000 C 
ENDBRANCH  27  30
ENDBRANCH  12  24
TORSDOF 4
ENDMDL
MODEL 5
REMARK VINA RESULT:      -6.4      4.325      7.881
REMARK  Name = 
REMARK  6 active torsions:
REMARK  status: ('A' for Active; 'I' for Inactive)
REMARK    1  A    between atoms: C_1  and  O_2
REMARK    2  A    between atoms: O_2  and  C_3
REMARK    3  A    between atoms: C_6  and  C_7
REMARK    4  A    between atoms: N_18  and  C_19
REMARK    5  A    between atoms: C_22  and  O_23
REMARK    6  A    between atoms: O_23  and  C_24
REMARK                            x       y       z     vdW  Elec       q    Type
REMARK                         _______ _______ _______ _____ _____    ______ ____
ROOT
ATOM      1  C   UNL     1       1.597  14.461  18.910  0.00  0.00    +0.000 A 
ATOM      2  C   UNL     1       2.765  14.429  18.162  0.00  0.00    +0.000 A 
ATOM      3  S   UNL     1       3.293  15.963  17.671  0.00  0.00    +0.000 S 
ATOM      4  C   UNL     1       1.963  16.716  18.416  0.00  0.00    +0.000 A 
ATOM      5  N   UNL     1       1.851  18.049  18.276  0.00  0.00    +0.000 NA
ATOM      6  C   UNL     1       0.775  18.525  18.886  0.00  0.00    +0.000 A 
ATOM      7  N   UNL     1      -0.101  17.839  19.621  0.00  0.00    +0.000 NA
ATOM      8  C   UNL     1       0.056  16.493  19.823  0.00  0.00    +0.000 A 
ATOM      9  N   UNL     1      -0.842  15.956  20.723  0.00  0.00    +0.000 N 
ATOM     10  C   UNL     1      -0.564  14.848  21.633  0.00  0.00    +0.000 C 
ATOM     11  C   UNL     1      -1.177  15.050  23.027  0.00  0.00    +0.000 C 
ATOM     12  N   UNL     1      -2.609  15.397  22.939  0.00  0.00    +0.000 N 
ATOM     13  C   UNL     1      -2.892  16.546  22.049  0.00  0.00    +0.000 C 
ATOM     14  C   UNL     1      -2.257  16.368  20.645  0.00  0.00    +0.000 C 
ATOM     15  C   UNL     1       1.127  15.847  19.122  0.00  0.00    +0.000 A 
ENDROOT
BRANCH   1  19
ATOM     16  C   UNL     1      -0.274  10.979  20.543  0.00  0.00    +0.000 A 
ATOM     17  C   UNL     1       0.980  11.371  20.997  0.00  0.00    +0.000 A 
ATOM     18  C   UNL     1       1.622  12.475  20.425  0.00  0.00    +0.000 A 
ATOM     19  C   UNL     1       1.035  13.179  19.361  0.00  0.00    +0.000 A 
ATOM     20  C   UNL     1      -0.124  12.649  18.787  0.00  0.00    +0.000 A 
ATOM     21  C   UNL     1      -0.804  11.581  19.405  0.00  0.00    +0.000 A 
BRANCH  16  23
ATOM     22  C   UNL     1      -0.056   8.820  21.441  0.00  0.00    +0.000 C 
ATOM     23  O   UNL     1      -0.879   9.966  21.236  0.00  0.00    +0.000 OA
ENDBRANCH  16  23
ENDBRANCH   1  19
BRANCH  12  24
ATOM     24  C   UNL     1      -3.623  14.514  23.258  0.00  0.00    +0.000 A 
ATOM     25  C   UNL     1      -4.951  14.824  22.941  0.00  0.00    +0.000 A 
ATOM     26  C   UNL     1      -6.016  13.990  23.300  0.00  0.00    +0.000 A 
ATOM     27  C   UNL     1      -5.783  12.789  23.961  0.00  0.00    +0.000 A 
ATOM     28  C   UNL     1      -4.476  12.451  24.289  0.00  0.00    +0.000 A 
ATOM     29  C   UNL     1      -3.416  13.310  23.940  0.00  0.00    +0.000 A 
BRANCH  27  30
ATOM     30  O   UNL     1      -6.902  12.075  24.282  0.00  0.00    +0.000 OA
ATOM     31  C   UNL     1      -7.842  11.886  23.230  0.00  0.00    +0.000 C 
ENDBRANCH  27  30
ENDBRANCH  12  24
TORSDOF 4
ENDMDL
MODEL 6
REMARK VINA RESULT:      -6.4      3.881      7.319
REMARK  Name = 
REMARK  6 active torsions:
REMARK  status: ('A' for Active; 'I' for Inactive)
REMARK    1  A    between atoms: C_1  and  O_2
REMARK    2  A    between atoms: O_2  and  C_3
REMARK    3  A    between atoms: C_6  and  C_7
REMARK    4  A    between atoms: N_18  and  C_19
REMARK    5  A    between atoms: C_22  and  O_23
REMARK    6  A    between atoms: O_23  and  C_24
REMARK                            x       y       z     vdW  Elec       q    Type
REMARK                         _______ _______ _______ _____ _____    ______ ____
ROOT
ATOM      1  C   UNL     1       2.114  13.921  19.924  0.00  0.00    +0.000 A 
ATOM      2  C   UNL     1       3.386  13.943  19.369  0.00  0.00    +0.000 A 
ATOM      3  S   UNL     1       4.453  14.989  20.170  0.00  0.00    +0.000 S 
ATOM      4  C   UNL     1       3.243  15.467  21.265  0.00  0.00    +0.000 A 
ATOM      5  N   UNL     1       3.568  16.409  22.168  0.00  0.00    +0.000 NA
ATOM      6  C   UNL     1       2.548  16.712  22.960  0.00  0.00    +0.000 A 
ATOM      7  N   UNL     1       1.339  16.149  22.963  0.00  0.00    +0.000 NA
ATOM      8  C   UNL     1       1.034  15.138  22.090  0.00  0.00    +0.000 A 
ATOM      9  N   UNL     1      -0.198  14.561  22.314  0.00  0.00    +0.000 N 
ATOM     10  C   UNL     1      -0.525  13.155  22.087  0.00  0.00    +0.000 C 
ATOM     11  C   UNL     1      -1.425  12.565  23.183  0.00  0.00    +0.000 C 
ATOM     12  N   UNL     1      -2.608  13.415  23.423  0.00  0.00    +0.000 N 
ATOM     13  C   UNL     1      -2.279  14.833  23.694  0.00  0.00    +0.000 C 
ATOM     14  C   UNL     1      -1.349  15.436  22.609  0.00  0.00    +0.000 C 
ATOM     15  C   UNL     1       2.026  14.798  21.111  0.00  0.00    +0.000 A 
ENDROOT
BRANCH   1  19
ATOM     16  C   UNL     1      -1.048  11.428  18.482  0.00  0.00    +0.000 A 
ATOM     17  C   UNL     1       0.135  10.856  18.939  0.00  0.00    +0.000 A 
ATOM     18  C   UNL     1       1.195  11.669  19.356  0.00  0.00    +0.000 A 
ATOM     19  C   UNL     1       1.101  13.068  19.285  0.00  0.00    +0.000 A 
ATOM     20  C   UNL     1      -0.010  13.617  18.637  0.00  0.00    +0.000 A 
ATOM     21  C   UNL     1      -1.103  12.804  18.280  0.00  0.00    +0.000 A 
BRANCH  16  23
ATOM     22  C   UNL     1      -1.975   9.921  16.938  0.00  0.00    +0.000 C 
ATOM     23  O   UNL     1      -2.071  10.563  18.208  0.00  0.00    +0.000 OA
ENDBRANCH  16  23
ENDBRANCH   1  19
BRANCH  12  24
ATOM     24  C   UNL     1      -3.881  13.077  23.006  0.00  0.00    +0.000 A 
ATOM     25  C   UNL     1      -4.120  12.758  21.664  0.00  0.00    +0.000 A 
ATOM     26  C   UNL     1      -5.403  12.471  21.184  0.00  0.00    +0.000 A 
ATOM     27  C   UNL     1      -6.494  12.454  22.046  0.00  0.00    +0.000 A 
ATOM     28  C   UNL     1      -6.290  12.765  23.385  0.00  0.00    +0.000 A 
ATOM     29  C   UNL     1      -4.997  13.073  23.849  0.00  0.00    +0.000 A 
BRANCH  27  30
ATOM     30  O   UNL     1      -7.696  12.187  21.456  0.00  0.00    +0.000 OA
ATOM     31  C   UNL     1      -7.701  11.129  20.506  0.00  0.00    +0.000 C 
ENDBRANCH  27  30
ENDBRANCH  12  24
TORSDOF 4
ENDMDL
MODEL 7
REMARK VINA RESULT:      -6.4      8.228     11.702
REMARK  Name = 
REMARK  6 active torsions:
REMARK  status: ('A' for Active; 'I' for Inactive)
REMARK    1  A    between atoms: C_1  and  O_2
REMARK    2  A    between atoms: O_2  and  C_3
REMARK    3  A    between atoms: C_6  and  C_7
REMARK    4  A    between atoms: N_18  and  C_19
REMARK    5  A    between atoms: C_22  and  O_23
REMARK    6  A    between atoms: O_23  and  C_24
REMARK                            x       y       z     vdW  Elec       q    Type
REMARK                         _______ _______ _______ _____ _____    ______ ____
ROOT
ATOM      1  C   UNL     1       9.709  14.900  21.039  0.00  0.00    +0.000 A 
ATOM      2  C   UNL     1      10.979  15.204  21.509  0.00  0.00    +0.000 A 
ATOM      3  S   UNL     1      11.858  16.215  20.471  0.00  0.00    +0.000 S 
ATOM      4  C   UNL     1      10.583  16.257  19.347  0.00  0.00    +0.000 A 
ATOM      5  N   UNL     1      10.789  16.938  18.207  0.00  0.00    +0.000 NA
ATOM      6  C   UNL     1       9.735  16.894  17.403  0.00  0.00    +0.000 A 
ATOM      7  N   UNL     1       8.559  16.319  17.653  0.00  0.00    +0.000 NA
ATOM      8  C   UNL     1       8.326  15.688  18.846  0.00  0.00    +0.000 A 
ATOM      9  N   UNL     1       7.020  15.275  19.013  0.00  0.00    +0.000 N 
ATOM     10  C   UNL     1       6.308  15.224  20.288  0.00  0.00    +0.000 C 
ATOM     11  C   UNL     1       4.848  15.689  20.176  0.00  0.00    +0.000 C 
ATOM     12  N   UNL     1       4.145  14.995  19.080  0.00  0.00    +0.000 N 
ATOM     13  C   UNL     1       4.843  15.078  17.776  0.00  0.00    +0.000 C 
ATOM     14  C   UNL     1       6.327  14.637  17.878  0.00  0.00    +0.000 C 
ATOM     15  C   UNL     1       9.431  15.578  19.754  0.00  0.00    +0.000 A 
ENDROOT
BRANCH   1  19
ATOM     16  C   UNL     1       7.668  12.162  23.614  0.00  0.00    +0.000 A 
ATOM     17  C   UNL     1       8.079  11.753  22.351  0.00  0.00    +0.000 A 
ATOM     18  C   UNL     1       8.694  12.661  21.481  0.00  0.00    +0.000 A 
ATOM     19  C   UNL     1       8.872  14.004  21.850  0.00  0.00    +0.000 A 
ATOM     20  C   UNL     1       8.273  14.442  23.036  0.00  0.00    +0.000 A 
ATOM     21  C   UNL     1       7.715  13.516  23.938  0.00  0.00    +0.000 A 
BRANCH  16  23
ATOM     22  C   UNL     1       5.985  11.531  25.125  0.00  0.00    +0.000 C 
ATOM     23  O   UNL     1       7.186  11.184  24.439  0.00  0.00    +0.000 OA
ENDBRANCH  16  23
ENDBRANCH   1  19
BRANCH  12  24
ATOM     24  C   UNL     1       3.206  14.004  19.289  0.00  0.00    +0.000 A 
ATOM     25  C   UNL     1       2.638  13.830  20.557  0.00  0.00    +0.000 A 
ATOM     26  C   UNL     1       1.729  12.801  20.831  0.00  0.00    +0.000 A 
ATOM     27  C   UNL     1       1.326  11.927  19.828  0.00  0.00    +0.000 A 
ATOM     28  C   UNL     1       1.871  12.073  18.558  0.00  0.00    +0.000 A 
ATOM     29  C   UNL     1       2.799  13.100  18.302  0.00  0.00    +0.000 A 
BRANCH  27  30
ATOM     30  O   UNL     1       0.459  10.949  20.223  0.00  0.00    +0.000 OA
ATOM     31  C   UNL     1       0.828   9.617  19.884  0.00  0.00    +0.000 C 
ENDBRANCH  27  30
ENDBRANCH  12  24
TORSDOF 4
ENDMDL
MODEL 8
REMARK VINA RESULT:      -6.4      4.021      7.295
REMARK  Name = 
REMARK  6 active torsions:
REMARK  status: ('A' for Active; 'I' for Inactive)
REMARK    1  A    between atoms: C_1  and  O_2
REMARK    2  A    between atoms: O_2  and  C_3
REMARK    3  A    between atoms: C_6  and  C_7
REMARK    4  A    between atoms: N_18  and  C_19
REMARK    5  A    between atoms: C_22  and  O_23
REMARK    6  A    between atoms: O_23  and  C_24
REMARK                            x       y       z     vdW  Elec       q    Type
REMARK                         _______ _______ _______ _____ _____    ______ ____
ROOT
ATOM      1  C   UNL     1      -2.387  11.641  18.228  0.00  0.00    +0.000 A 
ATOM      2  C   UNL     1      -2.323  10.979  17.010  0.00  0.00    +0.000 A 
ATOM      3  S   UNL     1      -3.845  10.608  16.363  0.00  0.00    +0.000 S 
ATOM      4  C   UNL     1      -4.638  11.294  17.701  0.00  0.00    +0.000 A 
ATOM      5  N   UNL     1      -5.980  11.217  17.728  0.00  0.00    +0.000 NA
ATOM      6  C   UNL     1      -6.489  11.772  18.819  0.00  0.00    +0.000 A 
ATOM      7  N   UNL     1      -5.822  12.405  19.784  0.00  0.00    +0.000 NA
ATOM      8  C   UNL     1      -4.461  12.546  19.719  0.00  0.00    +0.000 A 
ATOM      9  N   UNL     1      -3.935  13.348  20.710  0.00  0.00    +0.000 N 
ATOM     10  C   UNL     1      -2.769  14.217  20.563  0.00  0.00    +0.000 C 
ATOM     11  C   UNL     1      -2.939  15.571  21.267  0.00  0.00    +0.000 C 
ATOM     12  N   UNL     1      -3.374  15.398  22.667  0.00  0.00    +0.000 N 
ATOM     13  C   UNL     1      -4.579  14.552  22.818  0.00  0.00    +0.000 C 
ATOM     14  C   UNL     1      -4.433  13.190  22.090  0.00  0.00    +0.000 C 
ATOM     15  C   UNL     1      -3.787  11.891  18.635  0.00  0.00    +0.000 A 
ENDROOT
BRANCH   1  19
ATOM     16  C   UNL     1       1.056  12.957  20.397  0.00  0.00    +0.000 A 
ATOM     17  C   UNL     1       0.777  13.493  19.145  0.00  0.00    +0.000 A 
ATOM     18  C   UNL     1      -0.314  13.023  18.405  0.00  0.00    +0.000 A 
ATOM     19  C   UNL     1      -1.121  11.982  18.892  0.00  0.00    +0.000 A 
ATOM     20  C   UNL     1      -0.706  11.322  20.053  0.00  0.00    +0.000 A 
ATOM     21  C   UNL     1       0.350  11.838  20.830  0.00  0.00    +0.000 A 
BRANCH  16  23
ATOM     22  C   UNL     1       1.675  14.726  21.813  0.00  0.00    +0.000 C 
ATOM     23  O   UNL     1       2.066  13.555  21.099  0.00  0.00    +0.000 OA
ENDBRANCH  16  23
ENDBRANCH   1  19
BRANCH  12  24
ATOM     24  C   UNL     1      -2.538  15.596  23.750  0.00  0.00    +0.000 A 
ATOM     25  C   UNL     1      -1.307  16.242  23.579  0.00  0.00    +0.000 A 
ATOM     26  C   UNL     1      -0.402  16.409  24.634  0.00  0.00    +0.000 A 
ATOM     27  C   UNL     1      -0.716  15.965  25.913  0.00  0.00    +0.000 A 
ATOM     28  C   UNL     1      -1.930  15.320  26.116  0.00  0.00    +0.000 A 
ATOM     29  C   UNL     1      -2.822  15.140  25.041  0.00  0.00    +0.000 A 
BRANCH  27  30
ATOM     30  O   UNL     1       0.257  16.159  26.851  0.00  0.00    +0.000 OA
ATOM     31  C   UNL     1      -0.007  17.167  27.821  0.00  0.00    +0.000 C 
ENDBRANCH  27  30
ENDBRANCH  12  24
TORSDOF 4
ENDMDL
MODEL 9
REMARK VINA RESULT:      -6.4      3.658      5.526
REMARK  Name = 
REMARK  6 active torsions:
REMARK  status: ('A' for Active; 'I' for Inactive)
REMARK    1  A    between atoms: C_1  and  O_2
REMARK    2  A    between atoms: O_2  and  C_3
REMARK    3  A    between atoms: C_6  and  C_7
REMARK    4  A    between atoms: N_18  and  C_19
REMARK    5  A    between atoms: C_22  and  O_23
REMARK    6  A    between atoms: O_23  and  C_24
REMARK                            x       y       z     vdW  Elec       q    Type
REMARK                         _______ _______ _______ _____ _____    ______ ____
ROOT
ATOM      1  C   UNL     1      -1.275  15.972  20.796  0.00  0.00    +0.000 A 
ATOM      2  C   UNL     1      -1.938  17.163  21.056  0.00  0.00    +0.000 A 
ATOM      3  S   UNL     1      -1.258  18.499  20.266  0.00  0.00    +0.000 S 
ATOM      4  C   UNL     1      -0.040  17.536  19.573  0.00  0.00    +0.000 A 
ATOM      5  N   UNL     1       0.887  18.159  18.824  0.00  0.00    +0.000 NA
ATOM      6  C   UNL     1       1.790  17.314  18.346  0.00  0.00    +0.000 A 
ATOM      7  N   UNL     1       1.808  15.989  18.493  0.00  0.00    +0.000 NA
ATOM      8  C   UNL     1       0.821  15.349  19.195  0.00  0.00    +0.000 A 
ATOM      9  N   UNL     1       0.896  13.973  19.133  0.00  0.00    +0.000 N 
ATOM     10  C   UNL     1      -0.248  13.064  19.145  0.00  0.00    +0.000 C 
ATOM     11  C   UNL     1      -0.086  11.885  18.175  0.00  0.00    +0.000 C 
ATOM     12  N   UNL     1       1.210  11.205  18.367  0.00  0.00    +0.000 N 
ATOM     13  C   UNL     1       2.376  12.116  18.315  0.00  0.00    +0.000 C 
ATOM     14  C   UNL     1       2.215  13.327  19.272  0.00  0.00    +0.000 C 
ATOM     15  C   UNL     1      -0.154  16.172  19.852  0.00  0.00    +0.000 A 
ENDROOT
BRANCH   1  19
ATOM     16  C   UNL     1      -2.912  12.711  23.028  0.00  0.00    +0.000 A 
ATOM     17  C   UNL     1      -1.629  13.168  23.305  0.00  0.00    +0.000 A 
ATOM     18  C   UNL     1      -1.065  14.195  22.539  0.00  0.00    +0.000 A 
ATOM     19  C   UNL     1      -1.765  14.754  21.457  0.00  0.00    +0.000 A 
ATOM     20  C   UNL     1      -2.963  14.147  21.070  0.00  0.00    +0.000 A 
ATOM     21  C   UNL     1      -3.560  13.161  21.880  0.00  0.00    +0.000 A 
BRANCH  16  23
ATOM     22  C   UNL     1      -4.411  12.310  24.791  0.00  0.00    +0.000 C 
ATOM     23  O   UNL     1      -3.428  11.791  23.898  0.00  0.00    +0.000 OA
ENDBRANCH  16  23
ENDBRANCH   1  19
BRANCH  12  24
ATOM     24  C   UNL     1       1.335   9.970  18.974  0.00  0.00    +0.000 A 
ATOM     25  C   UNL     1       0.794   9.754  20.248  0.00  0.00    +0.000 A 
ATOM     26  C   UNL     1       0.950   8.540  20.927  0.00  0.00    +0.000 A 
ATOM     27  C   UNL     1       1.625   7.479  20.334  0.00  0.00    +0.000 A 
ATOM     28  C   UNL     1       2.173   7.660  19.070  0.00  0.00    +0.000 A 
ATOM     29  C   UNL     1       2.026   8.894  18.407  0.00  0.00    +0.000 A 
BRANCH  27  30
ATOM     30  O   UNL     1       1.735   6.357  21.104  0.00  0.00    +0.000 OA
ATOM     31  C   UNL     1       1.471   5.123  20.446  0.00  0.00    +0.000 C 
ENDBRANCH  27  30
ENDBRANCH  12  24
TORSDOF 4
ENDMDL
