MODEL 1
REMARK VINA RESULT:      -6.4      0.000      0.000
REMARK  Name = 
REMARK  2 active torsions:
REMARK  status: ('A' for Active; 'I' for Inactive)
REMARK    1  A    between atoms: C_1  and  C_2
REMARK    2  A    between atoms: C_7  and  C_9
REMARK                            x       y       z     vdW  Elec       q    Type
REMARK                         _______ _______ _______ _____ _____    ______ ____
ROOT
ATOM      1  C   UNL     1       3.059   2.586  20.504  0.00  0.00    +0.000 C 
ATOM      2  C   UNL     1       3.991   3.155  19.500  0.00  0.00    +0.000 A 
ATOM      3  N   UNL     1       5.127   3.754  19.792  0.00  0.00    +0.000 NA
ATOM      4  N   UNL     1       5.820   4.126  18.657  0.00  0.00    +0.000 NA
ATOM      5  C   UNL     1       5.177   3.807  17.563  0.00  0.00    +0.000 A 
ATOM      6  N   UNL     1       5.536   3.972  16.256  0.00  0.00    +0.000 N 
ATOM      7  C   UNL     1       6.792   4.417  15.901  0.00  0.00    +0.000 C 
ATOM      8  O   UNL     1       7.694   4.696  16.682  0.00  0.00    +0.000 OA
ATOM      9  S   UNL     1       3.664   3.056  17.813  0.00  0.00    +0.000 S 
ATOM     10  H   UNL     1       4.887   3.703  15.531  0.00  0.00    +0.000 HD
ENDROOT
BRANCH   7  11
ATOM     11  C   UNL     1       6.975   4.502  14.464  0.00  0.00    +0.000 A 
ATOM     12  C   UNL     1       6.380   3.791  13.440  0.00  0.00    +0.000 A 
ATOM     13  C   UNL     1       6.928   4.278  12.231  0.00  0.00    +0.000 A 
ATOM     14  C   UNL     1       7.827   5.255  12.586  0.00  0.00    +0.000 A 
ATOM     15  O   UNL     1       7.862   5.407  13.937  0.00  0.00    +0.000 OA
ENDBRANCH   7  11
TORSDOF 1
ENDMDL
MODEL 2
REMARK VINA RESULT:      -6.3      2.547      6.165
REMARK  Name = 
REMARK  2 active torsions:
REMARK  status: ('A' for Active; 'I' for Inactive)
REMARK    1  A    between atoms: C_1  and  C_2
REMARK    2  A    between atoms: C_7  and  C_9
REMARK                            x       y       z     vdW  Elec       q    Type
REMARK                         _______ _______ _______ _____ _____    ______ ____
ROOT
ATOM      1  C   UNL     1       7.701   5.167  13.444  0.00  0.00    +0.000 C 
ATOM      2  C   UNL     1       7.068   4.745  14.716  0.00  0.00    +0.000 A 
ATOM      3  N   UNL     1       7.684   4.705  15.879  0.00  0.00    +0.000 NA
ATOM      4  N   UNL     1       6.833   4.337  16.902  0.00  0.00    +0.000 NA
ATOM      5  C   UNL     1       5.620   4.103  16.470  0.00  0.00    +0.000 A 
ATOM      6  N   UNL     1       4.496   3.751  17.161  0.00  0.00    +0.000 N 
ATOM      7  C   UNL     1       4.472   3.727  18.539  0.00  0.00    +0.000 C 
ATOM      8  O   UNL     1       5.412   4.012  19.271  0.00  0.00    +0.000 OA
ATOM      9  S   UNL     1       5.412   4.278  14.783  0.00  0.00    +0.000 S 
ATOM     10  H   UNL     1       3.645   3.564  16.651  0.00  0.00    +0.000 HD
ENDROOT
BRANCH   7  11
ATOM     11  C   UNL     1       3.178   3.348  19.075  0.00  0.00    +0.000 A 
ATOM     12  C   UNL     1       1.933   3.318  18.476  0.00  0.00    +0.000 A 
ATOM     13  C   UNL     1       1.017   2.872  19.456  0.00  0.00    +0.000 A 
ATOM     14  C   UNL     1       1.754   2.659  20.597  0.00  0.00    +0.000 A 
ATOM     15  O   UNL     1       3.067   2.937  20.379  0.00  0.00    +0.000 OA
ENDBRANCH   7  11
TORSDOF 1
ENDMDL
MODEL 3
REMARK VINA RESULT:      -6.2      1.004      1.004
REMARK  Name = 
REMARK  2 active torsions:
REMARK  status: ('A' for Active; 'I' for Inactive)
REMARK    1  A    between atoms: C_1  and  C_2
REMARK    2  A    between atoms: C_7  and  C_9
REMARK                            x       y       z     vdW  Elec       q    Type
REMARK                         _______ _______ _______ _____ _____    ______ ____
ROOT
ATOM      1  C   UNL     1       1.431   3.256  19.999  0.00  0.00    +0.000 C 
ATOM      2  C   UNL     1       2.616   3.630  19.189  0.00  0.00    +0.000 A 
ATOM      3  N   UNL     1       3.795   3.935  19.690  0.00  0.00    +0.000 NA
ATOM      4  N   UNL     1       4.728   4.178  18.701  0.00  0.00    +0.000 NA
ATOM      5  C   UNL     1       4.214   4.061  17.503  0.00  0.00    +0.000 A 
ATOM      6  N   UNL     1       4.807   4.188  16.279  0.00  0.00    +0.000 N 
ATOM      7  C   UNL     1       6.170   4.341  16.148  0.00  0.00    +0.000 C 
ATOM      8  O   UNL     1       6.974   4.371  17.072  0.00  0.00    +0.000 OA
ATOM      9  S   UNL     1       2.551   3.676  17.470  0.00  0.00    +0.000 S 
ATOM     10  H   UNL     1       4.239   4.107  15.449  0.00  0.00    +0.000 HD
ENDROOT
BRANCH   7  11
ATOM     11  C   UNL     1       6.597   4.437  14.765  0.00  0.00    +0.000 A 
ATOM     12  C   UNL     1       6.142   3.780  13.638  0.00  0.00    +0.000 A 
ATOM     13  C   UNL     1       6.913   4.251  12.550  0.00  0.00    +0.000 A 
ATOM     14  C   UNL     1       7.796   5.164  13.075  0.00  0.00    +0.000 A 
ATOM     15  O   UNL     1       7.611   5.292  14.417  0.00  0.00    +0.000 OA
ENDBRANCH   7  11
TORSDOF 1
ENDMDL
MODEL 4
REMARK VINA RESULT:      -6.2      2.181      6.042
REMARK  Name = 
REMARK  2 active torsions:
REMARK  status: ('A' for Active; 'I' for Inactive)
REMARK    1  A    between atoms: C_1  and  C_2
REMARK    2  A    between atoms: C_7  and  C_9
REMARK                            x       y       z     vdW  Elec       q    Type
REMARK                         _______ _______ _______ _____ _____    ______ ____
ROOT
ATOM      1  C   UNL     1       7.496   4.962  12.157  0.00  0.00    +0.000 C 
ATOM      2  C   UNL     1       7.205   4.862  13.608  0.00  0.00    +0.000 A 
ATOM      3  N   UNL     1       7.836   5.539  14.543  0.00  0.00    +0.000 NA
ATOM      4  N   UNL     1       7.313   5.297  15.798  0.00  0.00    +0.000 NA
ATOM      5  C   UNL     1       6.324   4.441  15.759  0.00  0.00    +0.000 A 
ATOM      6  N   UNL     1       5.533   3.970  16.768  0.00  0.00    +0.000 N 
ATOM      7  C   UNL     1       5.603   4.486  18.044  0.00  0.00    +0.000 C 
ATOM      8  O   UNL     1       6.345   5.392  18.404  0.00  0.00    +0.000 OA
ATOM      9  S   UNL     1       5.961   3.832  14.205  0.00  0.00    +0.000 S 
ATOM     10  H   UNL     1       4.837   3.268  16.558  0.00  0.00    +0.000 HD
ENDROOT
BRANCH   7  11
ATOM     11  C   UNL     1       4.665   3.862  18.958  0.00  0.00    +0.000 A 
ATOM     12  C   UNL     1       3.350   4.173  19.244  0.00  0.00    +0.000 A 
ATOM     13  C   UNL     1       2.910   3.241  20.212  0.00  0.00    +0.000 A 
ATOM     14  C   UNL     1       3.981   2.418  20.464  0.00  0.00    +0.000 A 
ATOM     15  O   UNL     1       5.051   2.779  19.705  0.00  0.00    +0.000 OA
ENDBRANCH   7  11
TORSDOF 1
ENDMDL
MODEL 5
REMARK VINA RESULT:      -6.1      4.022      6.128
REMARK  Name = 
REMARK  2 active torsions:
REMARK  status: ('A' for Active; 'I' for Inactive)
REMARK    1  A    between atoms: C_1  and  C_2
REMARK    2  A    between atoms: C_7  and  C_9
REMARK                            x       y       z     vdW  Elec       q    Type
REMARK                         _______ _______ _______ _____ _____    ______ ____
ROOT
ATOM      1  C   UNL     1       8.060   8.096  17.553  0.00  0.00    +0.000 C 
ATOM      2  C   UNL     1       7.253   6.903  17.905  0.00  0.00    +0.000 A 
ATOM      3  N   UNL     1       7.722   5.839  18.523  0.00  0.00    +0.000 NA
ATOM      4  N   UNL     1       6.732   4.912  18.779  0.00  0.00    +0.000 NA
ATOM      5  C   UNL     1       5.566   5.304  18.333  0.00  0.00    +0.000 A 
ATOM      6  N   UNL     1       4.346   4.696  18.416  0.00  0.00    +0.000 N 
ATOM      7  C   UNL     1       4.158   3.552  19.162  0.00  0.00    +0.000 C 
ATOM      8  O   UNL     1       5.021   2.978  19.814  0.00  0.00    +0.000 OA
ATOM      9  S   UNL     1       5.572   6.817  17.540  0.00  0.00    +0.000 S 
ATOM     10  H   UNL     1       3.551   5.129  17.970  0.00  0.00    +0.000 HD
ENDROOT
BRANCH   7  11
ATOM     11  C   UNL     1       2.786   3.080  19.134  0.00  0.00    +0.000 A 
ATOM     12  C   UNL     1       2.145   2.239  18.245  0.00  0.00    +0.000 A 
ATOM     13  C   UNL     1       0.808   2.115  18.690  0.00  0.00    +0.000 A 
ATOM     14  C   UNL     1       0.709   2.889  19.821  0.00  0.00    +0.000 A 
ATOM     15  O   UNL     1       1.903   3.475  20.106  0.00  0.00    +0.000 OA
ENDBRANCH   7  11
TORSDOF 1
ENDMDL
MODEL 6
REMARK VINA RESULT:      -6.1      2.474      6.260
REMARK  Name = 
REMARK  2 active torsions:
REMARK  status: ('A' for Active; 'I' for Inactive)
REMARK    1  A    between atoms: C_1  and  C_2
REMARK    2  A    between atoms: C_7  and  C_9
REMARK                            x       y       z     vdW  Elec       q    Type
REMARK                         _______ _______ _______ _____ _____    ______ ____
ROOT
ATOM      1  C   UNL     1       7.457   5.107  13.676  0.00  0.00    +0.000 C 
ATOM      2  C   UNL     1       6.903   4.756  15.007  0.00  0.00    +0.000 A 
ATOM      3  N   UNL     1       7.608   4.702  16.117  0.00  0.00    +0.000 NA
ATOM      4  N   UNL     1       6.821   4.414  17.215  0.00  0.00    +0.000 NA
ATOM      5  C   UNL     1       5.565   4.249  16.887  0.00  0.00    +0.000 A 
ATOM      6  N   UNL     1       4.481   3.987  17.675  0.00  0.00    +0.000 N 
ATOM      7  C   UNL     1       4.567   3.995  19.051  0.00  0.00    +0.000 C 
ATOM      8  O   UNL     1       5.579   4.236  19.698  0.00  0.00    +0.000 OA
ATOM      9  S   UNL     1       5.232   4.399  15.218  0.00  0.00    +0.000 S 
ATOM     10  H   UNL     1       3.581   3.844  17.240  0.00  0.00    +0.000 HD
ENDROOT
BRANCH   7  11
ATOM     11  C   UNL     1       3.300   3.714  19.698  0.00  0.00    +0.000 A 
ATOM     12  C   UNL     1       2.917   2.655  20.499  0.00  0.00    +0.000 A 
ATOM     13  C   UNL     1       1.569   2.880  20.859  0.00  0.00    +0.000 A 
ATOM     14  C   UNL     1       1.204   4.060  20.255  0.00  0.00    +0.000 A 
ATOM     15  O   UNL     1       2.246   4.580  19.552  0.00  0.00    +0.000 OA
ENDBRANCH   7  11
TORSDOF 1
ENDMDL
MODEL 7
REMARK VINA RESULT:      -6.0      2.840      6.596
REMARK  Name = 
REMARK  2 active torsions:
REMARK  status: ('A' for Active; 'I' for Inactive)
REMARK    1  A    between atoms: C_1  and  C_2
REMARK    2  A    between atoms: C_7  and  C_9
REMARK                            x       y       z     vdW  Elec       q    Type
REMARK                         _______ _______ _______ _____ _____    ______ ____
ROOT
ATOM      1  C   UNL     1       7.036   4.943  13.842  0.00  0.00    +0.000 C 
ATOM      2  C   UNL     1       6.151   5.091  15.024  0.00  0.00    +0.000 A 
ATOM      3  N   UNL     1       5.559   6.212  15.377  0.00  0.00    +0.000 NA
ATOM      4  N   UNL     1       4.744   6.041  16.478  0.00  0.00    +0.000 NA
ATOM      5  C   UNL     1       4.767   4.809  16.918  0.00  0.00    +0.000 A 
ATOM      6  N   UNL     1       4.085   4.234  17.952  0.00  0.00    +0.000 N 
ATOM      7  C   UNL     1       3.102   4.915  18.638  0.00  0.00    +0.000 C 
ATOM      8  O   UNL     1       2.737   6.061  18.404  0.00  0.00    +0.000 OA
ATOM      9  S   UNL     1       5.799   3.757  16.054  0.00  0.00    +0.000 S 
ATOM     10  H   UNL     1       4.263   3.267  18.180  0.00  0.00    +0.000 HD
ENDROOT
BRANCH   7  11
ATOM     11  C   UNL     1       2.488   4.119  19.684  0.00  0.00    +0.000 A 
ATOM     12  C   UNL     1       1.157   3.932  20.004  0.00  0.00    +0.000 A 
ATOM     13  C   UNL     1       1.122   3.058  21.115  0.00  0.00    +0.000 A 
ATOM     14  C   UNL     1       2.432   2.766  21.412  0.00  0.00    +0.000 A 
ATOM     15  O   UNL     1       3.271   3.397  20.547  0.00  0.00    +0.000 OA
ENDBRANCH   7  11
TORSDOF 1
ENDMDL
MODEL 8
REMARK VINA RESULT:      -5.9      2.610      6.130
REMARK  Name = 
REMARK  2 active torsions:
REMARK  status: ('A' for Active; 'I' for Inactive)
REMARK    1  A    between atoms: C_1  and  C_2
REMARK    2  A    between atoms: C_7  and  C_9
REMARK                            x       y       z     vdW  Elec       q    Type
REMARK                         _______ _______ _______ _____ _____    ______ ____
ROOT
ATOM      1  C   UNL     1       7.800   5.153  13.186  0.00  0.00    +0.000 C 
ATOM      2  C   UNL     1       7.070   4.997  14.468  0.00  0.00    +0.000 A 
ATOM      3  N   UNL     1       7.438   5.546  15.607  0.00  0.00    +0.000 NA
ATOM      4  N   UNL     1       6.537   5.285  16.620  0.00  0.00    +0.000 NA
ATOM      5  C   UNL     1       5.540   4.542  16.211  0.00  0.00    +0.000 A 
ATOM      6  N   UNL     1       4.442   4.098  16.889  0.00  0.00    +0.000 N 
ATOM      7  C   UNL     1       4.160   4.526  18.169  0.00  0.00    +0.000 C 
ATOM      8  O   UNL     1       4.827   5.325  18.814  0.00  0.00    +0.000 OA
ATOM      9  S   UNL     1       5.622   4.071  14.571  0.00  0.00    +0.000 S 
ATOM     10  H   UNL     1       3.788   3.489  16.419  0.00  0.00    +0.000 HD
ENDROOT
BRANCH   7  11
ATOM     11  C   UNL     1       2.938   3.951  18.700  0.00  0.00    +0.000 A 
ATOM     12  C   UNL     1       2.378   4.042  19.960  0.00  0.00    +0.000 A 
ATOM     13  C   UNL     1       1.183   3.286  19.933  0.00  0.00    +0.000 A 
ATOM     14  C   UNL     1       1.085   2.775  18.661  0.00  0.00    +0.000 A 
ATOM     15  O   UNL     1       2.139   3.176  17.900  0.00  0.00    +0.000 OA
ENDBRANCH   7  11
TORSDOF 1
ENDMDL
MODEL 9
REMARK VINA RESULT:      -5.9      2.890      3.448
REMARK  Name = 
REMARK  2 active torsions:
REMARK  status: ('A' for Active; 'I' for Inactive)
REMARK    1  A    between atoms: C_1  and  C_2
REMARK    2  A    between atoms: C_7  and  C_9
REMARK                            x       y       z     vdW  Elec       q    Type
REMARK                         _______ _______ _______ _____ _____    ______ ____
ROOT
ATOM      1  C   UNL     1       7.473   5.760  19.628  0.00  0.00    +0.000 C 
ATOM      2  C   UNL     1       7.275   5.616  18.165  0.00  0.00    +0.000 A 
ATOM      3  N   UNL     1       7.843   6.381  17.256  0.00  0.00    +0.000 NA
ATOM      4  N   UNL     1       7.531   5.977  15.973  0.00  0.00    +0.000 NA
ATOM      5  C   UNL     1       6.734   4.940  15.967  0.00  0.00    +0.000 A 
ATOM      6  N   UNL     1       6.228   4.230  14.915  0.00  0.00    +0.000 N 
ATOM      7  C   UNL     1       6.638   4.464  13.620  0.00  0.00    +0.000 C 
ATOM      8  O   UNL     1       7.473   5.293  13.278  0.00  0.00    +0.000 OA
ATOM      9  S   UNL     1       6.269   4.381  17.512  0.00  0.00    +0.000 S 
ATOM     10  H   UNL     1       5.583   3.475  15.098  0.00  0.00    +0.000 HD
ENDROOT
BRANCH   7  11
ATOM     11  C   UNL     1       5.995   3.590  12.657  0.00  0.00    +0.000 A 
ATOM     12  C   UNL     1       4.708   3.603  12.153  0.00  0.00    +0.000 A 
ATOM     13  C   UNL     1       4.613   2.522  11.246  0.00  0.00    +0.000 A 
ATOM     14  C   UNL     1       5.844   1.911  11.251  0.00  0.00    +0.000 A 
ATOM     15  O   UNL     1       6.694   2.551  12.097  0.00  0.00    +0.000 OA
ENDBRANCH   7  11
TORSDOF 1
ENDMDL
