MODEL 1
REMARK VINA RESULT:      -7.6      0.000      0.000
REMARK  Name = 
REMARK  8 active torsions:
REMARK  status: ('A' for Active; 'I' for Inactive)
REMARK    1  A    between atoms: C_1  and  O_2
REMARK    2  A    between atoms: O_2  and  C_3
REMARK    3  A    between atoms: C_8  and  S_9
REMARK    4  A    between atoms: S_9  and  C_12
REMARK    5  A    between atoms: C_12  and  C_13
REMARK    6  A    between atoms: C_16  and  C_17
REMARK    7  A    between atoms: N_19  and  C_20
REMARK    8  A    between atoms: C_20  and  C_21
REMARK                            x       y       z     vdW  Elec       q    Type
REMARK                         _______ _______ _______ _____ _____    ______ ____
ROOT
ATOM      1  C   UNL     1       4.722   3.566  18.286  0.00  0.00    +0.000 A 
ATOM      2  C   UNL     1       5.500   4.187  19.244  0.00  0.00    +0.000 A 
ATOM      3  C   UNL     1       6.481   4.934  18.542  0.00  0.00    +0.000 A 
ATOM      4  C   UNL     1       6.250   4.728  17.198  0.00  0.00    +0.000 A 
ATOM      5  O   UNL     1       5.167   3.903  17.043  0.00  0.00    +0.000 OA
ENDROOT
BRANCH   4   6
ATOM      6  C   UNL     1       6.942   5.205  16.017  0.00  0.00    +0.000 C 
ATOM      7  O   UNL     1       7.548   6.274  15.968  0.00  0.00    +0.000 OA
ATOM      8  N   UNL     1       6.866   4.342  14.949  0.00  0.00    +0.000 N 
ATOM      9  H   UNL     1       6.319   3.495  15.065  0.00  0.00    +0.000 HD
BRANCH   8  10
ATOM     10  C   UNL     1       7.455   4.602  13.650  0.00  0.00    +0.000 C 
BRANCH  10  11
ATOM     11  C   UNL     1       6.516   4.233  12.498  0.00  0.00    +0.000 C 
ATOM     12  C   UNL     1       5.087   3.905  12.908  0.00  0.00    +0.000 C 
ATOM     13  C   UNL     1       4.654   2.976  11.801  0.00  0.00    +0.000 C 
ATOM     14  C   UNL     1       5.920   2.193  11.545  0.00  0.00    +0.000 C 
ATOM     15  O   UNL     1       7.020   3.080  11.787  0.00  0.00    +0.000 OA
ENDBRANCH  10  11
ENDBRANCH   8  10
ENDBRANCH   4   6
BRANCH   1  16
ATOM     16  C   UNL     1       3.645   2.552  18.329  0.00  0.00    +0.000 C 
BRANCH  16  17
ATOM     17  S   UNL     1       2.044   3.242  18.038  0.00  0.00    +0.000 S 
ATOM     18  O   UNL     1       1.074   2.371  18.678  0.00  0.00    +0.000 OA
ATOM     19  O   UNL     1       1.915   3.492  16.612  0.00  0.00    +0.000 OA
BRANCH  17  25
ATOM     20  C   UNL     1       1.591   4.963  20.194  0.00  0.00    +0.000 A 
ATOM     21  C   UNL     1       1.652   6.242  20.775  0.00  0.00    +0.000 A 
ATOM     22  C   UNL     1       2.062   7.355  20.038  0.00  0.00    +0.000 A 
ATOM     23  C   UNL     1       2.416   7.211  18.704  0.00  0.00    +0.000 A 
ATOM     24  C   UNL     1       2.352   5.954  18.104  0.00  0.00    +0.000 A 
ATOM     25  C   UNL     1       1.930   4.833  18.840  0.00  0.00    +0.000 A 
BRANCH  20  27
ATOM     26  C   UNL     1       2.168   3.316  21.802  0.00  0.00    +0.000 C 
ATOM     27  O   UNL     1       1.202   3.849  20.891  0.00  0.00    +0.000 OA
ENDBRANCH  20  27
ENDBRANCH  17  25
ENDBRANCH  16  17
ENDBRANCH   1  16
TORSDOF 7
ENDMDL
MODEL 2
REMARK VINA RESULT:      -7.5      4.095      7.785
REMARK  Name = 
REMARK  8 active torsions:
REMARK  status: ('A' for Active; 'I' for Inactive)
REMARK    1  A    between atoms: C_1  and  O_2
REMARK    2  A    between atoms: O_2  and  C_3
REMARK    3  A    between atoms: C_8  and  S_9
REMARK    4  A    between atoms: S_9  and  C_12
REMARK    5  A    between atoms: C_12  and  C_13
REMARK    6  A    between atoms: C_16  and  C_17
REMARK    7  A    between atoms: N_19  and  C_20
REMARK    8  A    between atoms: C_20  and  C_21
REMARK                            x       y       z     vdW  Elec       q    Type
REMARK                         _______ _______ _______ _____ _____    ______ ____
ROOT
ATOM      1  C   UNL     1       3.156   6.464  19.086  0.00  0.00    +0.000 A 
ATOM      2  C   UNL     1       3.325   7.039  17.841  0.00  0.00    +0.000 A 
ATOM      3  C   UNL     1       2.549   8.227  17.839  0.00  0.00    +0.000 A 
ATOM      4  C   UNL     1       1.949   8.311  19.079  0.00  0.00    +0.000 A 
ATOM      5  O   UNL     1       2.331   7.239  19.843  0.00  0.00    +0.000 OA
ENDROOT
BRANCH   4   6
ATOM      6  C   UNL     1       1.031   9.281  19.641  0.00  0.00    +0.000 C 
ATOM      7  O   UNL     1       0.804   9.388  20.844  0.00  0.00    +0.000 OA
ATOM      8  N   UNL     1       0.435  10.086  18.696  0.00  0.00    +0.000 N 
ATOM      9  H   UNL     1       0.654   9.909  17.721  0.00  0.00    +0.000 HD
BRANCH   8  10
ATOM     10  C   UNL     1      -0.538  11.115  19.003  0.00  0.00    +0.000 C 
BRANCH  10  11
ATOM     11  C   UNL     1      -1.630  11.224  17.936  0.00  0.00    +0.000 C 
ATOM     12  C   UNL     1      -2.982  11.709  18.442  0.00  0.00    +0.000 C 
ATOM     13  C   UNL     1      -3.927  11.081  17.448  0.00  0.00    +0.000 C 
ATOM     14  C   UNL     1      -3.272   9.741  17.208  0.00  0.00    +0.000 C 
ATOM     15  O   UNL     1      -1.856   9.940  17.314  0.00  0.00    +0.000 OA
ENDBRANCH  10  11
ENDBRANCH   8  10
ENDBRANCH   4   6
BRANCH   1  16
ATOM     16  C   UNL     1       3.556   5.172  19.689  0.00  0.00    +0.000 C 
BRANCH  16  17
ATOM     17  S   UNL     1       3.705   3.877  18.496  0.00  0.00    +0.000 S 
ATOM     18  O   UNL     1       2.468   3.842  17.738  0.00  0.00    +0.000 OA
ATOM     19  O   UNL     1       4.126   2.672  19.193  0.00  0.00    +0.000 OA
BRANCH  17  25
ATOM     20  C   UNL     1       6.319   4.552  17.774  0.00  0.00    +0.000 A 
ATOM     21  C   UNL     1       7.314   4.729  16.796  0.00  0.00    +0.000 A 
ATOM     22  C   UNL     1       7.022   4.612  15.435  0.00  0.00    +0.000 A 
ATOM     23  C   UNL     1       5.729   4.318  15.026  0.00  0.00    +0.000 A 
ATOM     24  C   UNL     1       4.725   4.149  15.979  0.00  0.00    +0.000 A 
ATOM     25  C   UNL     1       5.013   4.277  17.349  0.00  0.00    +0.000 A 
BRANCH  20  27
ATOM     26  C   UNL     1       7.487   5.682  19.503  0.00  0.00    +0.000 C 
ATOM     27  O   UNL     1       6.574   4.651  19.117  0.00  0.00    +0.000 OA
ENDBRANCH  20  27
ENDBRANCH  17  25
ENDBRANCH  16  17
ENDBRANCH   1  16
TORSDOF 7
ENDMDL
MODEL 3
REMARK VINA RESULT:      -7.4      4.548      6.720
REMARK  Name = 
REMARK  8 active torsions:
REMARK  status: ('A' for Active; 'I' for Inactive)
REMARK    1  A    between atoms: C_1  and  O_2
REMARK    2  A    between atoms: O_2  and  C_3
REMARK    3  A    between atoms: C_8  and  S_9
REMARK    4  A    between atoms: S_9  and  C_12
REMARK    5  A    between atoms: C_12  and  C_13
REMARK    6  A    between atoms: C_16  and  C_17
REMARK    7  A    between atoms: N_19  and  C_20
REMARK    8  A    between atoms: C_20  and  C_21
REMARK                            x       y       z     vdW  Elec       q    Type
REMARK                         _______ _______ _______ _____ _____    ______ ____
ROOT
ATOM      1  C   UNL     1       7.366   5.628  17.166  0.00  0.00    +0.000 A 
ATOM      2  C   UNL     1       7.730   5.308  18.459  0.00  0.00    +0.000 A 
ATOM      3  C   UNL     1       8.105   6.525  19.084  0.00  0.00    +0.000 A 
ATOM      4  C   UNL     1       7.952   7.519  18.140  0.00  0.00    +0.000 A 
ATOM      5  O   UNL     1       7.488   6.971  16.973  0.00  0.00    +0.000 OA
ENDROOT
BRANCH   4   6
ATOM      6  C   UNL     1       8.206   8.945  18.192  0.00  0.00    +0.000 C 
ATOM      7  O   UNL     1       7.650   9.764  17.463  0.00  0.00    +0.000 OA
ATOM      8  N   UNL     1       9.130   9.304  19.147  0.00  0.00    +0.000 N 
ATOM      9  H   UNL     1       9.565   8.561  19.685  0.00  0.00    +0.000 HD
BRANCH   8  10
ATOM     10  C   UNL     1       9.572  10.665  19.379  0.00  0.00    +0.000 C 
BRANCH  10  11
ATOM     11  C   UNL     1      10.331  11.245  18.182  0.00  0.00    +0.000 C 
ATOM     12  C   UNL     1      11.745  11.722  18.483  0.00  0.00    +0.000 C 
ATOM     13  C   UNL     1      11.942  12.787  17.432  0.00  0.00    +0.000 C 
ATOM     14  C   UNL     1      10.571  13.417  17.373  0.00  0.00    +0.000 C 
ATOM     15  O   UNL     1       9.618  12.377  17.635  0.00  0.00    +0.000 OA
ENDBRANCH  10  11
ENDBRANCH   8  10
ENDBRANCH   4   6
BRANCH   1  16
ATOM     16  C   UNL     1       7.020   4.835  15.965  0.00  0.00    +0.000 C 
BRANCH  16  17
ATOM     17  S   UNL     1       5.354   5.089  15.434  0.00  0.00    +0.000 S 
ATOM     18  O   UNL     1       5.120   4.207  14.304  0.00  0.00    +0.000 OA
ATOM     19  O   UNL     1       5.154   6.518  15.250  0.00  0.00    +0.000 OA
BRANCH  17  25
ATOM     20  C   UNL     1       3.652   5.509  17.611  0.00  0.00    +0.000 A 
ATOM     21  C   UNL     1       2.685   5.043  18.518  0.00  0.00    +0.000 A 
ATOM     22  C   UNL     1       2.292   3.703  18.534  0.00  0.00    +0.000 A 
ATOM     23  C   UNL     1       2.861   2.802  17.645  0.00  0.00    +0.000 A 
ATOM     24  C   UNL     1       3.830   3.241  16.744  0.00  0.00    +0.000 A 
ATOM     25  C   UNL     1       4.236   4.588  16.731  0.00  0.00    +0.000 A 
BRANCH  20  27
ATOM     26  C   UNL     1       3.060   7.788  17.909  0.00  0.00    +0.000 C 
ATOM     27  O   UNL     1       4.054   6.819  17.562  0.00  0.00    +0.000 OA
ENDBRANCH  20  27
ENDBRANCH  17  25
ENDBRANCH  16  17
ENDBRANCH   1  16
TORSDOF 7
ENDMDL
MODEL 4
REMARK VINA RESULT:      -7.1      4.294      8.025
REMARK  Name = 
REMARK  8 active torsions:
REMARK  status: ('A' for Active; 'I' for Inactive)
REMARK    1  A    between atoms: C_1  and  O_2
REMARK    2  A    between atoms: O_2  and  C_3
REMARK    3  A    between atoms: C_8  and  S_9
REMARK    4  A    between atoms: S_9  and  C_12
REMARK    5  A    between atoms: C_12  and  C_13
REMARK    6  A    between atoms: C_16  and  C_17
REMARK    7  A    between atoms: N_19  and  C_20
REMARK    8  A    between atoms: C_20  and  C_21
REMARK                            x       y       z     vdW  Elec       q    Type
REMARK                         _______ _______ _______ _____ _____    ______ ____
ROOT
ATOM      1  C   UNL     1       3.142   6.590  19.077  0.00  0.00    +0.000 A 
ATOM      2  C   UNL     1       3.330   7.129  17.819  0.00  0.00    +0.000 A 
ATOM      3  C   UNL     1       2.542   8.308  17.766  0.00  0.00    +0.000 A 
ATOM      4  C   UNL     1       1.915   8.422  18.990  0.00  0.00    +0.000 A 
ATOM      5  O   UNL     1       2.294   7.379  19.794  0.00  0.00    +0.000 OA
ENDROOT
BRANCH   4   6
ATOM      6  C   UNL     1       0.976   9.398  19.504  0.00  0.00    +0.000 C 
ATOM      7  O   UNL     1       0.384   9.277  20.574  0.00  0.00    +0.000 OA
ATOM      8  N   UNL     1       0.811  10.489  18.681  0.00  0.00    +0.000 N 
ATOM      9  H   UNL     1       1.315  10.495  17.800  0.00  0.00    +0.000 HD
BRANCH   8  10
ATOM     10  C   UNL     1      -0.091  11.589  18.961  0.00  0.00    +0.000 C 
BRANCH  10  11
ATOM     11  C   UNL     1       0.649  12.854  19.403  0.00  0.00    +0.000 C 
ATOM     12  C   UNL     1       0.154  14.147  18.769  0.00  0.00    +0.000 C 
ATOM     13  C   UNL     1       1.393  15.007  18.814  0.00  0.00    +0.000 C 
ATOM     14  C   UNL     1       2.478  13.997  18.522  0.00  0.00    +0.000 C 
ATOM     15  O   UNL     1       2.056  12.750  19.091  0.00  0.00    +0.000 OA
ENDBRANCH  10  11
ENDBRANCH   8  10
ENDBRANCH   4   6
BRANCH   1  16
ATOM     16  C   UNL     1       3.543   5.322  19.727  0.00  0.00    +0.000 C 
BRANCH  16  17
ATOM     17  S   UNL     1       3.674   3.979  18.586  0.00  0.00    +0.000 S 
ATOM     18  O   UNL     1       2.434   3.931  17.830  0.00  0.00    +0.000 OA
ATOM     19  O   UNL     1       4.080   2.797  19.328  0.00  0.00    +0.000 OA
BRANCH  17  25
ATOM     20  C   UNL     1       6.296   4.588  17.834  0.00  0.00    +0.000 A 
ATOM     21  C   UNL     1       7.290   4.714  16.848  0.00  0.00    +0.000 A 
ATOM     22  C   UNL     1       6.994   4.551  15.493  0.00  0.00    +0.000 A 
ATOM     23  C   UNL     1       5.696   4.261  15.097  0.00  0.00    +0.000 A 
ATOM     24  C   UNL     1       4.692   4.143  16.058  0.00  0.00    +0.000 A 
ATOM     25  C   UNL     1       4.984   4.317  17.422  0.00  0.00    +0.000 A 
BRANCH  20  27
ATOM     26  C   UNL     1       7.573   5.680  19.510  0.00  0.00    +0.000 C 
ATOM     27  O   UNL     1       6.555   4.733  19.172  0.00  0.00    +0.000 OA
ENDBRANCH  20  27
ENDBRANCH  17  25
ENDBRANCH  16  17
ENDBRANCH   1  16
TORSDOF 7
ENDMDL
MODEL 5
REMARK VINA RESULT:      -7.0      3.982      7.926
REMARK  Name = 
REMARK  8 active torsions:
REMARK  status: ('A' for Active; 'I' for Inactive)
REMARK    1  A    between atoms: C_1  and  O_2
REMARK    2  A    between atoms: O_2  and  C_3
REMARK    3  A    between atoms: C_8  and  S_9
REMARK    4  A    between atoms: S_9  and  C_12
REMARK    5  A    between atoms: C_12  and  C_13
REMARK    6  A    between atoms: C_16  and  C_17
REMARK    7  A    between atoms: N_19  and  C_20
REMARK    8  A    between atoms: C_20  and  C_21
REMARK                            x       y       z     vdW  Elec       q    Type
REMARK                         _______ _______ _______ _____ _____    ______ ____
ROOT
ATOM      1  C   UNL     1       2.333   5.731  19.319  0.00  0.00    +0.000 A 
ATOM      2  C   UNL     1       1.868   6.156  20.548  0.00  0.00    +0.000 A 
ATOM      3  C   UNL     1       1.604   7.544  20.419  0.00  0.00    +0.000 A 
ATOM      4  C   UNL     1       1.923   7.890  19.122  0.00  0.00    +0.000 A 
ATOM      5  O   UNL     1       2.355   6.778  18.448  0.00  0.00    +0.000 OA
ENDROOT
BRANCH   4   6
ATOM      6  C   UNL     1       1.886   9.162  18.428  0.00  0.00    +0.000 C 
ATOM      7  O   UNL     1       2.139   9.292  17.232  0.00  0.00    +0.000 OA
ATOM      8  N   UNL     1       1.531  10.219  19.234  0.00  0.00    +0.000 N 
ATOM      9  H   UNL     1       1.370  10.028  20.218  0.00  0.00    +0.000 HD
BRANCH   8  10
ATOM     10  C   UNL     1       1.447  11.594  18.782  0.00  0.00    +0.000 C 
BRANCH  10  11
ATOM     11  C   UNL     1       0.089  12.229  19.090  0.00  0.00    +0.000 C 
ATOM     12  C   UNL     1      -0.452  11.953  20.487  0.00  0.00    +0.000 C 
ATOM     13  C   UNL     1      -1.940  12.062  20.269  0.00  0.00    +0.000 C 
ATOM     14  C   UNL     1      -2.095  11.443  18.900  0.00  0.00    +0.000 C 
ATOM     15  O   UNL     1      -0.909  11.759  18.158  0.00  0.00    +0.000 OA
ENDBRANCH  10  11
ENDBRANCH   8  10
ENDBRANCH   4   6
BRANCH   1  16
ATOM     16  C   UNL     1       2.913   4.465  18.816  0.00  0.00    +0.000 C 
BRANCH  16  17
ATOM     17  S   UNL     1       4.660   4.368  19.062  0.00  0.00    +0.000 S 
ATOM     18  O   UNL     1       4.953   3.036  19.560  0.00  0.00    +0.000 OA
ATOM     19  O   UNL     1       5.065   5.512  19.861  0.00  0.00    +0.000 OA
BRANCH  17  25
ATOM     20  C   UNL     1       6.883   4.628  17.388  0.00  0.00    +0.000 A 
ATOM     21  C   UNL     1       7.459   4.625  16.105  0.00  0.00    +0.000 A 
ATOM     22  C   UNL     1       6.672   4.506  14.957  0.00  0.00    +0.000 A 
ATOM     23  C   UNL     1       5.294   4.391  15.070  0.00  0.00    +0.000 A 
ATOM     24  C   UNL     1       4.701   4.403  16.332  0.00  0.00    +0.000 A 
ATOM     25  C   UNL     1       5.489   4.533  17.490  0.00  0.00    +0.000 A 
BRANCH  20  27
ATOM     26  C   UNL     1       8.021   6.060  18.901  0.00  0.00    +0.000 C 
ATOM     27  O   UNL     1       7.627   4.734  18.534  0.00  0.00    +0.000 OA
ENDBRANCH  20  27
ENDBRANCH  17  25
ENDBRANCH  16  17
ENDBRANCH   1  16
TORSDOF 7
ENDMDL
MODEL 6
REMARK VINA RESULT:      -7.0      4.136      8.071
REMARK  Name = 
REMARK  8 active torsions:
REMARK  status: ('A' for Active; 'I' for Inactive)
REMARK    1  A    between atoms: C_1  and  O_2
REMARK    2  A    between atoms: O_2  and  C_3
REMARK    3  A    between atoms: C_8  and  S_9
REMARK    4  A    between atoms: S_9  and  C_12
REMARK    5  A    between atoms: C_12  and  C_13
REMARK    6  A    between atoms: C_16  and  C_17
REMARK    7  A    between atoms: N_19  and  C_20
REMARK    8  A    between atoms: C_20  and  C_21
REMARK                            x       y       z     vdW  Elec       q    Type
REMARK                         _______ _______ _______ _____ _____    ______ ____
ROOT
ATOM      1  C   UNL     1       3.066   6.172  19.260  0.00  0.00    +0.000 A 
ATOM      2  C   UNL     1       3.041   6.487  17.916  0.00  0.00    +0.000 A 
ATOM      3  C   UNL     1       2.340   7.715  17.804  0.00  0.00    +0.000 A 
ATOM      4  C   UNL     1       1.973   8.080  19.083  0.00  0.00    +0.000 A 
ATOM      5  O   UNL     1       2.429   7.142  19.973  0.00  0.00    +0.000 OA
ENDROOT
BRANCH   4   6
ATOM      6  C   UNL     1       1.220   9.212  19.583  0.00  0.00    +0.000 C 
ATOM      7  O   UNL     1       0.918   9.362  20.765  0.00  0.00    +0.000 OA
ATOM      8  N   UNL     1       0.876  10.119  18.606  0.00  0.00    +0.000 N 
ATOM      9  H   UNL     1       1.138   9.902  17.650  0.00  0.00    +0.000 HD
BRANCH   8  10
ATOM     10  C   UNL     1       0.102  11.321  18.848  0.00  0.00    +0.000 C 
BRANCH  10  11
ATOM     11  C   UNL     1      -1.394  11.033  18.994  0.00  0.00    +0.000 C 
ATOM     12  C   UNL     1      -2.240  11.377  17.775  0.00  0.00    +0.000 C 
ATOM     13  C   UNL     1      -3.585  11.653  18.400  0.00  0.00    +0.000 C 
ATOM     14  C   UNL     1      -3.190  12.348  19.681  0.00  0.00    +0.000 C 
ATOM     15  O   UNL     1      -1.944  11.777  20.104  0.00  0.00    +0.000 OA
ENDBRANCH  10  11
ENDBRANCH   8  10
ENDBRANCH   4   6
BRANCH   1  16
ATOM     16  C   UNL     1       3.499   4.987  20.035  0.00  0.00    +0.000 C 
BRANCH  16  17
ATOM     17  S   UNL     1       3.950   3.623  19.005  0.00  0.00    +0.000 S 
ATOM     18  O   UNL     1       2.749   3.182  18.319  0.00  0.00    +0.000 OA
ATOM     19  O   UNL     1       4.673   2.663  19.823  0.00  0.00    +0.000 OA
BRANCH  17  25
ATOM     20  C   UNL     1       6.329   4.760  18.077  0.00  0.00    +0.000 A 
ATOM     21  C   UNL     1       7.222   5.050  17.031  0.00  0.00    +0.000 A 
ATOM     22  C   UNL     1       6.907   4.749  15.704  0.00  0.00    +0.000 A 
ATOM     23  C   UNL     1       5.691   4.155  15.397  0.00  0.00    +0.000 A 
ATOM     24  C   UNL     1       4.786   3.869  16.418  0.00  0.00    +0.000 A 
ATOM     25  C   UNL     1       5.095   4.180  17.754  0.00  0.00    +0.000 A 
BRANCH  20  27
ATOM     26  C   UNL     1       7.884   5.634  19.642  0.00  0.00    +0.000 C 
ATOM     27  O   UNL     1       6.610   5.034  19.390  0.00  0.00    +0.000 OA
ENDBRANCH  20  27
ENDBRANCH  17  25
ENDBRANCH  16  17
ENDBRANCH   1  16
TORSDOF 7
ENDMDL
MODEL 7
REMARK VINA RESULT:      -6.9      4.052      8.371
REMARK  Name = 
REMARK  8 active torsions:
REMARK  status: ('A' for Active; 'I' for Inactive)
REMARK    1  A    between atoms: C_1  and  O_2
REMARK    2  A    between atoms: O_2  and  C_3
REMARK    3  A    between atoms: C_8  and  S_9
REMARK    4  A    between atoms: S_9  and  C_12
REMARK    5  A    between atoms: C_12  and  C_13
REMARK    6  A    between atoms: C_16  and  C_17
REMARK    7  A    between atoms: N_19  and  C_20
REMARK    8  A    between atoms: C_20  and  C_21
REMARK                            x       y       z     vdW  Elec       q    Type
REMARK                         _______ _______ _______ _____ _____    ______ ____
ROOT
ATOM      1  C   UNL     1       2.572   6.157  18.748  0.00  0.00    +0.000 A 
ATOM      2  C   UNL     1       2.699   7.145  17.791  0.00  0.00    +0.000 A 
ATOM      3  C   UNL     1       2.200   8.337  18.376  0.00  0.00    +0.000 A 
ATOM      4  C   UNL     1       1.795   8.012  19.655  0.00  0.00    +0.000 A 
ATOM      5  O   UNL     1       2.035   6.682  19.884  0.00  0.00    +0.000 OA
ENDROOT
BRANCH   4   6
ATOM      6  C   UNL     1       1.184   8.805  20.703  0.00  0.00    +0.000 C 
ATOM      7  O   UNL     1       1.342   8.587  21.902  0.00  0.00    +0.000 OA
ATOM      8  N   UNL     1       0.410   9.840  20.229  0.00  0.00    +0.000 N 
ATOM      9  H   UNL     1       0.308   9.930  19.223  0.00  0.00    +0.000 HD
BRANCH   8  10
ATOM     10  C   UNL     1      -0.324  10.759  21.075  0.00  0.00    +0.000 C 
BRANCH  10  11
ATOM     11  C   UNL     1      -0.076  12.223  20.702  0.00  0.00    +0.000 C 
ATOM     12  C   UNL     1       0.417  12.453  19.280  0.00  0.00    +0.000 C 
ATOM     13  C   UNL     1       1.186  13.743  19.424  0.00  0.00    +0.000 C 
ATOM     14  C   UNL     1       1.824  13.568  20.783  0.00  0.00    +0.000 C 
ATOM     15  O   UNL     1       0.908  12.808  21.583  0.00  0.00    +0.000 OA
ENDBRANCH  10  11
ENDBRANCH   8  10
ENDBRANCH   4   6
BRANCH   1  16
ATOM     16  C   UNL     1       2.761   4.689  18.747  0.00  0.00    +0.000 C 
BRANCH  16  17
ATOM     17  S   UNL     1       4.444   4.215  19.004  0.00  0.00    +0.000 S 
ATOM     18  O   UNL     1       4.454   2.794  19.300  0.00  0.00    +0.000 OA
ATOM     19  O   UNL     1       5.024   5.129  19.975  0.00  0.00    +0.000 OA
BRANCH  17  25
ATOM     20  C   UNL     1       6.748   4.637  17.479  0.00  0.00    +0.000 A 
ATOM     21  C   UNL     1       7.405   4.676  16.237  0.00  0.00    +0.000 A 
ATOM     22  C   UNL     1       6.706   4.504  15.040  0.00  0.00    +0.000 A 
ATOM     23  C   UNL     1       5.335   4.290  15.062  0.00  0.00    +0.000 A 
ATOM     24  C   UNL     1       4.662   4.258  16.283  0.00  0.00    +0.000 A 
ATOM     25  C   UNL     1       5.361   4.442  17.489  0.00  0.00    +0.000 A 
BRANCH  20  27
ATOM     26  C   UNL     1       7.969   6.087  18.906  0.00  0.00    +0.000 C 
ATOM     27  O   UNL     1       7.405   4.793  18.671  0.00  0.00    +0.000 OA
ENDBRANCH  20  27
ENDBRANCH  17  25
ENDBRANCH  16  17
ENDBRANCH   1  16
TORSDOF 7
ENDMDL
MODEL 8
REMARK VINA RESULT:      -6.9      3.738      7.127
REMARK  Name = 
REMARK  8 active torsions:
REMARK  status: ('A' for Active; 'I' for Inactive)
REMARK    1  A    between atoms: C_1  and  O_2
REMARK    2  A    between atoms: O_2  and  C_3
REMARK    3  A    between atoms: C_8  and  S_9
REMARK    4  A    between atoms: S_9  and  C_12
REMARK    5  A    between atoms: C_12  and  C_13
REMARK    6  A    between atoms: C_16  and  C_17
REMARK    7  A    between atoms: N_19  and  C_20
REMARK    8  A    between atoms: C_20  and  C_21
REMARK                            x       y       z     vdW  Elec       q    Type
REMARK                         _______ _______ _______ _____ _____    ______ ____
ROOT
ATOM      1  C   UNL     1       4.103   5.732  17.884  0.00  0.00    +0.000 A 
ATOM      2  C   UNL     1       4.047   6.831  17.049  0.00  0.00    +0.000 A 
ATOM      3  C   UNL     1       3.188   7.769  17.678  0.00  0.00    +0.000 A 
ATOM      4  C   UNL     1       2.767   7.192  18.859  0.00  0.00    +0.000 A 
ATOM      5  O   UNL     1       3.337   5.953  18.988  0.00  0.00    +0.000 OA
ENDROOT
BRANCH   4   6
ATOM      6  C   UNL     1       1.866   7.661  19.892  0.00  0.00    +0.000 C 
ATOM      7  O   UNL     1       1.505   6.973  20.845  0.00  0.00    +0.000 OA
ATOM      8  N   UNL     1       1.453   8.962  19.713  0.00  0.00    +0.000 N 
ATOM      9  H   UNL     1       1.773   9.448  18.882  0.00  0.00    +0.000 HD
BRANCH   8  10
ATOM     10  C   UNL     1       0.533   9.651  20.596  0.00  0.00    +0.000 C 
BRANCH  10  11
ATOM     11  C   UNL     1      -0.719  10.146  19.866  0.00  0.00    +0.000 C 
ATOM     12  C   UNL     1      -0.585  10.248  18.353  0.00  0.00    +0.000 C 
ATOM     13  C   UNL     1      -1.585  11.330  18.027  0.00  0.00    +0.000 C 
ATOM     14  C   UNL     1      -1.416  12.267  19.200  0.00  0.00    +0.000 C 
ATOM     15  O   UNL     1      -1.091  11.459  20.340  0.00  0.00    +0.000 OA
ENDBRANCH  10  11
ENDBRANCH   8  10
ENDBRANCH   4   6
BRANCH   1  16
ATOM     16  C   UNL     1       4.685   4.376  17.766  0.00  0.00    +0.000 C 
BRANCH  16  17
ATOM     17  S   UNL     1       3.455   3.112  17.641  0.00  0.00    +0.000 S 
ATOM     18  O   UNL     1       4.142   1.868  17.340  0.00  0.00    +0.000 OA
ATOM     19  O   UNL     1       2.427   3.576  16.723  0.00  0.00    +0.000 OA
BRANCH  17  25
ATOM     20  C   UNL     1       3.384   2.650  20.396  0.00  0.00    +0.000 A 
ATOM     21  C   UNL     1       2.688   2.628  21.618  0.00  0.00    +0.000 A 
ATOM     22  C   UNL     1       1.315   2.873  21.675  0.00  0.00    +0.000 A 
ATOM     23  C   UNL     1       0.610   3.143  20.510  0.00  0.00    +0.000 A 
ATOM     24  C   UNL     1       1.278   3.159  19.287  0.00  0.00    +0.000 A 
ATOM     25  C   UNL     1       2.659   2.902  19.224  0.00  0.00    +0.000 A 
BRANCH  20  27
ATOM     26  C   UNL     1       5.193   1.182  20.852  0.00  0.00    +0.000 C 
ATOM     27  O   UNL     1       4.733   2.422  20.306  0.00  0.00    +0.000 OA
ENDBRANCH  20  27
ENDBRANCH  17  25
ENDBRANCH  16  17
ENDBRANCH   1  16
TORSDOF 7
ENDMDL
MODEL 9
REMARK VINA RESULT:      -6.9      4.197      8.180
REMARK  Name = 
REMARK  8 active torsions:
REMARK  status: ('A' for Active; 'I' for Inactive)
REMARK    1  A    between atoms: C_1  and  O_2
REMARK    2  A    between atoms: O_2  and  C_3
REMARK    3  A    between atoms: C_8  and  S_9
REMARK    4  A    between atoms: S_9  and  C_12
REMARK    5  A    between atoms: C_12  and  C_13
REMARK    6  A    between atoms: C_16  and  C_17
REMARK    7  A    between atoms: N_19  and  C_20
REMARK    8  A    between atoms: C_20  and  C_21
REMARK                            x       y       z     vdW  Elec       q    Type
REMARK                         _______ _______ _______ _____ _____    ______ ____
ROOT
ATOM      1  C   UNL     1       2.339   5.419  19.378  0.00  0.00    +0.000 A 
ATOM      2  C   UNL     1       1.851   5.810  20.610  0.00  0.00    +0.000 A 
ATOM      3  C   UNL     1       1.546   7.191  20.502  0.00  0.00    +0.000 A 
ATOM      4  C   UNL     1       1.865   7.568  19.214  0.00  0.00    +0.000 A 
ATOM      5  O   UNL     1       2.337   6.481  18.525  0.00  0.00    +0.000 OA
ENDROOT
BRANCH   4   6
ATOM      6  C   UNL     1       1.797   8.849  18.540  0.00  0.00    +0.000 C 
ATOM      7  O   UNL     1       2.253   9.054  17.417  0.00  0.00    +0.000 OA
ATOM      8  N   UNL     1       1.160   9.823  19.275  0.00  0.00    +0.000 N 
ATOM      9  H   UNL     1       0.841   9.578  20.206  0.00  0.00    +0.000 HD
BRANCH   8  10
ATOM     10  C   UNL     1       0.985  11.192  18.831  0.00  0.00    +0.000 C 
BRANCH  10  11
ATOM     11  C   UNL     1       0.186  12.033  19.829  0.00  0.00    +0.000 C 
ATOM     12  C   UNL     1      -1.281  12.236  19.474  0.00  0.00    +0.000 C 
ATOM     13  C   UNL     1      -1.585  13.549  20.153  0.00  0.00    +0.000 C 
ATOM     14  C   UNL     1      -0.298  14.310  19.938  0.00  0.00    +0.000 C 
ATOM     15  O   UNL     1       0.768  13.349  19.958  0.00  0.00    +0.000 OA
ENDBRANCH  10  11
ENDBRANCH   8  10
ENDBRANCH   4   6
BRANCH   1  16
ATOM     16  C   UNL     1       2.960   4.180  18.859  0.00  0.00    +0.000 C 
BRANCH  16  17
ATOM     17  S   UNL     1       4.713   4.148  19.082  0.00  0.00    +0.000 S 
ATOM     18  O   UNL     1       5.070   2.811  19.520  0.00  0.00    +0.000 OA
ATOM     19  O   UNL     1       5.079   5.275  19.926  0.00  0.00    +0.000 OA
BRANCH  17  25
ATOM     20  C   UNL     1       6.893   4.643  17.404  0.00  0.00    +0.000 A 
ATOM     21  C   UNL     1       7.459   4.714  16.119  0.00  0.00    +0.000 A 
ATOM     22  C   UNL     1       6.680   4.542  14.973  0.00  0.00    +0.000 A 
ATOM     23  C   UNL     1       5.320   4.297  15.089  0.00  0.00    +0.000 A 
ATOM     24  C   UNL     1       4.736   4.234  16.353  0.00  0.00    +0.000 A 
ATOM     25  C   UNL     1       5.514   4.417  17.510  0.00  0.00    +0.000 A 
BRANCH  20  27
ATOM     26  C   UNL     1       8.032   6.136  18.855  0.00  0.00    +0.000 C 
ATOM     27  O   UNL     1       7.630   4.798  18.549  0.00  0.00    +0.000 OA
ENDBRANCH  20  27
ENDBRANCH  17  25
ENDBRANCH  16  17
ENDBRANCH   1  16
TORSDOF 7
ENDMDL
