MODEL 1
REMARK VINA RESULT:      -6.7      0.000      0.000
REMARK  Name = 
REMARK  12 active torsions:
REMARK  status: ('A' for Active; 'I' for Inactive)
REMARK    1  A    between atoms: C_1  and  C_2
REMARK    2  A    between atoms: C_2  and  C_3
REMARK    3  A    between atoms: C_3  and  C_4
REMARK    4  A    between atoms: C_4  and  C_5
REMARK    5  A    between atoms: C_5  and  C_6
REMARK    6  A    between atoms: C_6  and  C_7
REMARK    7  A    between atoms: C_7  and  C_8
REMARK    8  A    between atoms: N_10  and  C_11
REMARK    9  A    between atoms: C_11  and  C_12
REMARK   10  A    between atoms: C_15  and  O_16
REMARK   11  A    between atoms: C_17  and  O_18
REMARK   12  A    between atoms: O_18  and  C_19
REMARK                            x       y       z     vdW  Elec       q    Type
REMARK                         _______ _______ _______ _____ _____    ______ ____
ROOT
ATOM      1  C   UNL     1       6.369   4.986  15.227  0.00  0.00    +0.000 C 
ATOM      2  O   UNL     1       7.353   5.613  15.619  0.00  0.00    +0.000 OA
ATOM      3  N   UNL     1       5.082   5.309  15.588  0.00  0.00    +0.000 N 
ATOM      4  H   UNL     1       4.309   4.752  15.255  0.00  0.00    +0.000 HD
ENDROOT
BRANCH   1   5
ATOM      5  C   UNL     1       6.474   3.815  14.267  0.00  0.00    +0.000 C 
BRANCH   5   6
ATOM      6  C   UNL     1       6.040   4.232  12.861  0.00  0.00    +0.000 C 
BRANCH   6   7
ATOM      7  C   UNL     1       5.818   3.037  11.935  0.00  0.00    +0.000 C 
BRANCH   7   8
ATOM      8  C   UNL     1       4.341   2.923  11.550  0.00  0.00    +0.000 C 
BRANCH   8   9
ATOM      9  C   UNL     1       3.882   4.125  10.725  0.00  0.00    +0.000 C 
BRANCH   9  11
ATOM     10  C   UNL     1       2.294   4.926   8.946  0.00  0.00    +0.000 C 
ATOM     11  C   UNL     1       2.870   3.711   9.656  0.00  0.00    +0.000 C 
ENDBRANCH   9  11
ENDBRANCH   8   9
ENDBRANCH   7   8
ENDBRANCH   6   7
ENDBRANCH   5   6
ENDBRANCH   1   5
BRANCH   3  12
ATOM     12  C   UNL     1       4.800   6.390  16.509  0.00  0.00    +0.000 C 
BRANCH  12  13
ATOM     13  C   UNL     1       3.870   5.944  17.608  0.00  0.00    +0.000 A 
ATOM     14  C   UNL     1       3.362   6.887  18.507  0.00  0.00    +0.000 A 
ATOM     15  C   UNL     1       2.482   6.500  19.517  0.00  0.00    +0.000 A 
ATOM     16  C   UNL     1       2.094   5.162  19.639  0.00  0.00    +0.000 A 
ATOM     17  C   UNL     1       2.591   4.196  18.756  0.00  0.00    +0.000 A 
ATOM     18  C   UNL     1       3.478   4.605  17.741  0.00  0.00    +0.000 A 
BRANCH  16  19
ATOM     19  O   UNL     1       1.223   4.839  20.643  0.00  0.00    +0.000 OA
ATOM     20  H   UNL     1       0.525   4.266  20.287  0.00  0.00    +0.000 HD
ENDBRANCH  16  19
BRANCH  17  21
ATOM     21  O   UNL     1       2.324   2.853  18.735  0.00  0.00    +0.000 OA
ATOM     22  C   UNL     1       3.360   1.977  18.309  0.00  0.00    +0.000 C 
ENDBRANCH  17  21
ENDBRANCH  12  13
ENDBRANCH   3  12
TORSDOF 10
ENDMDL
MODEL 2
REMARK VINA RESULT:      -6.6      4.115      6.390
REMARK  Name = 
REMARK  12 active torsions:
REMARK  status: ('A' for Active; 'I' for Inactive)
REMARK    1  A    between atoms: C_1  and  C_2
REMARK    2  A    between atoms: C_2  and  C_3
REMARK    3  A    between atoms: C_3  and  C_4
REMARK    4  A    between atoms: C_4  and  C_5
REMARK    5  A    between atoms: C_5  and  C_6
REMARK    6  A    between atoms: C_6  and  C_7
REMARK    7  A    between atoms: C_7  and  C_8
REMARK    8  A    between atoms: N_10  and  C_11
REMARK    9  A    between atoms: C_11  and  C_12
REMARK   10  A    between atoms: C_15  and  O_16
REMARK   11  A    between atoms: C_17  and  O_18
REMARK   12  A    between atoms: O_18  and  C_19
REMARK                            x       y       z     vdW  Elec       q    Type
REMARK                         _______ _______ _______ _____ _____    ______ ____
ROOT
ATOM      1  C   UNL     1       5.970   6.590  16.837  0.00  0.00    +0.000 C 
ATOM      2  O   UNL     1       5.536   6.621  15.686  0.00  0.00    +0.000 OA
ATOM      3  N   UNL     1       5.161   6.689  17.945  0.00  0.00    +0.000 N 
ATOM      4  H   UNL     1       5.567   6.678  18.870  0.00  0.00    +0.000 HD
ENDROOT
BRANCH   1   5
ATOM      5  C   UNL     1       7.442   6.396  17.152  0.00  0.00    +0.000 C 
BRANCH   5   6
ATOM      6  C   UNL     1       7.900   7.395  18.214  0.00  0.00    +0.000 C 
BRANCH   6   7
ATOM      7  C   UNL     1       7.925   8.833  17.697  0.00  0.00    +0.000 C 
BRANCH   7   8
ATOM      8  C   UNL     1       8.826   9.705  18.577  0.00  0.00    +0.000 C 
BRANCH   8   9
ATOM      9  C   UNL     1       8.848  11.154  18.094  0.00  0.00    +0.000 C 
BRANCH   9  11
ATOM     10  C   UNL     1      11.148  11.307  19.103  0.00  0.00    +0.000 C 
ATOM     11  C   UNL     1      10.281  11.655  17.903  0.00  0.00    +0.000 C 
ENDBRANCH   9  11
ENDBRANCH   8   9
ENDBRANCH   7   8
ENDBRANCH   6   7
ENDBRANCH   5   6
ENDBRANCH   1   5
BRANCH   3  12
ATOM     12  C   UNL     1       3.733   6.893  17.828  0.00  0.00    +0.000 C 
BRANCH  12  13
ATOM     13  C   UNL     1       2.967   5.870  18.627  0.00  0.00    +0.000 A 
ATOM     14  C   UNL     1       2.300   6.264  19.792  0.00  0.00    +0.000 A 
ATOM     15  C   UNL     1       1.567   5.339  20.534  0.00  0.00    +0.000 A 
ATOM     16  C   UNL     1       1.486   4.006  20.119  0.00  0.00    +0.000 A 
ATOM     17  C   UNL     1       2.148   3.584  18.960  0.00  0.00    +0.000 A 
ATOM     18  C   UNL     1       2.883   4.531  18.221  0.00  0.00    +0.000 A 
BRANCH  16  19
ATOM     19  O   UNL     1       0.747   3.144  20.880  0.00  0.00    +0.000 OA
ATOM     20  H   UNL     1       0.471   2.391  20.333  0.00  0.00    +0.000 HD
ENDBRANCH  16  19
BRANCH  17  21
ATOM     21  O   UNL     1       2.181   2.327  18.415  0.00  0.00    +0.000 OA
ATOM     22  C   UNL     1       3.447   1.691  18.293  0.00  0.00    +0.000 C 
ENDBRANCH  17  21
ENDBRANCH  12  13
ENDBRANCH   3  12
TORSDOF 10
ENDMDL
MODEL 3
REMARK VINA RESULT:      -6.6      2.109      3.290
REMARK  Name = 
REMARK  12 active torsions:
REMARK  status: ('A' for Active; 'I' for Inactive)
REMARK    1  A    between atoms: C_1  and  C_2
REMARK    2  A    between atoms: C_2  and  C_3
REMARK    3  A    between atoms: C_3  and  C_4
REMARK    4  A    between atoms: C_4  and  C_5
REMARK    5  A    between atoms: C_5  and  C_6
REMARK    6  A    between atoms: C_6  and  C_7
REMARK    7  A    between atoms: C_7  and  C_8
REMARK    8  A    between atoms: N_10  and  C_11
REMARK    9  A    between atoms: C_11  and  C_12
REMARK   10  A    between atoms: C_15  and  O_16
REMARK   11  A    between atoms: C_17  and  O_18
REMARK   12  A    between atoms: O_18  and  C_19
REMARK                            x       y       z     vdW  Elec       q    Type
REMARK                         _______ _______ _______ _____ _____    ______ ____
ROOT
ATOM      1  C   UNL     1       5.992   6.007  18.015  0.00  0.00    +0.000 C 
ATOM      2  O   UNL     1       5.961   5.634  19.187  0.00  0.00    +0.000 OA
ATOM      3  N   UNL     1       4.898   6.528  17.365  0.00  0.00    +0.000 N 
ATOM      4  H   UNL     1       4.968   6.802  16.396  0.00  0.00    +0.000 HD
ENDROOT
BRANCH   1   5
ATOM      5  C   UNL     1       7.257   5.968  17.177  0.00  0.00    +0.000 C 
BRANCH   5   6
ATOM      6  C   UNL     1       7.327   4.672  16.370  0.00  0.00    +0.000 C 
BRANCH   6   7
ATOM      7  C   UNL     1       6.876   4.855  14.921  0.00  0.00    +0.000 C 
BRANCH   7   8
ATOM      8  C   UNL     1       5.768   3.858  14.573  0.00  0.00    +0.000 C 
BRANCH   8   9
ATOM      9  C   UNL     1       5.363   3.959  13.103  0.00  0.00    +0.000 C 
BRANCH   9  11
ATOM     10  C   UNL     1       5.751   2.082  11.475  0.00  0.00    +0.000 C 
ATOM     11  C   UNL     1       6.379   3.263  12.197  0.00  0.00    +0.000 C 
ENDBRANCH   9  11
ENDBRANCH   8   9
ENDBRANCH   7   8
ENDBRANCH   6   7
ENDBRANCH   5   6
ENDBRANCH   1   5
BRANCH   3  12
ATOM     12  C   UNL     1       3.606   6.625  18.011  0.00  0.00    +0.000 C 
BRANCH  12  13
ATOM     13  C   UNL     1       2.974   5.266  18.176  0.00  0.00    +0.000 A 
ATOM     14  C   UNL     1       3.179   4.287  17.198  0.00  0.00    +0.000 A 
ATOM     15  C   UNL     1       2.623   3.017  17.341  0.00  0.00    +0.000 A 
ATOM     16  C   UNL     1       1.856   2.705  18.468  0.00  0.00    +0.000 A 
ATOM     17  C   UNL     1       1.630   3.668  19.459  0.00  0.00    +0.000 A 
ATOM     18  C   UNL     1       2.201   4.945  19.299  0.00  0.00    +0.000 A 
BRANCH  16  19
ATOM     19  O   UNL     1       1.341   1.442  18.561  0.00  0.00    +0.000 OA
ATOM     20  H   UNL     1       1.805   0.861  17.937  0.00  0.00    +0.000 HD
ENDBRANCH  16  19
BRANCH  17  21
ATOM     21  O   UNL     1       0.906   3.537  20.615  0.00  0.00    +0.000 OA
ATOM     22  C   UNL     1       1.509   2.846  21.701  0.00  0.00    +0.000 C 
ENDBRANCH  17  21
ENDBRANCH  12  13
ENDBRANCH   3  12
TORSDOF 10
ENDMDL
MODEL 4
REMARK VINA RESULT:      -6.5      3.293      7.088
REMARK  Name = 
REMARK  12 active torsions:
REMARK  status: ('A' for Active; 'I' for Inactive)
REMARK    1  A    between atoms: C_1  and  C_2
REMARK    2  A    between atoms: C_2  and  C_3
REMARK    3  A    between atoms: C_3  and  C_4
REMARK    4  A    between atoms: C_4  and  C_5
REMARK    5  A    between atoms: C_5  and  C_6
REMARK    6  A    between atoms: C_6  and  C_7
REMARK    7  A    between atoms: C_7  and  C_8
REMARK    8  A    between atoms: N_10  and  C_11
REMARK    9  A    between atoms: C_11  and  C_12
REMARK   10  A    between atoms: C_15  and  O_16
REMARK   11  A    between atoms: C_17  and  O_18
REMARK   12  A    between atoms: O_18  and  C_19
REMARK                            x       y       z     vdW  Elec       q    Type
REMARK                         _______ _______ _______ _____ _____    ______ ____
ROOT
ATOM      1  C   UNL     1       1.683   3.217  18.440  0.00  0.00    +0.000 C 
ATOM      2  O   UNL     1       1.236   3.784  17.445  0.00  0.00    +0.000 OA
ATOM      3  N   UNL     1       2.969   2.733  18.513  0.00  0.00    +0.000 N 
ATOM      4  H   UNL     1       3.284   2.257  19.346  0.00  0.00    +0.000 HD
ENDROOT
BRANCH   1   5
ATOM      5  C   UNL     1       0.873   3.030  19.710  0.00  0.00    +0.000 C 
BRANCH   5   6
ATOM      6  C   UNL     1       1.787   3.022  20.935  0.00  0.00    +0.000 C 
BRANCH   6   7
ATOM      7  C   UNL     1       2.271   4.420  21.318  0.00  0.00    +0.000 C 
BRANCH   7   8
ATOM      8  C   UNL     1       1.469   5.489  20.571  0.00  0.00    +0.000 C 
BRANCH   8   9
ATOM      9  C   UNL     1       2.386   6.496  19.877  0.00  0.00    +0.000 C 
BRANCH   9  11
ATOM     10  C   UNL     1       1.745   8.619  18.690  0.00  0.00    +0.000 C 
ATOM     11  C   UNL     1       1.864   7.924  20.037  0.00  0.00    +0.000 C 
ENDBRANCH   9  11
ENDBRANCH   8   9
ENDBRANCH   7   8
ENDBRANCH   6   7
ENDBRANCH   5   6
ENDBRANCH   1   5
BRANCH   3  12
ATOM     12  C   UNL     1       3.875   2.814  17.387  0.00  0.00    +0.000 C 
BRANCH  12  13
ATOM     13  C   UNL     1       4.935   3.862  17.612  0.00  0.00    +0.000 A 
ATOM     14  C   UNL     1       5.127   4.384  18.896  0.00  0.00    +0.000 A 
ATOM     15  C   UNL     1       6.117   5.338  19.130  0.00  0.00    +0.000 A 
ATOM     16  C   UNL     1       6.933   5.780  18.084  0.00  0.00    +0.000 A 
ATOM     17  C   UNL     1       6.758   5.278  16.789  0.00  0.00    +0.000 A 
ATOM     18  C   UNL     1       5.755   4.315  16.570  0.00  0.00    +0.000 A 
BRANCH  16  19
ATOM     19  O   UNL     1       7.892   6.711  18.372  0.00  0.00    +0.000 OA
ATOM     20  H   UNL     1       8.605   6.288  18.877  0.00  0.00    +0.000 HD
ENDBRANCH  16  19
BRANCH  17  21
ATOM     21  O   UNL     1       7.457   5.602  15.656  0.00  0.00    +0.000 OA
ATOM     22  C   UNL     1       7.140   4.903  14.459  0.00  0.00    +0.000 C 
ENDBRANCH  17  21
ENDBRANCH  12  13
ENDBRANCH   3  12
TORSDOF 10
ENDMDL
MODEL 5
REMARK VINA RESULT:      -6.5      1.469      2.515
REMARK  Name = 
REMARK  12 active torsions:
REMARK  status: ('A' for Active; 'I' for Inactive)
REMARK    1  A    between atoms: C_1  and  C_2
REMARK    2  A    between atoms: C_2  and  C_3
REMARK    3  A    between atoms: C_3  and  C_4
REMARK    4  A    between atoms: C_4  and  C_5
REMARK    5  A    between atoms: C_5  and  C_6
REMARK    6  A    between atoms: C_6  and  C_7
REMARK    7  A    between atoms: C_7  and  C_8
REMARK    8  A    between atoms: N_10  and  C_11
REMARK    9  A    between atoms: C_11  and  C_12
REMARK   10  A    between atoms: C_15  and  O_16
REMARK   11  A    between atoms: C_17  and  O_18
REMARK   12  A    between atoms: O_18  and  C_19
REMARK                            x       y       z     vdW  Elec       q    Type
REMARK                         _______ _______ _______ _____ _____    ______ ____
ROOT
ATOM      1  C   UNL     1       6.633   5.327  16.361  0.00  0.00    +0.000 C 
ATOM      2  O   UNL     1       6.214   6.473  16.517  0.00  0.00    +0.000 OA
ATOM      3  N   UNL     1       6.438   4.326  17.284  0.00  0.00    +0.000 N 
ATOM      4  H   UNL     1       6.819   3.405  17.119  0.00  0.00    +0.000 HD
ENDROOT
BRANCH   1   5
ATOM      5  C   UNL     1       7.373   4.888  15.110  0.00  0.00    +0.000 C 
BRANCH   5   6
ATOM      6  C   UNL     1       6.420   4.826  13.916  0.00  0.00    +0.000 C 
BRANCH   6   7
ATOM      7  C   UNL     1       5.857   3.424  13.686  0.00  0.00    +0.000 C 
BRANCH   7   8
ATOM      8  C   UNL     1       5.699   3.148  12.188  0.00  0.00    +0.000 C 
BRANCH   8   9
ATOM      9  C   UNL     1       4.561   3.970  11.584  0.00  0.00    +0.000 C 
BRANCH   9  11
ATOM     10  C   UNL     1       2.883   3.948   9.710  0.00  0.00    +0.000 C 
ATOM     11  C   UNL     1       3.650   3.103  10.715  0.00  0.00    +0.000 C 
ENDBRANCH   9  11
ENDBRANCH   8   9
ENDBRANCH   7   8
ENDBRANCH   6   7
ENDBRANCH   5   6
ENDBRANCH   1   5
BRANCH   3  12
ATOM     12  C   UNL     1       5.765   4.573  18.541  0.00  0.00    +0.000 C 
BRANCH  12  13
ATOM     13  C   UNL     1       4.358   4.032  18.524  0.00  0.00    +0.000 A 
ATOM     14  C   UNL     1       4.024   3.006  17.633  0.00  0.00    +0.000 A 
ATOM     15  C   UNL     1       2.735   2.477  17.616  0.00  0.00    +0.000 A 
ATOM     16  C   UNL     1       1.760   2.963  18.492  0.00  0.00    +0.000 A 
ATOM     17  C   UNL     1       2.065   3.992  19.390  0.00  0.00    +0.000 A 
ATOM     18  C   UNL     1       3.373   4.515  19.396  0.00  0.00    +0.000 A 
BRANCH  16  19
ATOM     19  O   UNL     1       0.514   2.401  18.437  0.00  0.00    +0.000 OA
ATOM     20  H   UNL     1       0.497   1.608  18.996  0.00  0.00    +0.000 HD
ENDBRANCH  16  19
BRANCH  17  21
ATOM     21  O   UNL     1       1.239   4.587  20.307  0.00  0.00    +0.000 OA
ATOM     22  C   UNL     1       1.571   5.898  20.746  0.00  0.00    +0.000 C 
ENDBRANCH  17  21
ENDBRANCH  12  13
ENDBRANCH   3  12
TORSDOF 10
ENDMDL
MODEL 6
REMARK VINA RESULT:      -6.5      2.770      6.809
REMARK  Name = 
REMARK  12 active torsions:
REMARK  status: ('A' for Active; 'I' for Inactive)
REMARK    1  A    between atoms: C_1  and  C_2
REMARK    2  A    between atoms: C_2  and  C_3
REMARK    3  A    between atoms: C_3  and  C_4
REMARK    4  A    between atoms: C_4  and  C_5
REMARK    5  A    between atoms: C_5  and  C_6
REMARK    6  A    between atoms: C_6  and  C_7
REMARK    7  A    between atoms: C_7  and  C_8
REMARK    8  A    between atoms: N_10  and  C_11
REMARK    9  A    between atoms: C_11  and  C_12
REMARK   10  A    between atoms: C_15  and  O_16
REMARK   11  A    between atoms: C_17  and  O_18
REMARK   12  A    between atoms: O_18  and  C_19
REMARK                            x       y       z     vdW  Elec       q    Type
REMARK                         _______ _______ _______ _____ _____    ______ ____
ROOT
ATOM      1  C   UNL     1       1.925   5.739  18.969  0.00  0.00    +0.000 C 
ATOM      2  O   UNL     1       1.650   5.113  17.947  0.00  0.00    +0.000 OA
ATOM      3  N   UNL     1       2.789   6.809  18.983  0.00  0.00    +0.000 N 
ATOM      4  H   UNL     1       2.999   7.278  19.852  0.00  0.00    +0.000 HD
ENDROOT
BRANCH   1   5
ATOM      5  C   UNL     1       1.304   5.420  20.317  0.00  0.00    +0.000 C 
BRANCH   5   6
ATOM      6  C   UNL     1       2.328   4.755  21.237  0.00  0.00    +0.000 C 
BRANCH   6   7
ATOM      7  C   UNL     1       2.070   3.260  21.422  0.00  0.00    +0.000 C 
BRANCH   7   8
ATOM      8  C   UNL     1       1.019   2.769  20.423  0.00  0.00    +0.000 C 
BRANCH   8   9
ATOM      9  C   UNL     1       1.657   1.978  19.281  0.00  0.00    +0.000 C 
BRANCH   9  11
ATOM     10  C   UNL     1       3.682   2.321  17.828  0.00  0.00    +0.000 C 
ATOM     11  C   UNL     1       3.174   2.168  19.253  0.00  0.00    +0.000 C 
ENDBRANCH   9  11
ENDBRANCH   8   9
ENDBRANCH   7   8
ENDBRANCH   6   7
ENDBRANCH   5   6
ENDBRANCH   1   5
BRANCH   3  12
ATOM     12  C   UNL     1       3.483   7.241  17.788  0.00  0.00    +0.000 C 
BRANCH  12  13
ATOM     13  C   UNL     1       4.727   6.423  17.552  0.00  0.00    +0.000 A 
ATOM     14  C   UNL     1       5.384   5.836  18.639  0.00  0.00    +0.000 A 
ATOM     15  C   UNL     1       6.522   5.057  18.441  0.00  0.00    +0.000 A 
ATOM     16  C   UNL     1       7.020   4.849  17.151  0.00  0.00    +0.000 A 
ATOM     17  C   UNL     1       6.385   5.429  16.046  0.00  0.00    +0.000 A 
ATOM     18  C   UNL     1       5.235   6.211  16.263  0.00  0.00    +0.000 A 
BRANCH  16  19
ATOM     19  O   UNL     1       8.135   4.070  17.014  0.00  0.00    +0.000 OA
ATOM     20  H   UNL     1       8.268   3.866  16.075  0.00  0.00    +0.000 HD
ENDBRANCH  16  19
BRANCH  17  21
ATOM     21  O   UNL     1       6.737   5.335  14.725  0.00  0.00    +0.000 OA
ATOM     22  C   UNL     1       6.238   4.230  13.982  0.00  0.00    +0.000 C 
ENDBRANCH  17  21
ENDBRANCH  12  13
ENDBRANCH   3  12
TORSDOF 10
ENDMDL
MODEL 7
REMARK VINA RESULT:      -6.5      4.277      7.059
REMARK  Name = 
REMARK  12 active torsions:
REMARK  status: ('A' for Active; 'I' for Inactive)
REMARK    1  A    between atoms: C_1  and  C_2
REMARK    2  A    between atoms: C_2  and  C_3
REMARK    3  A    between atoms: C_3  and  C_4
REMARK    4  A    between atoms: C_4  and  C_5
REMARK    5  A    between atoms: C_5  and  C_6
REMARK    6  A    between atoms: C_6  and  C_7
REMARK    7  A    between atoms: C_7  and  C_8
REMARK    8  A    between atoms: N_10  and  C_11
REMARK    9  A    between atoms: C_11  and  C_12
REMARK   10  A    between atoms: C_15  and  O_16
REMARK   11  A    between atoms: C_17  and  O_18
REMARK   12  A    between atoms: O_18  and  C_19
REMARK                            x       y       z     vdW  Elec       q    Type
REMARK                         _______ _______ _______ _____ _____    ______ ____
ROOT
ATOM      1  C   UNL     1       7.323   6.463  17.671  0.00  0.00    +0.000 C 
ATOM      2  O   UNL     1       7.454   5.243  17.747  0.00  0.00    +0.000 OA
ATOM      3  N   UNL     1       6.337   7.067  16.925  0.00  0.00    +0.000 N 
ATOM      4  H   UNL     1       6.283   8.074  16.880  0.00  0.00    +0.000 HD
ENDROOT
BRANCH   1   5
ATOM      5  C   UNL     1       8.212   7.431  18.431  0.00  0.00    +0.000 C 
BRANCH   5   6
ATOM      6  C   UNL     1       8.079   8.844  17.862  0.00  0.00    +0.000 C 
BRANCH   6   7
ATOM      7  C   UNL     1       8.979   9.852  18.574  0.00  0.00    +0.000 C 
BRANCH   7   8
ATOM      8  C   UNL     1       8.786  11.253  17.986  0.00  0.00    +0.000 C 
BRANCH   8   9
ATOM      9  C   UNL     1       9.707  12.273  18.654  0.00  0.00    +0.000 C 
BRANCH   9  11
ATOM     10  C   UNL     1      11.865  12.024  19.923  0.00  0.00    +0.000 C 
ATOM     11  C   UNL     1      10.383  11.685  19.893  0.00  0.00    +0.000 C 
ENDBRANCH   9  11
ENDBRANCH   8   9
ENDBRANCH   7   8
ENDBRANCH   6   7
ENDBRANCH   5   6
ENDBRANCH   1   5
BRANCH   3  12
ATOM     12  C   UNL     1       5.410   6.294  16.126  0.00  0.00    +0.000 C 
BRANCH  12  13
ATOM     13  C   UNL     1       4.312   5.707  16.976  0.00  0.00    +0.000 A 
ATOM     14  C   UNL     1       3.595   6.536  17.845  0.00  0.00    +0.000 A 
ATOM     15  C   UNL     1       2.561   6.019  18.623  0.00  0.00    +0.000 A 
ATOM     16  C   UNL     1       2.225   4.664  18.540  0.00  0.00    +0.000 A 
ATOM     17  C   UNL     1       2.929   3.811  17.682  0.00  0.00    +0.000 A 
ATOM     18  C   UNL     1       3.970   4.350  16.903  0.00  0.00    +0.000 A 
BRANCH  16  19
ATOM     19  O   UNL     1       1.197   4.212  19.321  0.00  0.00    +0.000 OA
ATOM     20  H   UNL     1       0.359   4.562  18.978  0.00  0.00    +0.000 HD
ENDBRANCH  16  19
BRANCH  17  21
ATOM     21  O   UNL     1       2.739   2.469  17.482  0.00  0.00    +0.000 OA
ATOM     22  C   UNL     1       3.478   1.566  18.296  0.00  0.00    +0.000 C 
ENDBRANCH  17  21
ENDBRANCH  12  13
ENDBRANCH   3  12
TORSDOF 10
ENDMDL
MODEL 8
REMARK VINA RESULT:      -6.5      2.852      6.735
REMARK  Name = 
REMARK  12 active torsions:
REMARK  status: ('A' for Active; 'I' for Inactive)
REMARK    1  A    between atoms: C_1  and  C_2
REMARK    2  A    between atoms: C_2  and  C_3
REMARK    3  A    between atoms: C_3  and  C_4
REMARK    4  A    between atoms: C_4  and  C_5
REMARK    5  A    between atoms: C_5  and  C_6
REMARK    6  A    between atoms: C_6  and  C_7
REMARK    7  A    between atoms: C_7  and  C_8
REMARK    8  A    between atoms: N_10  and  C_11
REMARK    9  A    between atoms: C_11  and  C_12
REMARK   10  A    between atoms: C_15  and  O_16
REMARK   11  A    between atoms: C_17  and  O_18
REMARK   12  A    between atoms: O_18  and  C_19
REMARK                            x       y       z     vdW  Elec       q    Type
REMARK                         _______ _______ _______ _____ _____    ______ ____
ROOT
ATOM      1  C   UNL     1       2.170   5.500  19.280  0.00  0.00    +0.000 C 
ATOM      2  O   UNL     1       2.664   6.012  20.284  0.00  0.00    +0.000 OA
ATOM      3  N   UNL     1       2.631   5.748  18.008  0.00  0.00    +0.000 N 
ATOM      4  H   UNL     1       2.179   5.318  17.214  0.00  0.00    +0.000 HD
ENDROOT
BRANCH   1   5
ATOM      5  C   UNL     1       1.024   4.506  19.347  0.00  0.00    +0.000 C 
BRANCH   5   6
ATOM      6  C   UNL     1       1.029   3.770  20.687  0.00  0.00    +0.000 C 
BRANCH   6   7
ATOM      7  C   UNL     1       1.777   2.439  20.624  0.00  0.00    +0.000 C 
BRANCH   7   8
ATOM      8  C   UNL     1       3.230   2.618  21.072  0.00  0.00    +0.000 C 
BRANCH   8   9
ATOM      9  C   UNL     1       4.208   2.324  19.935  0.00  0.00    +0.000 C 
BRANCH   9  11
ATOM     10  C   UNL     1       3.704   2.547  17.480  0.00  0.00    +0.000 C 
ATOM     11  C   UNL     1       3.492   1.709  18.731  0.00  0.00    +0.000 C 
ENDBRANCH   9  11
ENDBRANCH   8   9
ENDBRANCH   7   8
ENDBRANCH   6   7
ENDBRANCH   5   6
ENDBRANCH   1   5
BRANCH   3  12
ATOM     12  C   UNL     1       3.709   6.682  17.760  0.00  0.00    +0.000 C 
BRANCH  12  13
ATOM     13  C   UNL     1       5.042   5.981  17.721  0.00  0.00    +0.000 A 
ATOM     14  C   UNL     1       5.683   5.650  18.920  0.00  0.00    +0.000 A 
ATOM     15  C   UNL     1       6.906   4.982  18.907  0.00  0.00    +0.000 A 
ATOM     16  C   UNL     1       7.505   4.629  17.694  0.00  0.00    +0.000 A 
ATOM     17  C   UNL     1       6.888   4.952  16.479  0.00  0.00    +0.000 A 
ATOM     18  C   UNL     1       5.653   5.627  16.510  0.00  0.00    +0.000 A 
BRANCH  16  19
ATOM     19  O   UNL     1       8.701   3.968  17.740  0.00  0.00    +0.000 OA
ATOM     20  H   UNL     1       9.364   4.537  18.162  0.00  0.00    +0.000 HD
ENDBRANCH  16  19
BRANCH  17  21
ATOM     21  O   UNL     1       7.333   4.691  15.209  0.00  0.00    +0.000 OA
ATOM     22  C   UNL     1       6.397   4.174  14.273  0.00  0.00    +0.000 C 
ENDBRANCH  17  21
ENDBRANCH  12  13
ENDBRANCH   3  12
TORSDOF 10
ENDMDL
MODEL 9
REMARK VINA RESULT:      -6.4      1.607      2.177
REMARK  Name = 
REMARK  12 active torsions:
REMARK  status: ('A' for Active; 'I' for Inactive)
REMARK    1  A    between atoms: C_1  and  C_2
REMARK    2  A    between atoms: C_2  and  C_3
REMARK    3  A    between atoms: C_3  and  C_4
REMARK    4  A    between atoms: C_4  and  C_5
REMARK    5  A    between atoms: C_5  and  C_6
REMARK    6  A    between atoms: C_6  and  C_7
REMARK    7  A    between atoms: C_7  and  C_8
REMARK    8  A    between atoms: N_10  and  C_11
REMARK    9  A    between atoms: C_11  and  C_12
REMARK   10  A    between atoms: C_15  and  O_16
REMARK   11  A    between atoms: C_17  and  O_18
REMARK   12  A    between atoms: O_18  and  C_19
REMARK                            x       y       z     vdW  Elec       q    Type
REMARK                         _______ _______ _______ _____ _____    ______ ____
ROOT
ATOM      1  C   UNL     1       6.665   5.221  16.764  0.00  0.00    +0.000 C 
ATOM      2  O   UNL     1       7.448   5.412  17.693  0.00  0.00    +0.000 OA
ATOM      3  N   UNL     1       5.370   5.684  16.767  0.00  0.00    +0.000 N 
ATOM      4  H   UNL     1       4.760   5.484  15.989  0.00  0.00    +0.000 HD
ENDROOT
BRANCH   1   5
ATOM      5  C   UNL     1       7.063   4.488  15.495  0.00  0.00    +0.000 C 
BRANCH   5   6
ATOM      6  C   UNL     1       5.857   4.321  14.570  0.00  0.00    +0.000 C 
BRANCH   6   7
ATOM      7  C   UNL     1       6.180   3.496  13.325  0.00  0.00    +0.000 C 
BRANCH   7   8
ATOM      8  C   UNL     1       5.067   3.637  12.284  0.00  0.00    +0.000 C 
BRANCH   8   9
ATOM      9  C   UNL     1       5.048   2.452  11.319  0.00  0.00    +0.000 C 
BRANCH   9  11
ATOM     10  C   UNL     1       6.128   0.185  11.173  0.00  0.00    +0.000 C 
ATOM     11  C   UNL     1       6.363   1.674  11.368  0.00  0.00    +0.000 C 
ENDBRANCH   9  11
ENDBRANCH   8   9
ENDBRANCH   7   8
ENDBRANCH   6   7
ENDBRANCH   5   6
ENDBRANCH   1   5
BRANCH   3  12
ATOM     12  C   UNL     1       4.820   6.391  17.905  0.00  0.00    +0.000 C 
BRANCH  12  13
ATOM     13  C   UNL     1       3.708   5.606  18.551  0.00  0.00    +0.000 A 
ATOM     14  C   UNL     1       2.907   6.215  19.523  0.00  0.00    +0.000 A 
ATOM     15  C   UNL     1       1.859   5.515  20.117  0.00  0.00    +0.000 A 
ATOM     16  C   UNL     1       1.592   4.194  19.744  0.00  0.00    +0.000 A 
ATOM     17  C   UNL     1       2.381   3.558  18.777  0.00  0.00    +0.000 A 
ATOM     18  C   UNL     1       3.435   4.280  18.187  0.00  0.00    +0.000 A 
BRANCH  16  19
ATOM     19  O   UNL     1       0.547   3.556  20.353  0.00  0.00    +0.000 OA
ATOM     20  H   UNL     1       0.076   3.018  19.697  0.00  0.00    +0.000 HD
ENDBRANCH  16  19
BRANCH  17  21
ATOM     21  O   UNL     1       2.266   2.278  18.301  0.00  0.00    +0.000 OA
ATOM     22  C   UNL     1       3.450   1.498  18.203  0.00  0.00    +0.000 C 
ENDBRANCH  17  21
ENDBRANCH  12  13
ENDBRANCH   3  12
TORSDOF 10
ENDMDL
