MODEL 1
REMARK VINA RESULT:      -7.1      0.000      0.000
REMARK  Name = 
REMARK  3 active torsions:
REMARK  status: ('A' for Active; 'I' for Inactive)
REMARK    1  A    between atoms: C_1  and  C_2
REMARK    2  A    between atoms: C_8  and  N_9
REMARK    3  A    between atoms: C_12  and  C_13
REMARK                            x       y       z     vdW  Elec       q    Type
REMARK                         _______ _______ _______ _____ _____    ______ ____
ROOT
ATOM      1  N   UNL     1       5.004   7.215  17.055  0.00  0.00    +0.000 N 
ATOM      2  C   UNL     1       3.935   6.988  17.860  0.00  0.00    +0.000 A 
ATOM      3  N   UNL     1       3.765   5.915  18.601  0.00  0.00    +0.000 NA
ATOM      4  C   UNL     1       2.525   5.907  19.210  0.00  0.00    +0.000 A 
ATOM      5  C   UNL     1       1.759   7.024  18.951  0.00  0.00    +0.000 A 
ATOM      6  S   UNL     1       2.636   8.117  17.955  0.00  0.00    +0.000 S 
ATOM      7  H   UNL     1       5.003   8.080  16.523  0.00  0.00    +0.000 HD
ENDROOT
BRANCH   1  15
ATOM      8  C   UNL     1       7.543   6.190  18.128  0.00  0.00    +0.000 C 
ATOM      9  C   UNL     1       6.918   5.675  16.859  0.00  0.00    +0.000 A 
ATOM     10  C   UNL     1       7.579   4.652  16.152  0.00  0.00    +0.000 A 
ATOM     11  C   UNL     1       7.036   4.116  14.983  0.00  0.00    +0.000 A 
ATOM     12  C   UNL     1       5.829   4.607  14.504  0.00  0.00    +0.000 A 
ATOM     13 CL   UNL     1       5.145   3.963  13.063  0.00  0.00    +0.000 Cl
ATOM     14  C   UNL     1       5.169   5.625  15.185  0.00  0.00    +0.000 A 
ATOM     15  C   UNL     1       5.694   6.179  16.369  0.00  0.00    +0.000 A 
ENDBRANCH   1  15
BRANCH   4  16
ATOM     16  C   UNL     1       2.107   4.757  19.997  0.00  0.00    +0.000 A 
ATOM     17  C   UNL     1       1.223   3.818  19.451  0.00  0.00    +0.000 A 
ATOM     18  C   UNL     1       0.818   2.717  20.201  0.00  0.00    +0.000 A 
ATOM     19  C   UNL     1       1.316   2.582  21.485  0.00  0.00    +0.000 A 
ATOM     20  N   UNL     1       2.175   3.456  22.051  0.00  0.00    +0.000 NA
ATOM     21  C   UNL     1       2.553   4.517  21.294  0.00  0.00    +0.000 A 
ENDBRANCH   4  16
TORSDOF 2
ENDMDL
MODEL 2
REMARK VINA RESULT:      -7.1      2.331      3.565
REMARK  Name = 
REMARK  3 active torsions:
REMARK  status: ('A' for Active; 'I' for Inactive)
REMARK    1  A    between atoms: C_1  and  C_2
REMARK    2  A    between atoms: C_8  and  N_9
REMARK    3  A    between atoms: C_12  and  C_13
REMARK                            x       y       z     vdW  Elec       q    Type
REMARK                         _______ _______ _______ _____ _____    ______ ____
ROOT
ATOM      1  N   UNL     1       4.858   3.147  17.202  0.00  0.00    +0.000 N 
ATOM      2  C   UNL     1       4.180   3.890  18.114  0.00  0.00    +0.000 A 
ATOM      3  N   UNL     1       3.609   5.049  17.866  0.00  0.00    +0.000 NA
ATOM      4  C   UNL     1       3.108   5.627  19.016  0.00  0.00    +0.000 A 
ATOM      5  C   UNL     1       3.272   4.863  20.153  0.00  0.00    +0.000 A 
ATOM      6  S   UNL     1       4.035   3.375  19.753  0.00  0.00    +0.000 S 
ATOM      7  H   UNL     1       5.264   2.276  17.530  0.00  0.00    +0.000 HD
ENDROOT
BRANCH   1  15
ATOM      8  C   UNL     1       7.212   4.795  17.828  0.00  0.00    +0.000 C 
ATOM      9  C   UNL     1       6.751   4.518  16.422  0.00  0.00    +0.000 A 
ATOM     10  C   UNL     1       7.482   5.073  15.354  0.00  0.00    +0.000 A 
ATOM     11  C   UNL     1       7.119   4.831  14.028  0.00  0.00    +0.000 A 
ATOM     12  C   UNL     1       6.012   4.038  13.758  0.00  0.00    +0.000 A 
ATOM     13 CL   UNL     1       5.545   3.732  12.131  0.00  0.00    +0.000 Cl
ATOM     14  C   UNL     1       5.272   3.492  14.802  0.00  0.00    +0.000 A 
ATOM     15  C   UNL     1       5.621   3.718  16.148  0.00  0.00    +0.000 A 
ENDBRANCH   1  15
BRANCH   4  16
ATOM     16  C   UNL     1       2.522   6.958  18.967  0.00  0.00    +0.000 A 
ATOM     17  C   UNL     1       2.570   7.701  17.782  0.00  0.00    +0.000 A 
ATOM     18  C   UNL     1       2.013   8.977  17.731  0.00  0.00    +0.000 A 
ATOM     19  C   UNL     1       1.415   9.475  18.875  0.00  0.00    +0.000 A 
ATOM     20  N   UNL     1       1.339   8.793  20.038  0.00  0.00    +0.000 NA
ATOM     21  C   UNL     1       1.889   7.552  20.055  0.00  0.00    +0.000 A 
ENDBRANCH   4  16
TORSDOF 2
ENDMDL
MODEL 3
REMARK VINA RESULT:      -7.0      2.321      3.890
REMARK  Name = 
REMARK  3 active torsions:
REMARK  status: ('A' for Active; 'I' for Inactive)
REMARK    1  A    between atoms: C_1  and  C_2
REMARK    2  A    between atoms: C_8  and  N_9
REMARK    3  A    between atoms: C_12  and  C_13
REMARK                            x       y       z     vdW  Elec       q    Type
REMARK                         _______ _______ _______ _____ _____    ______ ____
ROOT
ATOM      1  N   UNL     1       3.960   3.757  18.203  0.00  0.00    +0.000 N 
ATOM      2  C   UNL     1       3.213   4.640  18.914  0.00  0.00    +0.000 A 
ATOM      3  N   UNL     1       2.893   5.850  18.511  0.00  0.00    +0.000 NA
ATOM      4  C   UNL     1       2.238   6.561  19.499  0.00  0.00    +0.000 A 
ATOM      5  C   UNL     1       2.027   5.851  20.662  0.00  0.00    +0.000 A 
ATOM      6  S   UNL     1       2.629   4.249  20.488  0.00  0.00    +0.000 S 
ATOM      7  H   UNL     1       4.147   2.859  18.639  0.00  0.00    +0.000 HD
ENDROOT
BRANCH   1  15
ATOM      8  C   UNL     1       6.288   5.182  19.297  0.00  0.00    +0.000 C 
ATOM      9  C   UNL     1       6.142   4.842  17.838  0.00  0.00    +0.000 A 
ATOM     10  C   UNL     1       7.169   5.223  16.954  0.00  0.00    +0.000 A 
ATOM     11  C   UNL     1       7.102   4.914  15.594  0.00  0.00    +0.000 A 
ATOM     12  C   UNL     1       6.000   4.227  15.105  0.00  0.00    +0.000 A 
ATOM     13 CL   UNL     1       5.897   3.841  13.431  0.00  0.00    +0.000 Cl
ATOM     14  C   UNL     1       4.971   3.854  15.963  0.00  0.00    +0.000 A 
ATOM     15  C   UNL     1       5.017   4.151  17.340  0.00  0.00    +0.000 A 
ENDBRANCH   1  15
BRANCH   4  16
ATOM     16  C   UNL     1       1.885   7.955  19.281  0.00  0.00    +0.000 A 
ATOM     17  C   UNL     1       2.177   8.569  18.057  0.00  0.00    +0.000 A 
ATOM     18  C   UNL     1       1.843   9.904  17.846  0.00  0.00    +0.000 A 
ATOM     19  C   UNL     1       1.217  10.592  18.870  0.00  0.00    +0.000 A 
ATOM     20  N   UNL     1       0.909  10.041  20.064  0.00  0.00    +0.000 NA
ATOM     21  C   UNL     1       1.245   8.738  20.238  0.00  0.00    +0.000 A 
ENDBRANCH   4  16
TORSDOF 2
ENDMDL
MODEL 4
REMARK VINA RESULT:      -7.0      2.331      3.738
REMARK  Name = 
REMARK  3 active torsions:
REMARK  status: ('A' for Active; 'I' for Inactive)
REMARK    1  A    between atoms: C_1  and  C_2
REMARK    2  A    between atoms: C_8  and  N_9
REMARK    3  A    between atoms: C_12  and  C_13
REMARK                            x       y       z     vdW  Elec       q    Type
REMARK                         _______ _______ _______ _____ _____    ______ ____
ROOT
ATOM      1  N   UNL     1       4.783   3.270  17.222  0.00  0.00    +0.000 N 
ATOM      2  C   UNL     1       4.102   4.065  18.087  0.00  0.00    +0.000 A 
ATOM      3  N   UNL     1       3.565   5.225  17.779  0.00  0.00    +0.000 NA
ATOM      4  C   UNL     1       3.051   5.861  18.892  0.00  0.00    +0.000 A 
ATOM      5  C   UNL     1       3.172   5.141  20.063  0.00  0.00    +0.000 A 
ATOM      6  S   UNL     1       3.909   3.621  19.741  0.00  0.00    +0.000 S 
ATOM      7  H   UNL     1       5.161   2.404  17.595  0.00  0.00    +0.000 HD
ENDROOT
BRANCH   1  15
ATOM      8  C   UNL     1       7.188   4.847  17.836  0.00  0.00    +0.000 C 
ATOM      9  C   UNL     1       6.738   4.545  16.432  0.00  0.00    +0.000 A 
ATOM     10  C   UNL     1       7.506   5.039  15.360  0.00  0.00    +0.000 A 
ATOM     11  C   UNL     1       7.153   4.770  14.036  0.00  0.00    +0.000 A 
ATOM     12  C   UNL     1       6.022   4.011  13.772  0.00  0.00    +0.000 A 
ATOM     13 CL   UNL     1       5.568   3.673  12.148  0.00  0.00    +0.000 Cl
ATOM     14  C   UNL     1       5.246   3.525  14.820  0.00  0.00    +0.000 A 
ATOM     15  C   UNL     1       5.583   3.779  16.164  0.00  0.00    +0.000 A 
ENDBRANCH   1  15
BRANCH   4  16
ATOM     16  C   UNL     1       2.498   7.202  18.775  0.00  0.00    +0.000 A 
ATOM     17  C   UNL     1       1.820   7.776  19.857  0.00  0.00    +0.000 A 
ATOM     18  C   UNL     1       1.286   9.058  19.748  0.00  0.00    +0.000 A 
ATOM     19  C   UNL     1       1.452   9.737  18.554  0.00  0.00    +0.000 A 
ATOM     20  N   UNL     1       2.103   9.227  17.487  0.00  0.00    +0.000 NA
ATOM     21  C   UNL     1       2.614   7.976  17.625  0.00  0.00    +0.000 A 
ENDBRANCH   4  16
TORSDOF 2
ENDMDL
MODEL 5
REMARK VINA RESULT:      -7.0      2.240      4.031
REMARK  Name = 
REMARK  3 active torsions:
REMARK  status: ('A' for Active; 'I' for Inactive)
REMARK    1  A    between atoms: C_1  and  C_2
REMARK    2  A    between atoms: C_8  and  N_9
REMARK    3  A    between atoms: C_12  and  C_13
REMARK                            x       y       z     vdW  Elec       q    Type
REMARK                         _______ _______ _______ _____ _____    ______ ____
ROOT
ATOM      1  N   UNL     1       3.935   3.834  18.213  0.00  0.00    +0.000 N 
ATOM      2  C   UNL     1       3.192   4.755  18.879  0.00  0.00    +0.000 A 
ATOM      3  N   UNL     1       2.901   5.955  18.429  0.00  0.00    +0.000 NA
ATOM      4  C   UNL     1       2.241   6.711  19.378  0.00  0.00    +0.000 A 
ATOM      5  C   UNL     1       1.995   6.045  20.561  0.00  0.00    +0.000 A 
ATOM      6  S   UNL     1       2.571   4.428  20.454  0.00  0.00    +0.000 S 
ATOM      7  H   UNL     1       4.099   2.949  18.683  0.00  0.00    +0.000 HD
ENDROOT
BRANCH   1  15
ATOM      8  C   UNL     1       6.305   5.181  19.319  0.00  0.00    +0.000 C 
ATOM      9  C   UNL     1       6.161   4.834  17.861  0.00  0.00    +0.000 A 
ATOM     10  C   UNL     1       7.211   5.167  16.984  0.00  0.00    +0.000 A 
ATOM     11  C   UNL     1       7.146   4.848  15.627  0.00  0.00    +0.000 A 
ATOM     12  C   UNL     1       6.023   4.199  15.132  0.00  0.00    +0.000 A 
ATOM     13 CL   UNL     1       5.923   3.801  13.461  0.00  0.00    +0.000 Cl
ATOM     14  C   UNL     1       4.972   3.873  15.982  0.00  0.00    +0.000 A 
ATOM     15  C   UNL     1       5.016   4.180  17.357  0.00  0.00    +0.000 A 
ENDBRANCH   1  15
BRANCH   4  16
ATOM     16  C   UNL     1       1.916   8.103  19.107  0.00  0.00    +0.000 A 
ATOM     17  C   UNL     1       1.200   8.851  20.048  0.00  0.00    +0.000 A 
ATOM     18  C   UNL     1       0.884  10.183  19.791  0.00  0.00    +0.000 A 
ATOM     19  C   UNL     1       1.302  10.735  18.592  0.00  0.00    +0.000 A 
ATOM     20  N   UNL     1       2.000  10.054  17.658  0.00  0.00    +0.000 NA
ATOM     21  C   UNL     1       2.294   8.759  17.939  0.00  0.00    +0.000 A 
ENDBRANCH   4  16
TORSDOF 2
ENDMDL
MODEL 6
REMARK VINA RESULT:      -6.7      0.644      1.076
REMARK  Name = 
REMARK  3 active torsions:
REMARK  status: ('A' for Active; 'I' for Inactive)
REMARK    1  A    between atoms: C_1  and  C_2
REMARK    2  A    between atoms: C_8  and  N_9
REMARK    3  A    between atoms: C_12  and  C_13
REMARK                            x       y       z     vdW  Elec       q    Type
REMARK                         _______ _______ _______ _____ _____    ______ ____
ROOT
ATOM      1  N   UNL     1       5.020   7.260  17.035  0.00  0.00    +0.000 N 
ATOM      2  C   UNL     1       3.935   7.021  17.815  0.00  0.00    +0.000 A 
ATOM      3  N   UNL     1       3.748   5.935  18.532  0.00  0.00    +0.000 NA
ATOM      4  C   UNL     1       2.496   5.919  19.117  0.00  0.00    +0.000 A 
ATOM      5  C   UNL     1       1.738   7.043  18.864  0.00  0.00    +0.000 A 
ATOM      6  S   UNL     1       2.637   8.152  17.905  0.00  0.00    +0.000 S 
ATOM      7  H   UNL     1       5.032   8.134  16.519  0.00  0.00    +0.000 HD
ENDROOT
BRANCH   1  15
ATOM      8  C   UNL     1       7.596   6.293  18.073  0.00  0.00    +0.000 C 
ATOM      9  C   UNL     1       6.962   5.758  16.817  0.00  0.00    +0.000 A 
ATOM     10  C   UNL     1       7.633   4.745  16.105  0.00  0.00    +0.000 A 
ATOM     11  C   UNL     1       7.083   4.192  14.947  0.00  0.00    +0.000 A 
ATOM     12  C   UNL     1       5.859   4.655  14.485  0.00  0.00    +0.000 A 
ATOM     13 CL   UNL     1       5.167   3.989  13.058  0.00  0.00    +0.000 Cl
ATOM     14  C   UNL     1       5.189   5.664  15.170  0.00  0.00    +0.000 A 
ATOM     15  C   UNL     1       5.721   6.234  16.344  0.00  0.00    +0.000 A 
ENDBRANCH   1  15
BRANCH   4  16
ATOM     16  C   UNL     1       2.060   4.756  19.874  0.00  0.00    +0.000 A 
ATOM     17  C   UNL     1       2.542   4.543  21.171  0.00  0.00    +0.000 A 
ATOM     18  C   UNL     1       2.129   3.429  21.898  0.00  0.00    +0.000 A 
ATOM     19  C   UNL     1       1.235   2.556  21.305  0.00  0.00    +0.000 A 
ATOM     20  N   UNL     1       0.738   2.723  20.061  0.00  0.00    +0.000 NA
ATOM     21  C   UNL     1       1.158   3.819  19.379  0.00  0.00    +0.000 A 
ENDBRANCH   4  16
TORSDOF 2
ENDMDL
MODEL 7
REMARK VINA RESULT:      -6.4      4.049      6.290
REMARK  Name = 
REMARK  3 active torsions:
REMARK  status: ('A' for Active; 'I' for Inactive)
REMARK    1  A    between atoms: C_1  and  C_2
REMARK    2  A    between atoms: C_8  and  N_9
REMARK    3  A    between atoms: C_12  and  C_13
REMARK                            x       y       z     vdW  Elec       q    Type
REMARK                         _______ _______ _______ _____ _____    ______ ____
ROOT
ATOM      1  N   UNL     1       1.932   6.836  21.028  0.00  0.00    +0.000 N 
ATOM      2  C   UNL     1       1.276   8.024  20.999  0.00  0.00    +0.000 A 
ATOM      3  N   UNL     1       0.424   8.391  20.067  0.00  0.00    +0.000 NA
ATOM      4  C   UNL     1       0.016   9.700  20.235  0.00  0.00    +0.000 A 
ATOM      5  C   UNL     1       0.546  10.320  21.347  0.00  0.00    +0.000 A 
ATOM      6  S   UNL     1       1.543   9.218  22.213  0.00  0.00    +0.000 S 
ATOM      7  H   UNL     1       2.575   6.685  21.799  0.00  0.00    +0.000 HD
ENDROOT
BRANCH   1  15
ATOM      8  C   UNL     1       0.961   4.109  20.505  0.00  0.00    +0.000 C 
ATOM      9  C   UNL     1       1.903   4.838  19.585  0.00  0.00    +0.000 A 
ATOM     10  C   UNL     1       2.340   4.185  18.417  0.00  0.00    +0.000 A 
ATOM     11  C   UNL     1       3.194   4.818  17.512  0.00  0.00    +0.000 A 
ATOM     12  C   UNL     1       3.627   6.111  17.774  0.00  0.00    +0.000 A 
ATOM     13 CL   UNL     1       4.682   6.907  16.673  0.00  0.00    +0.000 Cl
ATOM     14  C   UNL     1       3.214   6.766  18.929  0.00  0.00    +0.000 A 
ATOM     15  C   UNL     1       2.349   6.149  19.855  0.00  0.00    +0.000 A 
ENDBRANCH   1  15
BRANCH   4  16
ATOM     16  C   UNL     1      -0.854  10.324  19.250  0.00  0.00    +0.000 A 
ATOM     17  C   UNL     1      -1.019   9.738  17.989  0.00  0.00    +0.000 A 
ATOM     18  C   UNL     1      -1.848  10.334  17.042  0.00  0.00    +0.000 A 
ATOM     19  C   UNL     1      -2.499  11.506  17.387  0.00  0.00    +0.000 A 
ATOM     20  N   UNL     1      -2.376  12.104  18.592  0.00  0.00    +0.000 NA
ATOM     21  C   UNL     1      -1.563  11.497  19.494  0.00  0.00    +0.000 A 
ENDBRANCH   4  16
TORSDOF 2
ENDMDL
MODEL 8
REMARK VINA RESULT:      -6.3      5.048      7.194
REMARK  Name = 
REMARK  3 active torsions:
REMARK  status: ('A' for Active; 'I' for Inactive)
REMARK    1  A    between atoms: C_1  and  C_2
REMARK    2  A    between atoms: C_8  and  N_9
REMARK    3  A    between atoms: C_12  and  C_13
REMARK                            x       y       z     vdW  Elec       q    Type
REMARK                         _______ _______ _______ _____ _____    ______ ____
ROOT
ATOM      1  N   UNL     1       1.512   8.859  20.774  0.00  0.00    +0.000 N 
ATOM      2  C   UNL     1       0.723   9.833  20.251  0.00  0.00    +0.000 A 
ATOM      3  N   UNL     1      -0.336   9.622  19.501  0.00  0.00    +0.000 NA
ATOM      4  C   UNL     1      -0.859  10.803  19.012  0.00  0.00    +0.000 A 
ATOM      5  C   UNL     1      -0.197  11.936  19.439  0.00  0.00    +0.000 A 
ATOM      6  S   UNL     1       1.080  11.500  20.506  0.00  0.00    +0.000 S 
ATOM      7  H   UNL     1       2.311   9.161  21.324  0.00  0.00    +0.000 HD
ENDROOT
BRANCH   1  15
ATOM      8  C   UNL     1       2.610   8.863  18.045  0.00  0.00    +0.000 C 
ATOM      9  C   UNL     1       2.286   7.602  18.801  0.00  0.00    +0.000 A 
ATOM     10  C   UNL     1       2.522   6.364  18.173  0.00  0.00    +0.000 A 
ATOM     11  C   UNL     1       2.265   5.160  18.832  0.00  0.00    +0.000 A 
ATOM     12  C   UNL     1       1.761   5.185  20.125  0.00  0.00    +0.000 A 
ATOM     13 CL   UNL     1       1.434   3.712  20.952  0.00  0.00    +0.000 Cl
ATOM     14  C   UNL     1       1.512   6.399  20.755  0.00  0.00    +0.000 A 
ATOM     15  C   UNL     1       1.767   7.627  20.113  0.00  0.00    +0.000 A 
ENDBRANCH   1  15
BRANCH   4  16
ATOM     16  C   UNL     1      -1.978  10.776  18.083  0.00  0.00    +0.000 A 
ATOM     17  C   UNL     1      -1.932   9.945  16.957  0.00  0.00    +0.000 A 
ATOM     18  C   UNL     1      -3.000   9.918  16.063  0.00  0.00    +0.000 A 
ATOM     19  C   UNL     1      -4.094  10.724  16.325  0.00  0.00    +0.000 A 
ATOM     20  N   UNL     1      -4.185  11.535  17.400  0.00  0.00    +0.000 NA
ATOM     21  C   UNL     1      -3.130  11.538  18.254  0.00  0.00    +0.000 A 
ENDBRANCH   4  16
TORSDOF 2
ENDMDL
MODEL 9
REMARK VINA RESULT:      -6.3      2.646      6.541
REMARK  Name = 
REMARK  3 active torsions:
REMARK  status: ('A' for Active; 'I' for Inactive)
REMARK    1  A    between atoms: C_1  and  C_2
REMARK    2  A    between atoms: C_8  and  N_9
REMARK    3  A    between atoms: C_12  and  C_13
REMARK                            x       y       z     vdW  Elec       q    Type
REMARK                         _______ _______ _______ _____ _____    ______ ____
ROOT
ATOM      1  N   UNL     1       4.593   5.864  18.996  0.00  0.00    +0.000 N 
ATOM      2  C   UNL     1       5.484   5.899  17.973  0.00  0.00    +0.000 A 
ATOM      3  N   UNL     1       5.280   5.383  16.780  0.00  0.00    +0.000 NA
ATOM      4  C   UNL     1       6.412   5.458  15.992  0.00  0.00    +0.000 A 
ATOM      5  C   UNL     1       7.484   6.083  16.596  0.00  0.00    +0.000 A 
ATOM      6  S   UNL     1       7.039   6.618  18.169  0.00  0.00    +0.000 S 
ATOM      7  H   UNL     1       4.883   6.288  19.873  0.00  0.00    +0.000 HD
ENDROOT
BRANCH   1  15
ATOM      8  C   UNL     1       1.957   6.368  20.200  0.00  0.00    +0.000 C 
ATOM      9  C   UNL     1       2.427   4.998  19.792  0.00  0.00    +0.000 A 
ATOM     10  C   UNL     1       1.563   3.904  19.993  0.00  0.00    +0.000 A 
ATOM     11  C   UNL     1       1.933   2.613  19.612  0.00  0.00    +0.000 A 
ATOM     12  C   UNL     1       3.177   2.403  19.032  0.00  0.00    +0.000 A 
ATOM     13 CL   UNL     1       3.652   0.819  18.559  0.00  0.00    +0.000 Cl
ATOM     14  C   UNL     1       4.046   3.471  18.836  0.00  0.00    +0.000 A 
ATOM     15  C   UNL     1       3.695   4.784  19.209  0.00  0.00    +0.000 A 
ENDBRANCH   1  15
BRANCH   4  16
ATOM     16  C   UNL     1       6.420   4.855  14.668  0.00  0.00    +0.000 A 
ATOM     17  C   UNL     1       5.364   4.027  14.270  0.00  0.00    +0.000 A 
ATOM     18  C   UNL     1       5.368   3.445  13.004  0.00  0.00    +0.000 A 
ATOM     19  C   UNL     1       6.434   3.715  12.164  0.00  0.00    +0.000 A 
ATOM     20  N   UNL     1       7.471   4.512  12.501  0.00  0.00    +0.000 NA
ATOM     21  C   UNL     1       7.436   5.065  13.740  0.00  0.00    +0.000 A 
ENDBRANCH   4  16
TORSDOF 2
ENDMDL
