MODEL 1
REMARK VINA RESULT:      -7.2      0.000      0.000
REMARK  Name = 
REMARK  11 active torsions:
REMARK  status: ('A' for Active; 'I' for Inactive)
REMARK    1  A    between atoms: C_1  and  C_2
REMARK    2  A    between atoms: C_5  and  C_6
REMARK    3  A    between atoms: C_7  and  C_8
REMARK    4  A    between atoms: C_8  and  C_9
REMARK    5  A    between atoms: C_9  and  C_10
REMARK    6  A    between atoms: N_12  and  C_13
REMARK    7  A    between atoms: N_12  and  C_20
REMARK    8  A    between atoms: C_13  and  C_14
REMARK    9  A    between atoms: N_17  and  C_18
REMARK   10  A    between atoms: C_20  and  C_21
REMARK   11  A    between atoms: C_20  and  C_22
REMARK                            x       y       z     vdW  Elec       q    Type
REMARK                         _______ _______ _______ _____ _____    ______ ____
ROOT
ATOM      1  C   UNL     1       4.309   4.271  18.806  0.00  0.00    +0.000 C 
ATOM      2  O   UNL     1       5.142   4.902  19.463  0.00  0.00    +0.000 OA
ATOM      3  N   UNL     1       2.945   4.253  19.159  0.00  0.00    +0.000 N 
ENDROOT
BRANCH   3   4
ATOM      4  C   UNL     1       1.926   3.447  18.433  0.00  0.00    +0.000 C 
ATOM      5  C   UNL     1       0.918   2.705  19.321  0.00  0.00    +0.000 C 
ATOM      6  C   UNL     1       1.179   4.268  17.379  0.00  0.00    +0.000 C 
ENDBRANCH   3   4
BRANCH   1   7
ATOM      7  C   UNL     1       4.763   3.473  17.572  0.00  0.00    +0.000 C 
BRANCH   7   8
ATOM      8  C   UNL     1       4.596   4.255  16.255  0.00  0.00    +0.000 C 
BRANCH   8  15
ATOM      9  C   UNL     1       6.020   3.666  13.342  0.00  0.00    +0.000 C 
ATOM     10  C   UNL     1       6.492   4.541  14.442  0.00  0.00    +0.000 A 
ATOM     11  N   UNL     1       7.625   5.229  14.279  0.00  0.00    +0.000 NA
ATOM     12  O   UNL     1       7.742   6.026  15.392  0.00  0.00    +0.000 OA
ATOM     13  C   UNL     1       6.688   5.810  16.223  0.00  0.00    +0.000 A 
ATOM     14  C   UNL     1       6.646   6.691  17.406  0.00  0.00    +0.000 C 
ATOM     15  C   UNL     1       5.875   4.820  15.702  0.00  0.00    +0.000 A 
ENDBRANCH   8  15
ENDBRANCH   7   8
ENDBRANCH   1   7
BRANCH   3  16
ATOM     16  C   UNL     1       2.564   4.968  20.400  0.00  0.00    +0.000 C 
BRANCH  16  17
ATOM     17  C   UNL     1       2.151   6.388  20.186  0.00  0.00    +0.000 A 
ATOM     18  C   UNL     1       2.430   7.188  19.045  0.00  0.00    +0.000 A 
ATOM     19  N   UNL     1       1.951   8.429  19.148  0.00  0.00    +0.000 NA
ATOM     20  N   UNL     1       1.346   8.435  20.348  0.00  0.00    +0.000 N 
ATOM     21  C   UNL     1       0.787   9.664  20.856  0.00  0.00    +0.000 C 
ATOM     22  C   UNL     1       1.384   7.223  20.976  0.00  0.00    +0.000 A 
ENDBRANCH  16  17
ENDBRANCH   3  16
TORSDOF 6
ENDMDL
MODEL 2
REMARK VINA RESULT:      -6.8      2.767      6.616
REMARK  Name = 
REMARK  11 active torsions:
REMARK  status: ('A' for Active; 'I' for Inactive)
REMARK    1  A    between atoms: C_1  and  C_2
REMARK    2  A    between atoms: C_5  and  C_6
REMARK    3  A    between atoms: C_7  and  C_8
REMARK    4  A    between atoms: C_8  and  C_9
REMARK    5  A    between atoms: C_9  and  C_10
REMARK    6  A    between atoms: N_12  and  C_13
REMARK    7  A    between atoms: N_12  and  C_20
REMARK    8  A    between atoms: C_13  and  C_14
REMARK    9  A    between atoms: N_17  and  C_18
REMARK   10  A    between atoms: C_20  and  C_21
REMARK   11  A    between atoms: C_20  and  C_22
REMARK                            x       y       z     vdW  Elec       q    Type
REMARK                         _______ _______ _______ _____ _____    ______ ____
ROOT
ATOM      1  C   UNL     1       5.423   4.676  18.853  0.00  0.00    +0.000 C 
ATOM      2  O   UNL     1       5.630   3.488  19.121  0.00  0.00    +0.000 OA
ATOM      3  N   UNL     1       6.094   5.327  17.801  0.00  0.00    +0.000 N 
ENDROOT
BRANCH   3   4
ATOM      4  C   UNL     1       5.922   6.774  17.496  0.00  0.00    +0.000 C 
ATOM      5  C   UNL     1       7.223   7.563  17.290  0.00  0.00    +0.000 C 
ATOM      6  C   UNL     1       4.982   7.010  16.311  0.00  0.00    +0.000 C 
ENDBRANCH   3   4
BRANCH   1   7
ATOM      7  C   UNL     1       4.411   5.476  19.692  0.00  0.00    +0.000 C 
BRANCH   7   8
ATOM      8  C   UNL     1       2.970   5.369  19.159  0.00  0.00    +0.000 C 
BRANCH   8  15
ATOM      9  C   UNL     1       2.636   3.220  16.683  0.00  0.00    +0.000 C 
ATOM     10  C   UNL     1       2.240   3.064  18.103  0.00  0.00    +0.000 A 
ATOM     11  N   UNL     1       1.695   1.911  18.498  0.00  0.00    +0.000 NA
ATOM     12  O   UNL     1       1.547   2.014  19.861  0.00  0.00    +0.000 OA
ATOM     13  C   UNL     1       1.993   3.228  20.279  0.00  0.00    +0.000 A 
ATOM     14  C   UNL     1       1.985   3.416  21.742  0.00  0.00    +0.000 C 
ATOM     15  C   UNL     1       2.397   3.980  19.191  0.00  0.00    +0.000 A 
ENDBRANCH   8  15
ENDBRANCH   7   8
ENDBRANCH   1   7
BRANCH   3  16
ATOM     16  C   UNL     1       7.118   4.543  17.071  0.00  0.00    +0.000 C 
BRANCH  16  17
ATOM     17  C   UNL     1       6.850   4.398  15.607  0.00  0.00    +0.000 A 
ATOM     18  C   UNL     1       7.551   5.039  14.551  0.00  0.00    +0.000 A 
ATOM     19  N   UNL     1       7.071   4.733  13.345  0.00  0.00    +0.000 NA
ATOM     20  N   UNL     1       6.068   3.880  13.612  0.00  0.00    +0.000 N 
ATOM     21  C   UNL     1       5.234   3.403  12.535  0.00  0.00    +0.000 C 
ATOM     22  C   UNL     1       5.939   3.600  14.942  0.00  0.00    +0.000 A 
ENDBRANCH  16  17
ENDBRANCH   3  16
TORSDOF 6
ENDMDL
MODEL 3
REMARK VINA RESULT:      -6.7      1.187      2.262
REMARK  Name = 
REMARK  11 active torsions:
REMARK  status: ('A' for Active; 'I' for Inactive)
REMARK    1  A    between atoms: C_1  and  C_2
REMARK    2  A    between atoms: C_5  and  C_6
REMARK    3  A    between atoms: C_7  and  C_8
REMARK    4  A    between atoms: C_8  and  C_9
REMARK    5  A    between atoms: C_9  and  C_10
REMARK    6  A    between atoms: N_12  and  C_13
REMARK    7  A    between atoms: N_12  and  C_20
REMARK    8  A    between atoms: C_13  and  C_14
REMARK    9  A    between atoms: N_17  and  C_18
REMARK   10  A    between atoms: C_20  and  C_21
REMARK   11  A    between atoms: C_20  and  C_22
REMARK                            x       y       z     vdW  Elec       q    Type
REMARK                         _______ _______ _______ _____ _____    ______ ____
ROOT
ATOM      1  C   UNL     1       4.047   4.692  19.296  0.00  0.00    +0.000 C 
ATOM      2  O   UNL     1       4.817   5.457  19.885  0.00  0.00    +0.000 OA
ATOM      3  N   UNL     1       2.667   4.670  19.572  0.00  0.00    +0.000 N 
ENDROOT
BRANCH   3   4
ATOM      4  C   UNL     1       1.723   3.712  18.933  0.00  0.00    +0.000 C 
ATOM      5  C   UNL     1       0.581   3.216  19.831  0.00  0.00    +0.000 C 
ATOM      6  C   UNL     1       1.149   4.251  17.620  0.00  0.00    +0.000 C 
ENDBRANCH   3   4
BRANCH   1   7
ATOM      7  C   UNL     1       4.604   3.726  18.235  0.00  0.00    +0.000 C 
BRANCH   7   8
ATOM      8  C   UNL     1       6.141   3.755  18.143  0.00  0.00    +0.000 C 
BRANCH   8  15
ATOM      9  C   UNL     1       7.908   6.463  18.782  0.00  0.00    +0.000 C 
ATOM     10  C   UNL     1       7.436   5.954  17.472  0.00  0.00    +0.000 A 
ATOM     11  N   UNL     1       7.762   6.625  16.364  0.00  0.00    +0.000 NA
ATOM     12  O   UNL     1       7.298   5.866  15.317  0.00  0.00    +0.000 OA
ATOM     13  C   UNL     1       6.688   4.749  15.796  0.00  0.00    +0.000 A 
ATOM     14  C   UNL     1       6.242   3.799  14.759  0.00  0.00    +0.000 C 
ATOM     15  C   UNL     1       6.687   4.772  17.179  0.00  0.00    +0.000 A 
ENDBRANCH   8  15
ENDBRANCH   7   8
ENDBRANCH   1   7
BRANCH   3  16
ATOM     16  C   UNL     1       2.185   5.558  20.656  0.00  0.00    +0.000 C 
BRANCH  16  17
ATOM     17  C   UNL     1       1.885   6.954  20.216  0.00  0.00    +0.000 A 
ATOM     18  C   UNL     1       1.257   7.969  20.987  0.00  0.00    +0.000 A 
ATOM     19  N   UNL     1       1.102   9.112  20.317  0.00  0.00    +0.000 NA
ATOM     20  N   UNL     1       1.642   8.851  19.116  0.00  0.00    +0.000 N 
ATOM     21  C   UNL     1       1.566   9.842  18.071  0.00  0.00    +0.000 C 
ATOM     22  C   UNL     1       2.179   7.598  19.028  0.00  0.00    +0.000 A 
ENDBRANCH  16  17
ENDBRANCH   3  16
TORSDOF 6
ENDMDL
MODEL 4
REMARK VINA RESULT:      -6.6      2.573      7.097
REMARK  Name = 
REMARK  11 active torsions:
REMARK  status: ('A' for Active; 'I' for Inactive)
REMARK    1  A    between atoms: C_1  and  C_2
REMARK    2  A    between atoms: C_5  and  C_6
REMARK    3  A    between atoms: C_7  and  C_8
REMARK    4  A    between atoms: C_8  and  C_9
REMARK    5  A    between atoms: C_9  and  C_10
REMARK    6  A    between atoms: N_12  and  C_13
REMARK    7  A    between atoms: N_12  and  C_20
REMARK    8  A    between atoms: C_13  and  C_14
REMARK    9  A    between atoms: N_17  and  C_18
REMARK   10  A    between atoms: C_20  and  C_21
REMARK   11  A    between atoms: C_20  and  C_22
REMARK                            x       y       z     vdW  Elec       q    Type
REMARK                         _______ _______ _______ _____ _____    ______ ____
ROOT
ATOM      1  C   UNL     1       2.053   6.158  19.475  0.00  0.00    +0.000 C 
ATOM      2  O   UNL     1       2.637   6.925  18.703  0.00  0.00    +0.000 OA
ATOM      3  N   UNL     1       2.007   4.769  19.247  0.00  0.00    +0.000 N 
ENDROOT
BRANCH   3   4
ATOM      4  C   UNL     1       1.253   3.825  20.117  0.00  0.00    +0.000 C 
ATOM      5  C   UNL     1       0.549   2.675  19.384  0.00  0.00    +0.000 C 
ATOM      6  C   UNL     1       2.117   3.263  21.249  0.00  0.00    +0.000 C 
ENDBRANCH   3   4
BRANCH   1   7
ATOM      7  C   UNL     1       1.347   6.727  20.718  0.00  0.00    +0.000 C 
BRANCH   7   8
ATOM      8  C   UNL     1       1.775   8.170  21.046  0.00  0.00    +0.000 C 
BRANCH   8  15
ATOM      9  C   UNL     1      -0.177   9.676  23.233  0.00  0.00    +0.000 C 
ATOM     10  C   UNL     1      -0.143   9.836  21.759  0.00  0.00    +0.000 A 
ATOM     11  N   UNL     1      -0.972  10.712  21.185  0.00  0.00    +0.000 NA
ATOM     12  O   UNL     1      -0.635  10.729  19.853  0.00  0.00    +0.000 OA
ATOM     13  C   UNL     1       0.385   9.859  19.628  0.00  0.00    +0.000 A 
ATOM     14  C   UNL     1       0.908   9.868  18.248  0.00  0.00    +0.000 C 
ATOM     15  C   UNL     1       0.711   9.203  20.801  0.00  0.00    +0.000 A 
ENDBRANCH   8  15
ENDBRANCH   7   8
ENDBRANCH   1   7
BRANCH   3  16
ATOM     16  C   UNL     1       2.631   4.273  17.997  0.00  0.00    +0.000 C 
BRANCH  16  17
ATOM     17  C   UNL     1       4.125   4.289  18.010  0.00  0.00    +0.000 A 
ATOM     18  C   UNL     1       4.964   4.039  19.129  0.00  0.00    +0.000 A 
ATOM     19  N   UNL     1       6.263   4.145  18.840  0.00  0.00    +0.000 NA
ATOM     20  N   UNL     1       6.272   4.448  17.532  0.00  0.00    +0.000 N 
ATOM     21  C   UNL     1       7.525   4.742  16.879  0.00  0.00    +0.000 C 
ATOM     22  C   UNL     1       5.024   4.482  16.978  0.00  0.00    +0.000 A 
ENDBRANCH  16  17
ENDBRANCH   3  16
TORSDOF 6
ENDMDL
MODEL 5
REMARK VINA RESULT:      -6.6      0.734      1.284
REMARK  Name = 
REMARK  11 active torsions:
REMARK  status: ('A' for Active; 'I' for Inactive)
REMARK    1  A    between atoms: C_1  and  C_2
REMARK    2  A    between atoms: C_5  and  C_6
REMARK    3  A    between atoms: C_7  and  C_8
REMARK    4  A    between atoms: C_8  and  C_9
REMARK    5  A    between atoms: C_9  and  C_10
REMARK    6  A    between atoms: N_12  and  C_13
REMARK    7  A    between atoms: N_12  and  C_20
REMARK    8  A    between atoms: C_13  and  C_14
REMARK    9  A    between atoms: N_17  and  C_18
REMARK   10  A    between atoms: C_20  and  C_21
REMARK   11  A    between atoms: C_20  and  C_22
REMARK                            x       y       z     vdW  Elec       q    Type
REMARK                         _______ _______ _______ _____ _____    ______ ____
ROOT
ATOM      1  C   UNL     1       4.131   4.679  18.998  0.00  0.00    +0.000 C 
ATOM      2  O   UNL     1       4.944   5.404  19.579  0.00  0.00    +0.000 OA
ATOM      3  N   UNL     1       2.774   4.637  19.371  0.00  0.00    +0.000 N 
ENDROOT
BRANCH   3   4
ATOM      4  C   UNL     1       1.783   3.723  18.740  0.00  0.00    +0.000 C 
ATOM      5  C   UNL     1       1.245   4.175  17.376  0.00  0.00    +0.000 C 
ATOM      6  C   UNL     1       2.301   2.285  18.640  0.00  0.00    +0.000 C 
ENDBRANCH   3   4
BRANCH   1   7
ATOM      7  C   UNL     1       4.606   3.786  17.838  0.00  0.00    +0.000 C 
BRANCH   7   8
ATOM      8  C   UNL     1       4.477   4.467  16.462  0.00  0.00    +0.000 C 
BRANCH   8  15
ATOM      9  C   UNL     1       5.774   3.695  13.533  0.00  0.00    +0.000 C 
ATOM     10  C   UNL     1       6.342   4.555  14.599  0.00  0.00    +0.000 A 
ATOM     11  N   UNL     1       7.523   5.144  14.391  0.00  0.00    +0.000 NA
ATOM     12  O   UNL     1       7.732   5.956  15.480  0.00  0.00    +0.000 OA
ATOM     13  C   UNL     1       6.686   5.846  16.341  0.00  0.00    +0.000 A 
ATOM     14  C   UNL     1       6.744   6.756  17.502  0.00  0.00    +0.000 C 
ATOM     15  C   UNL     1       5.782   4.913  15.865  0.00  0.00    +0.000 A 
ENDBRANCH   8  15
ENDBRANCH   7   8
ENDBRANCH   1   7
BRANCH   3  16
ATOM     16  C   UNL     1       2.375   5.451  20.543  0.00  0.00    +0.000 C 
BRANCH  16  17
ATOM     17  C   UNL     1       1.980   6.853  20.209  0.00  0.00    +0.000 A 
ATOM     18  C   UNL     1       1.326   7.776  21.069  0.00  0.00    +0.000 A 
ATOM     19  N   UNL     1       1.081   8.950  20.484  0.00  0.00    +0.000 NA
ATOM     20  N   UNL     1       1.589   8.800  19.250  0.00  0.00    +0.000 N 
ATOM     21  C   UNL     1       1.416   9.852  18.278  0.00  0.00    +0.000 C 
ATOM     22  C   UNL     1       2.191   7.590  19.059  0.00  0.00    +0.000 A 
ENDBRANCH  16  17
ENDBRANCH   3  16
TORSDOF 6
ENDMDL
MODEL 6
REMARK VINA RESULT:      -6.6      1.165      1.261
REMARK  Name = 
REMARK  11 active torsions:
REMARK  status: ('A' for Active; 'I' for Inactive)
REMARK    1  A    between atoms: C_1  and  C_2
REMARK    2  A    between atoms: C_5  and  C_6
REMARK    3  A    between atoms: C_7  and  C_8
REMARK    4  A    between atoms: C_8  and  C_9
REMARK    5  A    between atoms: C_9  and  C_10
REMARK    6  A    between atoms: N_12  and  C_13
REMARK    7  A    between atoms: N_12  and  C_20
REMARK    8  A    between atoms: C_13  and  C_14
REMARK    9  A    between atoms: N_17  and  C_18
REMARK   10  A    between atoms: C_20  and  C_21
REMARK   11  A    between atoms: C_20  and  C_22
REMARK                            x       y       z     vdW  Elec       q    Type
REMARK                         _______ _______ _______ _____ _____    ______ ____
ROOT
ATOM      1  C   UNL     1       4.314   4.846  19.117  0.00  0.00    +0.000 C 
ATOM      2  O   UNL     1       5.124   5.698  19.492  0.00  0.00    +0.000 OA
ATOM      3  N   UNL     1       2.936   4.965  19.381  0.00  0.00    +0.000 N 
ENDROOT
BRANCH   3   4
ATOM      4  C   UNL     1       1.941   3.923  19.005  0.00  0.00    +0.000 C 
ATOM      5  C   UNL     1       0.869   3.625  20.063  0.00  0.00    +0.000 C 
ATOM      6  C   UNL     1       1.271   4.218  17.661  0.00  0.00    +0.000 C 
ENDBRANCH   3   4
BRANCH   1   7
ATOM      7  C   UNL     1       4.814   3.612  18.345  0.00  0.00    +0.000 C 
BRANCH   7   8
ATOM      8  C   UNL     1       4.661   3.754  16.819  0.00  0.00    +0.000 C 
BRANCH   8  15
ATOM      9  C   UNL     1       5.176   4.070  13.579  0.00  0.00    +0.000 C 
ATOM     10  C   UNL     1       6.139   4.252  14.691  0.00  0.00    +0.000 A 
ATOM     11  N   UNL     1       7.392   4.620  14.406  0.00  0.00    +0.000 NA
ATOM     12  O   UNL     1       8.006   4.824  15.618  0.00  0.00    +0.000 OA
ATOM     13  C   UNL     1       7.129   4.570  16.625  0.00  0.00    +0.000 A 
ATOM     14  C   UNL     1       7.643   4.859  17.977  0.00  0.00    +0.000 C 
ATOM     15  C   UNL     1       5.925   4.138  16.101  0.00  0.00    +0.000 A 
ENDBRANCH   8  15
ENDBRANCH   7   8
ENDBRANCH   1   7
BRANCH   3  16
ATOM     16  C   UNL     1       2.507   6.126  20.196  0.00  0.00    +0.000 C 
BRANCH  16  17
ATOM     17  C   UNL     1       2.211   7.356  19.400  0.00  0.00    +0.000 A 
ATOM     18  C   UNL     1       2.554   7.589  18.042  0.00  0.00    +0.000 A 
ATOM     19  N   UNL     1       2.176   8.792  17.607  0.00  0.00    +0.000 NA
ATOM     20  N   UNL     1       1.572   9.339  18.675  0.00  0.00    +0.000 N 
ATOM     21  C   UNL     1       1.114  10.705  18.611  0.00  0.00    +0.000 C 
ATOM     22  C   UNL     1       1.512   8.497  19.749  0.00  0.00    +0.000 A 
ENDBRANCH  16  17
ENDBRANCH   3  16
TORSDOF 6
ENDMDL
MODEL 7
REMARK VINA RESULT:      -6.5      2.964      5.424
REMARK  Name = 
REMARK  11 active torsions:
REMARK  status: ('A' for Active; 'I' for Inactive)
REMARK    1  A    between atoms: C_1  and  C_2
REMARK    2  A    between atoms: C_5  and  C_6
REMARK    3  A    between atoms: C_7  and  C_8
REMARK    4  A    between atoms: C_8  and  C_9
REMARK    5  A    between atoms: C_9  and  C_10
REMARK    6  A    between atoms: N_12  and  C_13
REMARK    7  A    between atoms: N_12  and  C_20
REMARK    8  A    between atoms: C_13  and  C_14
REMARK    9  A    between atoms: N_17  and  C_18
REMARK   10  A    between atoms: C_20  and  C_21
REMARK   11  A    between atoms: C_20  and  C_22
REMARK                            x       y       z     vdW  Elec       q    Type
REMARK                         _______ _______ _______ _____ _____    ______ ____
ROOT
ATOM      1  C   UNL     1       1.907   8.579  18.517  0.00  0.00    +0.000 C 
ATOM      2  O   UNL     1       2.102   8.841  17.326  0.00  0.00    +0.000 OA
ATOM      3  N   UNL     1       1.150   9.426  19.349  0.00  0.00    +0.000 N 
ENDROOT
BRANCH   3   4
ATOM      4  C   UNL     1       0.956   9.178  20.804  0.00  0.00    +0.000 C 
ATOM      5  C   UNL     1       0.905  10.434  21.685  0.00  0.00    +0.000 C 
ATOM      6  C   UNL     1      -0.266   8.300  21.085  0.00  0.00    +0.000 C 
ENDBRANCH   3   4
BRANCH   1   7
ATOM      7  C   UNL     1       2.511   7.298  19.119  0.00  0.00    +0.000 C 
BRANCH   7   8
ATOM      8  C   UNL     1       3.284   6.454  18.088  0.00  0.00    +0.000 C 
BRANCH   8  15
ATOM      9  C   UNL     1       1.695   3.568  18.154  0.00  0.00    +0.000 C 
ATOM     10  C   UNL     1       3.057   3.886  18.646  0.00  0.00    +0.000 A 
ATOM     11  N   UNL     1       3.798   2.907  19.173  0.00  0.00    +0.000 NA
ATOM     12  O   UNL     1       5.029   3.463  19.424  0.00  0.00    +0.000 OA
ATOM     13  C   UNL     1       5.023   4.772  19.059  0.00  0.00    +0.000 A 
ATOM     14  C   UNL     1       6.327   5.452  19.181  0.00  0.00    +0.000 C 
ATOM     15  C   UNL     1       3.765   5.128  18.606  0.00  0.00    +0.000 A 
ENDBRANCH   8  15
ENDBRANCH   7   8
ENDBRANCH   1   7
BRANCH   3  16
ATOM     16  C   UNL     1       0.655  10.688  18.750  0.00  0.00    +0.000 C 
BRANCH  16  17
ATOM     17  C   UNL     1      -0.800  10.675  18.410  0.00  0.00    +0.000 A 
ATOM     18  C   UNL     1      -1.434   9.864  17.431  0.00  0.00    +0.000 A 
ATOM     19  N   UNL     1      -2.745  10.089  17.337  0.00  0.00    +0.000 NA
ATOM     20  N   UNL     1      -2.971  11.033  18.265  0.00  0.00    +0.000 N 
ATOM     21  C   UNL     1      -4.288  11.610  18.387  0.00  0.00    +0.000 C 
ATOM     22  C   UNL     1      -1.854  11.369  18.974  0.00  0.00    +0.000 A 
ENDBRANCH  16  17
ENDBRANCH   3  16
TORSDOF 6
ENDMDL
MODEL 8
REMARK VINA RESULT:      -6.4      2.897      5.461
REMARK  Name = 
REMARK  11 active torsions:
REMARK  status: ('A' for Active; 'I' for Inactive)
REMARK    1  A    between atoms: C_1  and  C_2
REMARK    2  A    between atoms: C_5  and  C_6
REMARK    3  A    between atoms: C_7  and  C_8
REMARK    4  A    between atoms: C_8  and  C_9
REMARK    5  A    between atoms: C_9  and  C_10
REMARK    6  A    between atoms: N_12  and  C_13
REMARK    7  A    between atoms: N_12  and  C_20
REMARK    8  A    between atoms: C_13  and  C_14
REMARK    9  A    between atoms: N_17  and  C_18
REMARK   10  A    between atoms: C_20  and  C_21
REMARK   11  A    between atoms: C_20  and  C_22
REMARK                            x       y       z     vdW  Elec       q    Type
REMARK                         _______ _______ _______ _____ _____    ______ ____
ROOT
ATOM      1  C   UNL     1       2.018   8.450  18.622  0.00  0.00    +0.000 C 
ATOM      2  O   UNL     1       2.242   8.973  17.526  0.00  0.00    +0.000 OA
ATOM      3  N   UNL     1       1.265   9.104  19.616  0.00  0.00    +0.000 N 
ENDROOT
BRANCH   3   4
ATOM      4  C   UNL     1       1.036   8.534  20.972  0.00  0.00    +0.000 C 
ATOM      5  C   UNL     1       1.497   9.414  22.143  0.00  0.00    +0.000 C 
ATOM      6  C   UNL     1      -0.420   8.112  21.187  0.00  0.00    +0.000 C 
ENDBRANCH   3   4
BRANCH   1   7
ATOM      7  C   UNL     1       2.579   7.049  18.922  0.00  0.00    +0.000 C 
BRANCH   7   8
ATOM      8  C   UNL     1       2.058   5.972  17.951  0.00  0.00    +0.000 C 
BRANCH   8  15
ATOM      9  C   UNL     1       4.507   4.138  16.728  0.00  0.00    +0.000 C 
ATOM     10  C   UNL     1       3.506   3.775  17.760  0.00  0.00    +0.000 A 
ATOM     11  N   UNL     1       3.571   2.567  18.326  0.00  0.00    +0.000 NA
ATOM     12  O   UNL     1       2.611   2.562  19.309  0.00  0.00    +0.000 OA
ATOM     13  C   UNL     1       1.967   3.759  19.326  0.00  0.00    +0.000 A 
ATOM     14  C   UNL     1       0.983   3.914  20.414  0.00  0.00    +0.000 C 
ATOM     15  C   UNL     1       2.451   4.568  18.313  0.00  0.00    +0.000 A 
ENDBRANCH   8  15
ENDBRANCH   7   8
ENDBRANCH   1   7
BRANCH   3  16
ATOM     16  C   UNL     1       0.812  10.483  19.317  0.00  0.00    +0.000 C 
BRANCH  16  17
ATOM     17  C   UNL     1      -0.585  10.568  18.792  0.00  0.00    +0.000 A 
ATOM     18  C   UNL     1      -1.110   9.880  17.666  0.00  0.00    +0.000 A 
ATOM     19  N   UNL     1      -2.389  10.173  17.424  0.00  0.00    +0.000 NA
ATOM     20  N   UNL     1      -2.704  11.039  18.401  0.00  0.00    +0.000 N 
ATOM     21  C   UNL     1      -4.005  11.663  18.405  0.00  0.00    +0.000 C 
ATOM     22  C   UNL     1      -1.680  11.258  19.278  0.00  0.00    +0.000 A 
ENDBRANCH  16  17
ENDBRANCH   3  16
TORSDOF 6
ENDMDL
MODEL 9
REMARK VINA RESULT:      -6.4      2.903      6.699
REMARK  Name = 
REMARK  11 active torsions:
REMARK  status: ('A' for Active; 'I' for Inactive)
REMARK    1  A    between atoms: C_1  and  C_2
REMARK    2  A    between atoms: C_5  and  C_6
REMARK    3  A    between atoms: C_7  and  C_8
REMARK    4  A    between atoms: C_8  and  C_9
REMARK    5  A    between atoms: C_9  and  C_10
REMARK    6  A    between atoms: N_12  and  C_13
REMARK    7  A    between atoms: N_12  and  C_20
REMARK    8  A    between atoms: C_13  and  C_14
REMARK    9  A    between atoms: N_17  and  C_18
REMARK   10  A    between atoms: C_20  and  C_21
REMARK   11  A    between atoms: C_20  and  C_22
REMARK                            x       y       z     vdW  Elec       q    Type
REMARK                         _______ _______ _______ _____ _____    ______ ____
ROOT
ATOM      1  C   UNL     1       4.367   5.699  18.191  0.00  0.00    +0.000 C 
ATOM      2  O   UNL     1       3.289   5.811  17.601  0.00  0.00    +0.000 OA
ATOM      3  N   UNL     1       5.580   6.114  17.608  0.00  0.00    +0.000 N 
ENDROOT
BRANCH   3   4
ATOM      4  C   UNL     1       6.904   5.929  18.261  0.00  0.00    +0.000 C 
ATOM      5  C   UNL     1       7.632   4.622  17.916  0.00  0.00    +0.000 C 
ATOM      6  C   UNL     1       7.840   7.117  18.024  0.00  0.00    +0.000 C 
ENDBRANCH   3   4
BRANCH   1   7
ATOM      7  C   UNL     1       4.399   5.083  19.601  0.00  0.00    +0.000 C 
BRANCH   7   8
ATOM      8  C   UNL     1       4.228   3.552  19.593  0.00  0.00    +0.000 C 
BRANCH   8  15
ATOM      9  C   UNL     1       2.733   2.489  16.856  0.00  0.00    +0.000 C 
ATOM     10  C   UNL     1       2.167   2.645  18.217  0.00  0.00    +0.000 A 
ATOM     11  N   UNL     1       0.895   2.301  18.431  0.00  0.00    +0.000 NA
ATOM     12  O   UNL     1       0.692   2.439  19.783  0.00  0.00    +0.000 OA
ATOM     13  C   UNL     1       1.835   2.874  20.376  0.00  0.00    +0.000 A 
ATOM     14  C   UNL     1       1.773   2.957  21.848  0.00  0.00    +0.000 C 
ATOM     15  C   UNL     1       2.809   3.087  19.417  0.00  0.00    +0.000 A 
ENDBRANCH   8  15
ENDBRANCH   7   8
ENDBRANCH   1   7
BRANCH   3  16
ATOM     16  C   UNL     1       5.515   6.626  16.219  0.00  0.00    +0.000 C 
BRANCH  16  17
ATOM     17  C   UNL     1       5.850   5.610  15.175  0.00  0.00    +0.000 A 
ATOM     18  C   UNL     1       7.138   5.335  14.643  0.00  0.00    +0.000 A 
ATOM     19  N   UNL     1       7.124   4.386  13.705  0.00  0.00    +0.000 NA
ATOM     20  N   UNL     1       5.830   4.030  13.636  0.00  0.00    +0.000 N 
ATOM     21  C   UNL     1       5.408   3.077  12.638  0.00  0.00    +0.000 C 
ATOM     22  C   UNL     1       5.042   4.687  14.537  0.00  0.00    +0.000 A 
ENDBRANCH  16  17
ENDBRANCH   3  16
TORSDOF 6
ENDMDL
