MODEL 1
REMARK VINA RESULT:      -7.7      0.000      0.000
REMARK  Name = 
REMARK  8 active torsions:
REMARK  status: ('A' for Active; 'I' for Inactive)
REMARK    1  A    between atoms: C_1  and  O_2
REMARK    2  A    between atoms: O_2  and  C_3
REMARK    3  A    between atoms: C_6  and  C_7
REMARK    4  A    between atoms: C_7  and  C_8
REMARK    5  A    between atoms: C_8  and  C_11
REMARK    6  A    between atoms: N_9  and  O_10
REMARK    7  A    between atoms: C_16  and  O_17
REMARK    8  A    between atoms: O_17  and  C_18
REMARK                            x       y       z     vdW  Elec       q    Type
REMARK                         _______ _______ _______ _____ _____    ______ ____
ROOT
ATOM      1  C   UNL     1       3.420   3.187  18.271  0.00  0.00    +0.000 C 
ATOM      2  N   UNL     1       3.495   1.900  18.478  0.00  0.00    +0.000 NA
ENDROOT
BRANCH   1   3
ATOM      3  C   UNL     1       4.642   3.964  18.172  0.00  0.00    +0.000 A 
ATOM      4  N   UNL     1       5.600   3.968  19.084  0.00  0.00    +0.000 NA
ATOM      5  C   UNL     1       6.383   5.030  18.733  0.00  0.00    +0.000 A 
ATOM      6  C   UNL     1       7.458   5.609  19.400  0.00  0.00    +0.000 A 
ATOM      7  C   UNL     1       8.031   6.752  18.834  0.00  0.00    +0.000 A 
ATOM      8  C   UNL     1       7.581   7.283  17.614  0.00  0.00    +0.000 A 
ATOM      9  C   UNL     1       6.513   6.695  16.920  0.00  0.00    +0.000 A 
ATOM     10  C   UNL     1       5.937   5.585  17.540  0.00  0.00    +0.000 A 
ATOM     11  O   UNL     1       4.829   4.875  17.152  0.00  0.00    +0.000 OA
BRANCH   8  12
ATOM     12  O   UNL     1       8.289   8.392  17.236  0.00  0.00    +0.000 OA
ATOM     13  C   UNL     1       8.416   9.463  18.157  0.00  0.00    +0.000 C 
ENDBRANCH   8  12
ENDBRANCH   1   3
BRANCH   2  14
ATOM     14  O   UNL     1       2.234   1.290  18.483  0.00  0.00    +0.000 OA
ATOM     15  H   UNL     1       2.424   0.418  18.879  0.00  0.00    +0.000 HD
ENDBRANCH   2  14
BRANCH   1  16
ATOM     16  C   UNL     1       2.113   3.954  18.047  0.00  0.00    +0.000 C 
BRANCH  16  20
ATOM     17  C   UNL     1       1.795   7.656  20.286  0.00  0.00    +0.000 A 
ATOM     18  C   UNL     1       1.541   6.427  20.899  0.00  0.00    +0.000 A 
ATOM     19  C   UNL     1       1.673   5.231  20.189  0.00  0.00    +0.000 A 
ATOM     20  C   UNL     1       2.058   5.244  18.844  0.00  0.00    +0.000 A 
ATOM     21  C   UNL     1       2.337   6.479  18.241  0.00  0.00    +0.000 A 
ATOM     22  C   UNL     1       2.201   7.677  18.954  0.00  0.00    +0.000 A 
BRANCH  17  24
ATOM     23  C   UNL     1       0.682   9.732  20.605  0.00  0.00    +0.000 C 
ATOM     24  O   UNL     1       1.590   8.748  21.083  0.00  0.00    +0.000 OA
ENDBRANCH  17  24
ENDBRANCH  16  20
ENDBRANCH   1  16
TORSDOF 6
ENDMDL
MODEL 2
REMARK VINA RESULT:      -7.7      0.386      1.073
REMARK  Name = 
REMARK  8 active torsions:
REMARK  status: ('A' for Active; 'I' for Inactive)
REMARK    1  A    between atoms: C_1  and  O_2
REMARK    2  A    between atoms: O_2  and  C_3
REMARK    3  A    between atoms: C_6  and  C_7
REMARK    4  A    between atoms: C_7  and  C_8
REMARK    5  A    between atoms: C_8  and  C_11
REMARK    6  A    between atoms: N_9  and  O_10
REMARK    7  A    between atoms: C_16  and  O_17
REMARK    8  A    between atoms: O_17  and  C_18
REMARK                            x       y       z     vdW  Elec       q    Type
REMARK                         _______ _______ _______ _____ _____    ______ ____
ROOT
ATOM      1  C   UNL     1       3.567   3.177  18.202  0.00  0.00    +0.000 C 
ATOM      2  N   UNL     1       3.667   1.910  18.501  0.00  0.00    +0.000 NA
ENDROOT
BRANCH   1   3
ATOM      3  C   UNL     1       4.771   3.984  18.112  0.00  0.00    +0.000 A 
ATOM      4  N   UNL     1       5.720   4.013  19.032  0.00  0.00    +0.000 NA
ATOM      5  C   UNL     1       6.479   5.094  18.685  0.00  0.00    +0.000 A 
ATOM      6  C   UNL     1       7.534   5.701  19.361  0.00  0.00    +0.000 A 
ATOM      7  C   UNL     1       8.082   6.856  18.798  0.00  0.00    +0.000 A 
ATOM      8  C   UNL     1       7.630   7.375  17.573  0.00  0.00    +0.000 A 
ATOM      9  C   UNL     1       6.583   6.759  16.871  0.00  0.00    +0.000 A 
ATOM     10  C   UNL     1       6.030   5.636  17.488  0.00  0.00    +0.000 A 
ATOM     11  O   UNL     1       4.943   4.898  17.091  0.00  0.00    +0.000 OA
BRANCH   8  12
ATOM     12  O   UNL     1       8.313   8.500  17.200  0.00  0.00    +0.000 OA
ATOM     13  C   UNL     1       8.423   9.568  18.127  0.00  0.00    +0.000 C 
ENDBRANCH   8  12
ENDBRANCH   1   3
BRANCH   2  14
ATOM     14  O   UNL     1       2.426   1.261  18.484  0.00  0.00    +0.000 OA
ATOM     15  H   UNL     1       2.274   1.122  17.530  0.00  0.00    +0.000 HD
ENDBRANCH   2  14
BRANCH   1  16
ATOM     16  C   UNL     1       2.253   3.885  17.857  0.00  0.00    +0.000 C 
BRANCH  16  20
ATOM     17  C   UNL     1       1.843   7.514  20.199  0.00  0.00    +0.000 A 
ATOM     18  C   UNL     1       2.121   7.574  18.831  0.00  0.00    +0.000 A 
ATOM     19  C   UNL     1       2.222   6.408  18.068  0.00  0.00    +0.000 A 
ATOM     20  C   UNL     1       2.053   5.154  18.664  0.00  0.00    +0.000 A 
ATOM     21  C   UNL     1       1.749   5.100  20.031  0.00  0.00    +0.000 A 
ATOM     22  C   UNL     1       1.650   6.270  20.796  0.00  0.00    +0.000 A 
BRANCH  17  24
ATOM     23  C   UNL     1       0.965   8.834  21.970  0.00  0.00    +0.000 C 
ATOM     24  O   UNL     1       1.810   8.725  20.831  0.00  0.00    +0.000 OA
ENDBRANCH  17  24
ENDBRANCH  16  20
ENDBRANCH   1  16
TORSDOF 6
ENDMDL
MODEL 3
REMARK VINA RESULT:      -7.5      2.158      5.866
REMARK  Name = 
REMARK  8 active torsions:
REMARK  status: ('A' for Active; 'I' for Inactive)
REMARK    1  A    between atoms: C_1  and  O_2
REMARK    2  A    between atoms: O_2  and  C_3
REMARK    3  A    between atoms: C_6  and  C_7
REMARK    4  A    between atoms: C_7  and  C_8
REMARK    5  A    between atoms: C_8  and  C_11
REMARK    6  A    between atoms: N_9  and  O_10
REMARK    7  A    between atoms: C_16  and  O_17
REMARK    8  A    between atoms: O_17  and  C_18
REMARK                            x       y       z     vdW  Elec       q    Type
REMARK                         _______ _______ _______ _____ _____    ______ ____
ROOT
ATOM      1  C   UNL     1       2.710   4.050  18.720  0.00  0.00    +0.000 C 
ATOM      2  N   UNL     1       1.677   3.347  18.342  0.00  0.00    +0.000 NA
ENDROOT
BRANCH   1   3
ATOM      3  C   UNL     1       2.523   5.435  19.115  0.00  0.00    +0.000 A 
ATOM      4  N   UNL     1       2.146   5.822  20.322  0.00  0.00    +0.000 NA
ATOM      5  C   UNL     1       1.819   7.137  20.157  0.00  0.00    +0.000 A 
ATOM      6  C   UNL     1       1.226   8.030  21.044  0.00  0.00    +0.000 A 
ATOM      7  C   UNL     1       0.934   9.313  20.572  0.00  0.00    +0.000 A 
ATOM      8  C   UNL     1       1.260   9.718  19.267  0.00  0.00    +0.000 A 
ATOM      9  C   UNL     1       1.877   8.834  18.369  0.00  0.00    +0.000 A 
ATOM     10  C   UNL     1       2.111   7.549  18.863  0.00  0.00    +0.000 A 
ATOM     11  O   UNL     1       2.602   6.458  18.191  0.00  0.00    +0.000 OA
BRANCH   8  12
ATOM     12  O   UNL     1       0.898  11.014  19.018  0.00  0.00    +0.000 OA
ATOM     13  C   UNL     1       1.868  11.900  18.484  0.00  0.00    +0.000 C 
ENDBRANCH   8  12
ENDBRANCH   1   3
BRANCH   2  14
ATOM     14  O   UNL     1       2.016   2.018  18.058  0.00  0.00    +0.000 OA
ATOM     15  H   UNL     1       2.370   1.704  18.912  0.00  0.00    +0.000 HD
ENDBRANCH   2  14
BRANCH   1  16
ATOM     16  C   UNL     1       4.133   3.497  18.854  0.00  0.00    +0.000 C 
BRANCH  16  20
ATOM     17  C   UNL     1       6.884   4.955  15.832  0.00  0.00    +0.000 A 
ATOM     18  C   UNL     1       5.637   4.438  15.473  0.00  0.00    +0.000 A 
ATOM     19  C   UNL     1       4.737   3.997  16.446  0.00  0.00    +0.000 A 
ATOM     20  C   UNL     1       5.071   4.060  17.803  0.00  0.00    +0.000 A 
ATOM     21  C   UNL     1       6.314   4.603  18.159  0.00  0.00    +0.000 A 
ATOM     22  C   UNL     1       7.217   5.043  17.183  0.00  0.00    +0.000 A 
BRANCH  17  24
ATOM     23  C   UNL     1       7.282   4.869  13.491  0.00  0.00    +0.000 C 
ATOM     24  O   UNL     1       7.681   5.313  14.781  0.00  0.00    +0.000 OA
ENDBRANCH  17  24
ENDBRANCH  16  20
ENDBRANCH   1  16
TORSDOF 6
ENDMDL
MODEL 4
REMARK VINA RESULT:      -7.5      2.194      5.983
REMARK  Name = 
REMARK  8 active torsions:
REMARK  status: ('A' for Active; 'I' for Inactive)
REMARK    1  A    between atoms: C_1  and  O_2
REMARK    2  A    between atoms: O_2  and  C_3
REMARK    3  A    between atoms: C_6  and  C_7
REMARK    4  A    between atoms: C_7  and  C_8
REMARK    5  A    between atoms: C_8  and  C_11
REMARK    6  A    between atoms: N_9  and  O_10
REMARK    7  A    between atoms: C_16  and  O_17
REMARK    8  A    between atoms: O_17  and  C_18
REMARK                            x       y       z     vdW  Elec       q    Type
REMARK                         _______ _______ _______ _____ _____    ______ ____
ROOT
ATOM      1  C   UNL     1       2.905   4.039  18.602  0.00  0.00    +0.000 C 
ATOM      2  N   UNL     1       1.884   3.294  18.277  0.00  0.00    +0.000 NA
ENDROOT
BRANCH   1   3
ATOM      3  C   UNL     1       2.691   5.440  18.920  0.00  0.00    +0.000 A 
ATOM      4  N   UNL     1       2.379   5.892  20.124  0.00  0.00    +0.000 NA
ATOM      5  C   UNL     1       1.992   7.181  19.898  0.00  0.00    +0.000 A 
ATOM      6  C   UNL     1       1.425   8.110  20.767  0.00  0.00    +0.000 A 
ATOM      7  C   UNL     1       1.053   9.348  20.235  0.00  0.00    +0.000 A 
ATOM      8  C   UNL     1       1.278   9.679  18.888  0.00  0.00    +0.000 A 
ATOM      9  C   UNL     1       1.869   8.759  18.008  0.00  0.00    +0.000 A 
ATOM     10  C   UNL     1       2.183   7.518  18.564  0.00  0.00    +0.000 A 
ATOM     11  O   UNL     1       2.671   6.402  17.931  0.00  0.00    +0.000 OA
BRANCH   8  12
ATOM     12  O   UNL     1       0.852  10.943  18.583  0.00  0.00    +0.000 OA
ATOM     13  C   UNL     1      -0.528  11.245  18.714  0.00  0.00    +0.000 C 
ENDBRANCH   8  12
ENDBRANCH   1   3
BRANCH   2  14
ATOM     14  O   UNL     1       2.249   1.958  18.063  0.00  0.00    +0.000 OA
ATOM     15  H   UNL     1       3.070   1.879  18.585  0.00  0.00    +0.000 HD
ENDBRANCH   2  14
BRANCH   1  16
ATOM     16  C   UNL     1       4.341   3.526  18.749  0.00  0.00    +0.000 C 
BRANCH  16  20
ATOM     17  C   UNL     1       6.834   4.982  15.511  0.00  0.00    +0.000 A 
ATOM     18  C   UNL     1       7.278   5.038  16.835  0.00  0.00    +0.000 A 
ATOM     19  C   UNL     1       6.490   4.541  17.876  0.00  0.00    +0.000 A 
ATOM     20  C   UNL     1       5.235   3.982  17.612  0.00  0.00    +0.000 A 
ATOM     21  C   UNL     1       4.806   3.906  16.280  0.00  0.00    +0.000 A 
ATOM     22  C   UNL     1       5.595   4.407  15.236  0.00  0.00    +0.000 A 
BRANCH  17  24
ATOM     23  C   UNL     1       7.607   5.049  13.265  0.00  0.00    +0.000 C 
ATOM     24  O   UNL     1       7.685   5.539  14.597  0.00  0.00    +0.000 OA
ENDBRANCH  17  24
ENDBRANCH  16  20
ENDBRANCH   1  16
TORSDOF 6
ENDMDL
MODEL 5
REMARK VINA RESULT:      -7.3      2.107      2.701
REMARK  Name = 
REMARK  8 active torsions:
REMARK  status: ('A' for Active; 'I' for Inactive)
REMARK    1  A    between atoms: C_1  and  O_2
REMARK    2  A    between atoms: O_2  and  C_3
REMARK    3  A    between atoms: C_6  and  C_7
REMARK    4  A    between atoms: C_7  and  C_8
REMARK    5  A    between atoms: C_8  and  C_11
REMARK    6  A    between atoms: N_9  and  O_10
REMARK    7  A    between atoms: C_16  and  O_17
REMARK    8  A    between atoms: O_17  and  C_18
REMARK                            x       y       z     vdW  Elec       q    Type
REMARK                         _______ _______ _______ _____ _____    ______ ____
ROOT
ATOM      1  C   UNL     1       2.393   4.125  19.546  0.00  0.00    +0.000 C 
ATOM      2  N   UNL     1       1.417   3.316  19.238  0.00  0.00    +0.000 NA
ENDROOT
BRANCH   1   3
ATOM      3  C   UNL     1       3.615   4.097  18.763  0.00  0.00    +0.000 A 
ATOM      4  N   UNL     1       4.831   4.185  19.276  0.00  0.00    +0.000 NA
ATOM      5  C   UNL     1       5.628   4.412  18.191  0.00  0.00    +0.000 A 
ATOM      6  C   UNL     1       6.983   4.726  18.125  0.00  0.00    +0.000 A 
ATOM      7  C   UNL     1       7.526   4.985  16.864  0.00  0.00    +0.000 A 
ATOM      8  C   UNL     1       6.760   4.890  15.689  0.00  0.00    +0.000 A 
ATOM      9  C   UNL     1       5.399   4.552  15.741  0.00  0.00    +0.000 A 
ATOM     10  C   UNL     1       4.882   4.348  17.021  0.00  0.00    +0.000 A 
ATOM     11  O   UNL     1       3.580   4.108  17.383  0.00  0.00    +0.000 OA
BRANCH   8  12
ATOM     12  O   UNL     1       7.491   5.169  14.567  0.00  0.00    +0.000 OA
ATOM     13  C   UNL     1       7.035   4.675  13.318  0.00  0.00    +0.000 C 
ENDBRANCH   8  12
ENDBRANCH   1   3
BRANCH   2  14
ATOM     14  O   UNL     1       0.289   3.513  20.045  0.00  0.00    +0.000 OA
ATOM     15  H   UNL     1      -0.356   3.892  19.417  0.00  0.00    +0.000 HD
ENDBRANCH   2  14
BRANCH   1  16
ATOM     16  C   UNL     1       2.325   5.184  20.652  0.00  0.00    +0.000 C 
BRANCH  16  20
ATOM     17  C   UNL     1       1.469   9.116  19.031  0.00  0.00    +0.000 A 
ATOM     18  C   UNL     1       1.133   8.798  20.349  0.00  0.00    +0.000 A 
ATOM     19  C   UNL     1       1.436   7.543  20.884  0.00  0.00    +0.000 A 
ATOM     20  C   UNL     1       2.078   6.576  20.103  0.00  0.00    +0.000 A 
ATOM     21  C   UNL     1       2.435   6.909  18.789  0.00  0.00    +0.000 A 
ATOM     22  C   UNL     1       2.128   8.166  18.253  0.00  0.00    +0.000 A 
BRANCH  17  24
ATOM     23  C   UNL     1      -0.311  10.563  18.410  0.00  0.00    +0.000 C 
ATOM     24  O   UNL     1       1.080  10.362  18.624  0.00  0.00    +0.000 OA
ENDBRANCH  17  24
ENDBRANCH  16  20
ENDBRANCH   1  16
TORSDOF 6
ENDMDL
MODEL 6
REMARK VINA RESULT:      -7.3      1.897      2.426
REMARK  Name = 
REMARK  8 active torsions:
REMARK  status: ('A' for Active; 'I' for Inactive)
REMARK    1  A    between atoms: C_1  and  O_2
REMARK    2  A    between atoms: O_2  and  C_3
REMARK    3  A    between atoms: C_6  and  C_7
REMARK    4  A    between atoms: C_7  and  C_8
REMARK    5  A    between atoms: C_8  and  C_11
REMARK    6  A    between atoms: N_9  and  O_10
REMARK    7  A    between atoms: C_16  and  O_17
REMARK    8  A    between atoms: O_17  and  C_18
REMARK                            x       y       z     vdW  Elec       q    Type
REMARK                         _______ _______ _______ _____ _____    ______ ____
ROOT
ATOM      1  C   UNL     1       3.220   3.440  20.288  0.00  0.00    +0.000 C 
ATOM      2  N   UNL     1       3.397   2.616  21.285  0.00  0.00    +0.000 NA
ENDROOT
BRANCH   1   3
ATOM      3  C   UNL     1       4.349   3.789  19.445  0.00  0.00    +0.000 A 
ATOM      4  N   UNL     1       5.336   4.589  19.812  0.00  0.00    +0.000 NA
ATOM      5  C   UNL     1       5.989   4.862  18.644  0.00  0.00    +0.000 A 
ATOM      6  C   UNL     1       7.022   5.757  18.384  0.00  0.00    +0.000 A 
ATOM      7  C   UNL     1       7.449   5.885  17.060  0.00  0.00    +0.000 A 
ATOM      8  C   UNL     1       6.899   5.114  16.022  0.00  0.00    +0.000 A 
ATOM      9  C   UNL     1       5.871   4.191  16.275  0.00  0.00    +0.000 A 
ATOM     10  C   UNL     1       5.441   4.126  17.601  0.00  0.00    +0.000 A 
ATOM     11  O   UNL     1       4.399   3.400  18.121  0.00  0.00    +0.000 OA
BRANCH   8  12
ATOM     12  O   UNL     1       7.470   5.388  14.810  0.00  0.00    +0.000 OA
ATOM     13  C   UNL     1       7.015   4.681  13.667  0.00  0.00    +0.000 C 
ENDBRANCH   8  12
ENDBRANCH   1   3
BRANCH   2  14
ATOM     14  O   UNL     1       2.201   2.333  21.958  0.00  0.00    +0.000 OA
ATOM     15  H   UNL     1       2.337   2.769  22.820  0.00  0.00    +0.000 HD
ENDBRANCH   2  14
BRANCH   1  16
ATOM     16  C   UNL     1       1.866   4.030  19.880  0.00  0.00    +0.000 C 
BRANCH  16  20
ATOM     17  C   UNL     1       1.941   8.282  19.020  0.00  0.00    +0.000 A 
ATOM     18  C   UNL     1       1.706   7.819  20.317  0.00  0.00    +0.000 A 
ATOM     19  C   UNL     1       1.713   6.452  20.603  0.00  0.00    +0.000 A 
ATOM     20  C   UNL     1       1.949   5.517  19.590  0.00  0.00    +0.000 A 
ATOM     21  C   UNL     1       2.210   5.987  18.295  0.00  0.00    +0.000 A 
ATOM     22  C   UNL     1       2.200   7.358  18.009  0.00  0.00    +0.000 A 
BRANCH  17  24
ATOM     23  C   UNL     1       0.572  10.222  18.929  0.00  0.00    +0.000 C 
ATOM     24  O   UNL     1       1.867   9.639  18.872  0.00  0.00    +0.000 OA
ENDBRANCH  17  24
ENDBRANCH  16  20
ENDBRANCH   1  16
TORSDOF 6
ENDMDL
MODEL 7
REMARK VINA RESULT:      -7.3      2.038      2.809
REMARK  Name = 
REMARK  8 active torsions:
REMARK  status: ('A' for Active; 'I' for Inactive)
REMARK    1  A    between atoms: C_1  and  O_2
REMARK    2  A    between atoms: O_2  and  C_3
REMARK    3  A    between atoms: C_6  and  C_7
REMARK    4  A    between atoms: C_7  and  C_8
REMARK    5  A    between atoms: C_8  and  C_11
REMARK    6  A    between atoms: N_9  and  O_10
REMARK    7  A    between atoms: C_16  and  O_17
REMARK    8  A    between atoms: O_17  and  C_18
REMARK                            x       y       z     vdW  Elec       q    Type
REMARK                         _______ _______ _______ _____ _____    ______ ____
ROOT
ATOM      1  C   UNL     1       3.237   3.284  20.194  0.00  0.00    +0.000 C 
ATOM      2  N   UNL     1       3.493   2.546  21.240  0.00  0.00    +0.000 NA
ENDROOT
BRANCH   1   3
ATOM      3  C   UNL     1       4.298   3.564  19.243  0.00  0.00    +0.000 A 
ATOM      4  N   UNL     1       5.387   4.260  19.523  0.00  0.00    +0.000 NA
ATOM      5  C   UNL     1       5.935   4.518  18.299  0.00  0.00    +0.000 A 
ATOM      6  C   UNL     1       7.012   5.329  17.953  0.00  0.00    +0.000 A 
ATOM      7  C   UNL     1       7.307   5.467  16.594  0.00  0.00    +0.000 A 
ATOM      8  C   UNL     1       6.582   4.785  15.602  0.00  0.00    +0.000 A 
ATOM      9  C   UNL     1       5.508   3.947  15.939  0.00  0.00    +0.000 A 
ATOM     10  C   UNL     1       5.215   3.872  17.302  0.00  0.00    +0.000 A 
ATOM     11  O   UNL     1       4.172   3.221  17.912  0.00  0.00    +0.000 OA
BRANCH   8  12
ATOM     12  O   UNL     1       7.046   5.052  14.343  0.00  0.00    +0.000 OA
ATOM     13  C   UNL     1       6.678   4.183  13.284  0.00  0.00    +0.000 C 
ENDBRANCH   8  12
ENDBRANCH   1   3
BRANCH   2  14
ATOM     14  O   UNL     1       2.352   2.319  22.020  0.00  0.00    +0.000 OA
ATOM     15  H   UNL     1       1.992   1.499  21.632  0.00  0.00    +0.000 HD
ENDBRANCH   2  14
BRANCH   1  16
ATOM     16  C   UNL     1       1.852   3.836  19.841  0.00  0.00    +0.000 C 
BRANCH  16  20
ATOM     17  C   UNL     1       2.136   8.044  18.821  0.00  0.00    +0.000 A 
ATOM     18  C   UNL     1       2.212   7.062  17.830  0.00  0.00    +0.000 A 
ATOM     19  C   UNL     1       2.089   5.708  18.152  0.00  0.00    +0.000 A 
ATOM     20  C   UNL     1       1.894   5.309  19.478  0.00  0.00    +0.000 A 
ATOM     21  C   UNL     1       1.793   6.299  20.465  0.00  0.00    +0.000 A 
ATOM     22  C   UNL     1       1.919   7.657  20.142  0.00  0.00    +0.000 A 
BRANCH  17  24
ATOM     23  C   UNL     1       1.261  10.247  18.639  0.00  0.00    +0.000 C 
ATOM     24  O   UNL     1       2.311   9.324  18.375  0.00  0.00    +0.000 OA
ENDBRANCH  17  24
ENDBRANCH  16  20
ENDBRANCH   1  16
TORSDOF 6
ENDMDL
MODEL 8
REMARK VINA RESULT:      -7.3      2.109      2.807
REMARK  Name = 
REMARK  8 active torsions:
REMARK  status: ('A' for Active; 'I' for Inactive)
REMARK    1  A    between atoms: C_1  and  O_2
REMARK    2  A    between atoms: O_2  and  C_3
REMARK    3  A    between atoms: C_6  and  C_7
REMARK    4  A    between atoms: C_7  and  C_8
REMARK    5  A    between atoms: C_8  and  C_11
REMARK    6  A    between atoms: N_9  and  O_10
REMARK    7  A    between atoms: C_16  and  O_17
REMARK    8  A    between atoms: O_17  and  C_18
REMARK                            x       y       z     vdW  Elec       q    Type
REMARK                         _______ _______ _______ _____ _____    ______ ____
ROOT
ATOM      1  C   UNL     1       2.423   3.997  19.551  0.00  0.00    +0.000 C 
ATOM      2  N   UNL     1       1.492   3.123  19.282  0.00  0.00    +0.000 NA
ENDROOT
BRANCH   1   3
ATOM      3  C   UNL     1       3.644   4.000  18.766  0.00  0.00    +0.000 A 
ATOM      4  N   UNL     1       4.857   4.147  19.274  0.00  0.00    +0.000 NA
ATOM      5  C   UNL     1       5.643   4.382  18.183  0.00  0.00    +0.000 A 
ATOM      6  C   UNL     1       6.984   4.748  18.107  0.00  0.00    +0.000 A 
ATOM      7  C   UNL     1       7.514   5.000  16.839  0.00  0.00    +0.000 A 
ATOM      8  C   UNL     1       6.751   4.851  15.669  0.00  0.00    +0.000 A 
ATOM      9  C   UNL     1       5.404   4.461  15.730  0.00  0.00    +0.000 A 
ATOM     10  C   UNL     1       4.898   4.263  17.016  0.00  0.00    +0.000 A 
ATOM     11  O   UNL     1       3.607   3.980  17.386  0.00  0.00    +0.000 OA
BRANCH   8  12
ATOM     12  O   UNL     1       7.469   5.134  14.539  0.00  0.00    +0.000 OA
ATOM     13  C   UNL     1       7.022   4.608  13.300  0.00  0.00    +0.000 C 
ENDBRANCH   8  12
ENDBRANCH   1   3
BRANCH   2  14
ATOM     14  O   UNL     1       0.356   3.295  20.084  0.00  0.00    +0.000 OA
ATOM     15  H   UNL     1       0.214   4.260  20.044  0.00  0.00    +0.000 HD
ENDBRANCH   2  14
BRANCH   1  16
ATOM     16  C   UNL     1       2.298   5.099  20.609  0.00  0.00    +0.000 C 
BRANCH  16  20
ATOM     17  C   UNL     1       1.649   9.034  18.901  0.00  0.00    +0.000 A 
ATOM     18  C   UNL     1       2.204   8.006  18.135  0.00  0.00    +0.000 A 
ATOM     19  C   UNL     1       2.385   6.729  18.673  0.00  0.00    +0.000 A 
ATOM     20  C   UNL     1       2.019   6.458  19.996  0.00  0.00    +0.000 A 
ATOM     21  C   UNL     1       1.439   7.487  20.752  0.00  0.00    +0.000 A 
ATOM     22  C   UNL     1       1.261   8.767  20.212  0.00  0.00    +0.000 A 
BRANCH  17  24
ATOM     23  C   UNL     1       1.053  11.332  19.021  0.00  0.00    +0.000 C 
ATOM     24  O   UNL     1       1.565  10.241  18.265  0.00  0.00    +0.000 OA
ENDBRANCH  17  24
ENDBRANCH  16  20
ENDBRANCH   1  16
TORSDOF 6
ENDMDL
MODEL 9
REMARK VINA RESULT:      -7.2      3.752      5.786
REMARK  Name = 
REMARK  8 active torsions:
REMARK  status: ('A' for Active; 'I' for Inactive)
REMARK    1  A    between atoms: C_1  and  O_2
REMARK    2  A    between atoms: O_2  and  C_3
REMARK    3  A    between atoms: C_6  and  C_7
REMARK    4  A    between atoms: C_7  and  C_8
REMARK    5  A    between atoms: C_8  and  C_11
REMARK    6  A    between atoms: N_9  and  O_10
REMARK    7  A    between atoms: C_16  and  O_17
REMARK    8  A    between atoms: O_17  and  C_18
REMARK                            x       y       z     vdW  Elec       q    Type
REMARK                         _______ _______ _______ _____ _____    ______ ____
ROOT
ATOM      1  C   UNL     1       7.172   6.062  16.947  0.00  0.00    +0.000 C 
ATOM      2  N   UNL     1       7.587   7.294  16.836  0.00  0.00    +0.000 NA
ENDROOT
BRANCH   1   3
ATOM      3  C   UNL     1       6.997   5.259  15.749  0.00  0.00    +0.000 A 
ATOM      4  N   UNL     1       7.829   5.264  14.720  0.00  0.00    +0.000 NA
ATOM      5  C   UNL     1       7.136   4.617  13.738  0.00  0.00    +0.000 A 
ATOM      6  C   UNL     1       7.446   4.441  12.392  0.00  0.00    +0.000 A 
ATOM      7  C   UNL     1       6.501   3.793  11.591  0.00  0.00    +0.000 A 
ATOM      8  C   UNL     1       5.299   3.290  12.116  0.00  0.00    +0.000 A 
ATOM      9  C   UNL     1       4.985   3.442  13.475  0.00  0.00    +0.000 A 
ATOM     10  C   UNL     1       5.931   4.134  14.232  0.00  0.00    +0.000 A 
ATOM     11  O   UNL     1       5.851   4.517  15.548  0.00  0.00    +0.000 OA
BRANCH   8  12
ATOM     12  O   UNL     1       4.528   2.682  11.162  0.00  0.00    +0.000 OA
ATOM     13  C   UNL     1       3.415   3.386  10.637  0.00  0.00    +0.000 C 
ENDBRANCH   8  12
ENDBRANCH   1   3
BRANCH   2  14
ATOM     14  O   UNL     1       7.766   7.908  18.083  0.00  0.00    +0.000 OA
ATOM     15  H   UNL     1       7.809   8.854  17.847  0.00  0.00    +0.000 HD
ENDBRANCH   2  14
BRANCH   1  16
ATOM     16  C   UNL     1       6.916   5.350  18.279  0.00  0.00    +0.000 C 
BRANCH  16  20
ATOM     17  C   UNL     1       2.672   4.706  18.906  0.00  0.00    +0.000 A 
ATOM     18  C   UNL     1       3.605   3.739  19.290  0.00  0.00    +0.000 A 
ATOM     19  C   UNL     1       4.974   3.957  19.118  0.00  0.00    +0.000 A 
ATOM     20  C   UNL     1       5.437   5.149  18.550  0.00  0.00    +0.000 A 
ATOM     21  C   UNL     1       4.498   6.126  18.191  0.00  0.00    +0.000 A 
ATOM     22  C   UNL     1       3.125   5.905  18.361  0.00  0.00    +0.000 A 
BRANCH  17  24
ATOM     23  C   UNL     1       1.103   3.376  20.098  0.00  0.00    +0.000 C 
ATOM     24  O   UNL     1       1.366   4.348  19.094  0.00  0.00    +0.000 OA
ENDBRANCH  17  24
ENDBRANCH  16  20
ENDBRANCH   1  16
TORSDOF 6
ENDMDL
