MODEL 1
REMARK VINA RESULT:      -8.0      0.000      0.000
REMARK  Name = 
REMARK  3 active torsions:
REMARK  status: ('A' for Active; 'I' for Inactive)
REMARK    1  A    between atoms: C_2  and  C_3
REMARK    2  A    between atoms: C_8  and  O_9
REMARK    3  A    between atoms: C_13  and  O_14
REMARK                            x       y       z     vdW  Elec       q    Type
REMARK                         _______ _______ _______ _____ _____    ______ ____
ROOT
ATOM      1  C   UNL     1       6.088   5.138  15.300  0.00  0.00    +0.000 A 
ATOM      2  C   UNL     1       5.810   6.467  15.638  0.00  0.00    +0.000 A 
ATOM      3  C   UNL     1       4.855   6.756  16.615  0.00  0.00    +0.000 A 
ATOM      4  C   UNL     1       4.171   5.723  17.277  0.00  0.00    +0.000 A 
ATOM      5  C   UNL     1       4.463   4.393  16.937  0.00  0.00    +0.000 A 
ATOM      6  C   UNL     1       5.417   4.099  15.946  0.00  0.00    +0.000 A 
ATOM      7  C   UNL     1       3.768   3.294  17.640  0.00  0.00    +0.000 C 
ATOM      8  O   UNL     1       4.025   2.126  17.347  0.00  0.00    +0.000 OA
ATOM      9  C   UNL     1       2.778   3.587  18.694  0.00  0.00    +0.000 A 
ATOM     10  C   UNL     1       2.137   2.537  19.369  0.00  0.00    +0.000 A 
ATOM     11  C   UNL     1       1.203   2.803  20.363  0.00  0.00    +0.000 A 
ATOM     12  C   UNL     1       0.900   4.122  20.691  0.00  0.00    +0.000 A 
ATOM     13  C   UNL     1       1.536   5.173  20.024  0.00  0.00    +0.000 A 
ATOM     14  C   UNL     1       2.484   4.917  19.018  0.00  0.00    +0.000 A 
ATOM     15  C   UNL     1       3.147   6.079  18.325  0.00  0.00    +0.000 C 
ENDROOT
BRANCH   1  17
ATOM     16  O   UNL     1       8.016   5.617  14.022  0.00  0.00    +0.000 OA
ATOM     17  C   UNL     1       7.097   4.842  14.263  0.00  0.00    +0.000 C 
ENDBRANCH   1  17
BRANCH   6  18
ATOM     18  O   UNL     1       5.721   2.809  15.588  0.00  0.00    +0.000 OA
ATOM     19  H   UNL     1       5.672   2.737  14.608  0.00  0.00    +0.000 HD
ENDBRANCH   6  18
BRANCH  10  20
ATOM     20  O   UNL     1       2.380   1.215  19.106  0.00  0.00    +0.000 OA
ATOM     21  H   UNL     1       2.365   0.729  19.960  0.00  0.00    +0.000 HD
ENDBRANCH  10  20
TORSDOF 3
ENDMDL
MODEL 2
REMARK VINA RESULT:      -7.2      3.364      5.303
REMARK  Name = 
REMARK  3 active torsions:
REMARK  status: ('A' for Active; 'I' for Inactive)
REMARK    1  A    between atoms: C_2  and  C_3
REMARK    2  A    between atoms: C_8  and  O_9
REMARK    3  A    between atoms: C_13  and  O_14
REMARK                            x       y       z     vdW  Elec       q    Type
REMARK                         _______ _______ _______ _____ _____    ______ ____
ROOT
ATOM      1  C   UNL     1       3.977   3.494  18.998  0.00  0.00    +0.000 A 
ATOM      2  C   UNL     1       4.535   3.911  17.785  0.00  0.00    +0.000 A 
ATOM      3  C   UNL     1       4.276   5.195  17.299  0.00  0.00    +0.000 A 
ATOM      4  C   UNL     1       3.464   6.084  18.021  0.00  0.00    +0.000 A 
ATOM      5  C   UNL     1       2.914   5.660  19.241  0.00  0.00    +0.000 A 
ATOM      6  C   UNL     1       3.166   4.364  19.728  0.00  0.00    +0.000 A 
ATOM      7  C   UNL     1       2.076   6.591  20.024  0.00  0.00    +0.000 C 
ATOM      8  O   UNL     1       1.596   6.223  21.097  0.00  0.00    +0.000 OA
ATOM      9  C   UNL     1       1.818   7.959  19.534  0.00  0.00    +0.000 A 
ATOM     10  C   UNL     1       1.037   8.843  20.294  0.00  0.00    +0.000 A 
ATOM     11  C   UNL     1       0.788  10.133  19.841  0.00  0.00    +0.000 A 
ATOM     12  C   UNL     1       1.319  10.551  18.623  0.00  0.00    +0.000 A 
ATOM     13  C   UNL     1       2.100   9.677  17.863  0.00  0.00    +0.000 A 
ATOM     14  C   UNL     1       2.360   8.370  18.311  0.00  0.00    +0.000 A 
ATOM     15  C   UNL     1       3.208   7.460  17.461  0.00  0.00    +0.000 C 
ENDROOT
BRANCH   1  17
ATOM     16  O   UNL     1       4.996   1.943  20.458  0.00  0.00    +0.000 OA
ATOM     17  C   UNL     1       4.253   2.134  19.502  0.00  0.00    +0.000 C 
ENDBRANCH   1  17
BRANCH   6  18
ATOM     18  O   UNL     1       2.639   3.917  20.914  0.00  0.00    +0.000 OA
ATOM     19  H   UNL     1       1.862   4.477  21.142  0.00  0.00    +0.000 HD
ENDBRANCH   6  18
BRANCH  10  20
ATOM     20  O   UNL     1       0.481   8.508  21.500  0.00  0.00    +0.000 OA
ATOM     21  H   UNL     1      -0.345   9.029  21.607  0.00  0.00    +0.000 HD
ENDBRANCH  10  20
TORSDOF 3
ENDMDL
MODEL 3
REMARK VINA RESULT:      -7.2      1.687      1.790
REMARK  Name = 
REMARK  3 active torsions:
REMARK  status: ('A' for Active; 'I' for Inactive)
REMARK    1  A    between atoms: C_2  and  C_3
REMARK    2  A    between atoms: C_8  and  O_9
REMARK    3  A    between atoms: C_13  and  O_14
REMARK                            x       y       z     vdW  Elec       q    Type
REMARK                         _______ _______ _______ _____ _____    ______ ____
ROOT
ATOM      1  C   UNL     1       6.061   5.947  16.660  0.00  0.00    +0.000 A 
ATOM      2  C   UNL     1       4.971   6.766  16.350  0.00  0.00    +0.000 A 
ATOM      3  C   UNL     1       3.748   6.579  16.999  0.00  0.00    +0.000 A 
ATOM      4  C   UNL     1       3.600   5.578  17.973  0.00  0.00    +0.000 A 
ATOM      5  C   UNL     1       4.702   4.767  18.283  0.00  0.00    +0.000 A 
ATOM      6  C   UNL     1       5.931   4.946  17.623  0.00  0.00    +0.000 A 
ATOM      7  C   UNL     1       4.568   3.724  19.321  0.00  0.00    +0.000 C 
ATOM      8  O   UNL     1       5.534   3.013  19.598  0.00  0.00    +0.000 OA
ATOM      9  C   UNL     1       3.289   3.536  20.033  0.00  0.00    +0.000 A 
ATOM     10  C   UNL     1       3.177   2.556  21.032  0.00  0.00    +0.000 A 
ATOM     11  C   UNL     1       1.976   2.371  21.707  0.00  0.00    +0.000 A 
ATOM     12  C   UNL     1       0.877   3.165  21.391  0.00  0.00    +0.000 A 
ATOM     13  C   UNL     1       0.983   4.144  20.400  0.00  0.00    +0.000 A 
ATOM     14  C   UNL     1       2.191   4.342  19.710  0.00  0.00    +0.000 A 
ATOM     15  C   UNL     1       2.262   5.409  18.649  0.00  0.00    +0.000 C 
ENDROOT
BRANCH   1  17
ATOM     16  O   UNL     1       7.704   5.420  15.046  0.00  0.00    +0.000 OA
ATOM     17  C   UNL     1       7.350   6.149  15.966  0.00  0.00    +0.000 C 
ENDBRANCH   1  17
BRANCH   6  18
ATOM     18  O   UNL     1       7.026   4.166  17.900  0.00  0.00    +0.000 OA
ATOM     19  H   UNL     1       7.644   4.683  18.466  0.00  0.00    +0.000 HD
ENDBRANCH   6  18
BRANCH  10  20
ATOM     20  O   UNL     1       4.211   1.738  21.401  0.00  0.00    +0.000 OA
ATOM     21  H   UNL     1       4.649   2.139  22.184  0.00  0.00    +0.000 HD
ENDBRANCH  10  20
TORSDOF 3
ENDMDL
MODEL 4
REMARK VINA RESULT:      -7.2      1.177      5.689
REMARK  Name = 
REMARK  3 active torsions:
REMARK  status: ('A' for Active; 'I' for Inactive)
REMARK    1  A    between atoms: C_2  and  C_3
REMARK    2  A    between atoms: C_8  and  O_9
REMARK    3  A    between atoms: C_13  and  O_14
REMARK                            x       y       z     vdW  Elec       q    Type
REMARK                         _______ _______ _______ _____ _____    ______ ____
ROOT
ATOM      1  C   UNL     1       1.778   3.812  20.679  0.00  0.00    +0.000 A 
ATOM      2  C   UNL     1       1.560   5.191  20.769  0.00  0.00    +0.000 A 
ATOM      3  C   UNL     1       2.187   6.058  19.872  0.00  0.00    +0.000 A 
ATOM      4  C   UNL     1       3.033   5.562  18.867  0.00  0.00    +0.000 A 
ATOM      5  C   UNL     1       3.239   4.176  18.779  0.00  0.00    +0.000 A 
ATOM      6  C   UNL     1       2.617   3.301  19.688  0.00  0.00    +0.000 A 
ATOM      7  C   UNL     1       4.108   3.637  17.713  0.00  0.00    +0.000 C 
ATOM      8  O   UNL     1       4.287   2.421  17.632  0.00  0.00    +0.000 OA
ATOM      9  C   UNL     1       4.753   4.542  16.743  0.00  0.00    +0.000 A 
ATOM     10  C   UNL     1       5.561   4.019  15.722  0.00  0.00    +0.000 A 
ATOM     11  C   UNL     1       6.173   4.863  14.803  0.00  0.00    +0.000 A 
ATOM     12  C   UNL     1       5.983   6.240  14.898  0.00  0.00    +0.000 A 
ATOM     13  C   UNL     1       5.177   6.767  15.910  0.00  0.00    +0.000 A 
ATOM     14  C   UNL     1       4.552   5.924  16.844  0.00  0.00    +0.000 A 
ATOM     15  C   UNL     1       3.691   6.533  17.920  0.00  0.00    +0.000 C 
ENDROOT
BRANCH   1  17
ATOM     16  O   UNL     1       1.759   2.163  22.371  0.00  0.00    +0.000 OA
ATOM     17  C   UNL     1       1.114   2.902  21.635  0.00  0.00    +0.000 C 
ENDBRANCH   1  17
BRANCH   6  18
ATOM     18  O   UNL     1       2.802   1.942  19.632  0.00  0.00    +0.000 OA
ATOM     19  H   UNL     1       2.720   1.654  18.694  0.00  0.00    +0.000 HD
ENDBRANCH   6  18
BRANCH  10  20
ATOM     20  O   UNL     1       5.796   2.679  15.561  0.00  0.00    +0.000 OA
ATOM     21  H   UNL     1       5.996   2.300  16.445  0.00  0.00    +0.000 HD
ENDBRANCH  10  20
TORSDOF 3
ENDMDL
MODEL 5
REMARK VINA RESULT:      -7.2      2.281      6.234
REMARK  Name = 
REMARK  3 active torsions:
REMARK  status: ('A' for Active; 'I' for Inactive)
REMARK    1  A    between atoms: C_2  and  C_3
REMARK    2  A    between atoms: C_8  and  O_9
REMARK    3  A    between atoms: C_13  and  O_14
REMARK                            x       y       z     vdW  Elec       q    Type
REMARK                         _______ _______ _______ _____ _____    ______ ____
ROOT
ATOM      1  C   UNL     1       1.835   3.000  20.061  0.00  0.00    +0.000 A 
ATOM      2  C   UNL     1       1.484   2.142  19.014  0.00  0.00    +0.000 A 
ATOM      3  C   UNL     1       2.194   2.177  17.812  0.00  0.00    +0.000 A 
ATOM      4  C   UNL     1       3.269   3.064  17.640  0.00  0.00    +0.000 A 
ATOM      5  C   UNL     1       3.619   3.916  18.699  0.00  0.00    +0.000 A 
ATOM      6  C   UNL     1       2.900   3.889  19.908  0.00  0.00    +0.000 A 
ATOM      7  C   UNL     1       4.762   4.839  18.543  0.00  0.00    +0.000 C 
ATOM      8  O   UNL     1       5.074   5.585  19.472  0.00  0.00    +0.000 OA
ATOM      9  C   UNL     1       5.536   4.866  17.287  0.00  0.00    +0.000 A 
ATOM     10  C   UNL     1       6.633   5.733  17.154  0.00  0.00    +0.000 A 
ATOM     11  C   UNL     1       7.368   5.765  15.975  0.00  0.00    +0.000 A 
ATOM     12  C   UNL     1       7.013   4.932  14.917  0.00  0.00    +0.000 A 
ATOM     13  C   UNL     1       5.924   4.065  15.044  0.00  0.00    +0.000 A 
ATOM     14  C   UNL     1       5.173   4.022  16.231  0.00  0.00    +0.000 A 
ATOM     15  C   UNL     1       4.008   3.072  16.326  0.00  0.00    +0.000 C 
ENDROOT
BRANCH   1  17
ATOM     16  O   UNL     1       1.593   2.574  22.372  0.00  0.00    +0.000 OA
ATOM     17  C   UNL     1       1.077   2.957  21.328  0.00  0.00    +0.000 C 
ENDBRANCH   1  17
BRANCH   6  18
ATOM     18  O   UNL     1       3.214   4.712  20.960  0.00  0.00    +0.000 OA
ATOM     19  H   UNL     1       2.565   5.452  20.983  0.00  0.00    +0.000 HD
ENDBRANCH   6  18
BRANCH  10  20
ATOM     20  O   UNL     1       7.045   6.580  18.148  0.00  0.00    +0.000 OA
ATOM     21  H   UNL     1       7.680   6.093  18.717  0.00  0.00    +0.000 HD
ENDBRANCH  10  20
TORSDOF 3
ENDMDL
MODEL 6
REMARK VINA RESULT:      -7.1      3.127      6.009
REMARK  Name = 
REMARK  3 active torsions:
REMARK  status: ('A' for Active; 'I' for Inactive)
REMARK    1  A    between atoms: C_2  and  C_3
REMARK    2  A    between atoms: C_8  and  O_9
REMARK    3  A    between atoms: C_13  and  O_14
REMARK                            x       y       z     vdW  Elec       q    Type
REMARK                         _______ _______ _______ _____ _____    ______ ____
ROOT
ATOM      1  C   UNL     1       1.180   8.473  20.174  0.00  0.00    +0.000 A 
ATOM      2  C   UNL     1       1.214   9.338  19.075  0.00  0.00    +0.000 A 
ATOM      3  C   UNL     1       2.044   9.057  17.988  0.00  0.00    +0.000 A 
ATOM      4  C   UNL     1       2.846   7.905  17.978  0.00  0.00    +0.000 A 
ATOM      5  C   UNL     1       2.800   7.038  19.081  0.00  0.00    +0.000 A 
ATOM      6  C   UNL     1       1.971   7.324  20.182  0.00  0.00    +0.000 A 
ATOM      7  C   UNL     1       3.620   5.809  19.075  0.00  0.00    +0.000 C 
ATOM      8  O   UNL     1       3.578   5.046  20.040  0.00  0.00    +0.000 OA
ATOM      9  C   UNL     1       4.480   5.488  17.921  0.00  0.00    +0.000 A 
ATOM     10  C   UNL     1       5.242   4.309  17.916  0.00  0.00    +0.000 A 
ATOM     11  C   UNL     1       6.055   3.998  16.832  0.00  0.00    +0.000 A 
ATOM     12  C   UNL     1       6.115   4.864  15.743  0.00  0.00    +0.000 A 
ATOM     13  C   UNL     1       5.357   6.039  15.740  0.00  0.00    +0.000 A 
ATOM     14  C   UNL     1       4.530   6.364  16.829  0.00  0.00    +0.000 A 
ATOM     15  C   UNL     1       3.730   7.640  16.785  0.00  0.00    +0.000 C 
ENDROOT
BRANCH   1  17
ATOM     16  O   UNL     1      -0.588   8.012  21.671  0.00  0.00    +0.000 OA
ATOM     17  C   UNL     1       0.301   8.780  21.321  0.00  0.00    +0.000 C 
ENDBRANCH   1  17
BRANCH   6  18
ATOM     18  O   UNL     1       1.907   6.500  21.277  0.00  0.00    +0.000 OA
ATOM     19  H   UNL     1       1.026   6.062  21.288  0.00  0.00    +0.000 HD
ENDBRANCH   6  18
BRANCH  10  20
ATOM     20  O   UNL     1       5.236   3.408  18.946  0.00  0.00    +0.000 OA
ATOM     21  H   UNL     1       5.037   3.897  19.775  0.00  0.00    +0.000 HD
ENDBRANCH  10  20
TORSDOF 3
ENDMDL
MODEL 7
REMARK VINA RESULT:      -7.1      3.295      4.383
REMARK  Name = 
REMARK  3 active torsions:
REMARK  status: ('A' for Active; 'I' for Inactive)
REMARK    1  A    between atoms: C_2  and  C_3
REMARK    2  A    between atoms: C_8  and  O_9
REMARK    3  A    between atoms: C_13  and  O_14
REMARK                            x       y       z     vdW  Elec       q    Type
REMARK                         _______ _______ _______ _____ _____    ______ ____
ROOT
ATOM      1  C   UNL     1       5.465   4.698  17.042  0.00  0.00    +0.000 A 
ATOM      2  C   UNL     1       5.261   3.926  18.190  0.00  0.00    +0.000 A 
ATOM      3  C   UNL     1       4.395   4.375  19.190  0.00  0.00    +0.000 A 
ATOM      4  C   UNL     1       3.715   5.596  19.054  0.00  0.00    +0.000 A 
ATOM      5  C   UNL     1       3.920   6.360  17.895  0.00  0.00    +0.000 A 
ATOM      6  C   UNL     1       4.799   5.915  16.891  0.00  0.00    +0.000 A 
ATOM      7  C   UNL     1       3.194   7.636  17.727  0.00  0.00    +0.000 C 
ATOM      8  O   UNL     1       3.370   8.305  16.709  0.00  0.00    +0.000 OA
ATOM      9  C   UNL     1       2.257   8.107  18.764  0.00  0.00    +0.000 A 
ATOM     10  C   UNL     1       1.558   9.310  18.587  0.00  0.00    +0.000 A 
ATOM     11  C   UNL     1       0.673   9.762  19.559  0.00  0.00    +0.000 A 
ATOM     12  C   UNL     1       0.479   9.014  20.718  0.00  0.00    +0.000 A 
ATOM     13  C   UNL     1       1.170   7.813  20.899  0.00  0.00    +0.000 A 
ATOM     14  C   UNL     1       2.067   7.345  19.924  0.00  0.00    +0.000 A 
ATOM     15  C   UNL     1       2.791   6.045  20.159  0.00  0.00    +0.000 C 
ENDROOT
BRANCH   1  17
ATOM     16  O   UNL     1       7.448   4.782  15.761  0.00  0.00    +0.000 OA
ATOM     17  C   UNL     1       6.385   4.217  15.990  0.00  0.00    +0.000 C 
ENDBRANCH   1  17
BRANCH   6  18
ATOM     18  O   UNL     1       5.025   6.640  15.748  0.00  0.00    +0.000 OA
ATOM     19  H   UNL     1       5.517   6.075  15.110  0.00  0.00    +0.000 HD
ENDBRANCH   6  18
BRANCH  10  20
ATOM     20  O   UNL     1       1.692  10.101  17.478  0.00  0.00    +0.000 OA
ATOM     21  H   UNL     1       2.607  10.459  17.470  0.00  0.00    +0.000 HD
ENDBRANCH  10  20
TORSDOF 3
ENDMDL
MODEL 8
REMARK VINA RESULT:      -7.1      1.162      1.162
REMARK  Name = 
REMARK  3 active torsions:
REMARK  status: ('A' for Active; 'I' for Inactive)
REMARK    1  A    between atoms: C_2  and  C_3
REMARK    2  A    between atoms: C_8  and  O_9
REMARK    3  A    between atoms: C_13  and  O_14
REMARK                            x       y       z     vdW  Elec       q    Type
REMARK                         _______ _______ _______ _____ _____    ______ ____
ROOT
ATOM      1  C   UNL     1       6.361   5.141  15.661  0.00  0.00    +0.000 A 
ATOM      2  C   UNL     1       6.873   5.965  16.669  0.00  0.00    +0.000 A 
ATOM      3  C   UNL     1       6.222   6.049  17.902  0.00  0.00    +0.000 A 
ATOM      4  C   UNL     1       5.057   5.306  18.150  0.00  0.00    +0.000 A 
ATOM      5  C   UNL     1       4.556   4.476  17.136  0.00  0.00    +0.000 A 
ATOM      6  C   UNL     1       5.203   4.396  15.890  0.00  0.00    +0.000 A 
ATOM      7  C   UNL     1       3.344   3.669  17.390  0.00  0.00    +0.000 C 
ATOM      8  O   UNL     1       2.904   2.937  16.502  0.00  0.00    +0.000 OA
ATOM      9  C   UNL     1       2.664   3.730  18.697  0.00  0.00    +0.000 A 
ATOM     10  C   UNL     1       1.524   2.946  18.936  0.00  0.00    +0.000 A 
ATOM     11  C   UNL     1       0.877   2.996  20.165  0.00  0.00    +0.000 A 
ATOM     12  C   UNL     1       1.364   3.831  21.167  0.00  0.00    +0.000 A 
ATOM     13  C   UNL     1       2.500   4.612  20.938  0.00  0.00    +0.000 A 
ATOM     14  C   UNL     1       3.164   4.570  19.700  0.00  0.00    +0.000 A 
ATOM     15  C   UNL     1       4.385   5.427  19.495  0.00  0.00    +0.000 C 
ENDROOT
BRANCH   1  17
ATOM     16  O   UNL     1       8.107   5.654  14.155  0.00  0.00    +0.000 OA
ATOM     17  C   UNL     1       7.053   5.060  14.359  0.00  0.00    +0.000 C 
ENDBRANCH   1  17
BRANCH   6  18
ATOM     18  O   UNL     1       4.735   3.598  14.876  0.00  0.00    +0.000 OA
ATOM     19  H   UNL     1       5.008   3.991  14.016  0.00  0.00    +0.000 HD
ENDBRANCH   6  18
BRANCH  10  20
ATOM     20  O   UNL     1       0.986   2.100  18.003  0.00  0.00    +0.000 OA
ATOM     21  H   UNL     1       0.229   1.632  18.420  0.00  0.00    +0.000 HD
ENDBRANCH  10  20
TORSDOF 3
ENDMDL
MODEL 9
REMARK VINA RESULT:      -7.1      2.211      6.060
REMARK  Name = 
REMARK  3 active torsions:
REMARK  status: ('A' for Active; 'I' for Inactive)
REMARK    1  A    between atoms: C_2  and  C_3
REMARK    2  A    between atoms: C_8  and  O_9
REMARK    3  A    between atoms: C_13  and  O_14
REMARK                            x       y       z     vdW  Elec       q    Type
REMARK                         _______ _______ _______ _____ _____    ______ ____
ROOT
ATOM      1  C   UNL     1       1.729   3.087  20.192  0.00  0.00    +0.000 A 
ATOM      2  C   UNL     1       0.905   3.057  19.062  0.00  0.00    +0.000 A 
ATOM      3  C   UNL     1       1.435   3.341  17.802  0.00  0.00    +0.000 A 
ATOM      4  C   UNL     1       2.797   3.649  17.650  0.00  0.00    +0.000 A 
ATOM      5  C   UNL     1       3.618   3.669  18.788  0.00  0.00    +0.000 A 
ATOM      6  C   UNL     1       3.084   3.393  20.060  0.00  0.00    +0.000 A 
ATOM      7  C   UNL     1       5.057   3.969  18.642  0.00  0.00    +0.000 C 
ATOM      8  O   UNL     1       5.779   3.983  19.639  0.00  0.00    +0.000 OA
ATOM      9  C   UNL     1       5.633   4.244  17.312  0.00  0.00    +0.000 A 
ATOM     10  C   UNL     1       7.005   4.509  17.180  0.00  0.00    +0.000 A 
ATOM     11  C   UNL     1       7.557   4.769  15.932  0.00  0.00    +0.000 A 
ATOM     12  C   UNL     1       6.742   4.766  14.803  0.00  0.00    +0.000 A 
ATOM     13  C   UNL     1       5.376   4.499  14.926  0.00  0.00    +0.000 A 
ATOM     14  C   UNL     1       4.806   4.234  16.183  0.00  0.00    +0.000 A 
ATOM     15  C   UNL     1       3.329   3.951  16.271  0.00  0.00    +0.000 C 
ENDROOT
BRANCH   1  17
ATOM     16  O   UNL     1       1.762   2.103  22.339  0.00  0.00    +0.000 OA
ATOM     17  C   UNL     1       1.159   2.789  21.522  0.00  0.00    +0.000 C 
ENDBRANCH   1  17
BRANCH   6  18
ATOM     18  O   UNL     1       3.859   3.409  21.193  0.00  0.00    +0.000 OA
ATOM     19  H   UNL     1       4.048   2.480  21.455  0.00  0.00    +0.000 HD
ENDBRANCH   6  18
BRANCH  10  20
ATOM     20  O   UNL     1       7.871   4.530  18.241  0.00  0.00    +0.000 OA
ATOM     21  H   UNL     1       7.386   4.878  19.021  0.00  0.00    +0.000 HD
ENDBRANCH  10  20
TORSDOF 3
ENDMDL
