MODEL 1
REMARK VINA RESULT:      -6.7      0.000      0.000
REMARK  Name = 
REMARK  5 active torsions:
REMARK  status: ('A' for Active; 'I' for Inactive)
REMARK    1  A    between atoms: C_1  and  N_2
REMARK    2  A    between atoms: N_2  and  C_15
REMARK    3  A    between atoms: C_3  and  C_5
REMARK    4  A    between atoms: C_5  and  O_6
REMARK    5  A    between atoms: O_6  and  C_7
REMARK                            x       y       z     vdW  Elec       q    Type
REMARK                         _______ _______ _______ _____ _____    ______ ____
ROOT
ATOM      1  C   UNL     1       5.450   4.318  19.322  0.00  0.00    +0.000 C 
ATOM      2  N   UNL     1       5.518   4.376  17.863  0.00  0.00    +0.000 N 
ATOM      3  C   UNL     1       4.542   3.717  17.084  0.00  0.00    +0.000 C 
ATOM      4  O   UNL     1       4.675   3.507  15.874  0.00  0.00    +0.000 OA
ENDROOT
BRANCH   2   5
ATOM      5  C   UNL     1       6.847   4.626  17.227  0.00  0.00    +0.000 C 
ATOM      6  C   UNL     1       6.883   5.862  16.299  0.00  0.00    +0.000 C 
ATOM      7  C   UNL     1       6.597   7.127  17.094  0.00  0.00    +0.000 C 
ATOM      8  C   UNL     1       7.706   7.366  18.110  0.00  0.00    +0.000 C 
ATOM      9  C   UNL     1       8.014   6.141  18.972  0.00  0.00    +0.000 C 
ATOM     10  C   UNL     1       8.032   4.810  18.210  0.00  0.00    +0.000 C 
ENDBRANCH   2   5
BRANCH   3  11
ATOM     11  C   UNL     1       3.269   3.214  17.750  0.00  0.00    +0.000 C 
BRANCH  11  12
ATOM     12  O   UNL     1       2.275   4.196  17.491  0.00  0.00    +0.000 OA
BRANCH  12  13
ATOM     13  C   UNL     1       2.142   5.223  18.381  0.00  0.00    +0.000 A 
ATOM     14  C   UNL     1       2.475   6.553  18.108  0.00  0.00    +0.000 A 
ATOM     15  C   UNL     1       2.321   7.535  19.091  0.00  0.00    +0.000 A 
ATOM     16  C   UNL     1       1.823   7.192  20.346  0.00  0.00    +0.000 A 
ATOM     17 CL   UNL     1       1.660   8.401  21.556  0.00  0.00    +0.000 Cl
ATOM     18  C   UNL     1       1.458   5.878  20.626  0.00  0.00    +0.000 A 
ATOM     19  C   UNL     1       1.611   4.901  19.639  0.00  0.00    +0.000 A 
ATOM     20 BR   UNL     1       1.095   3.122  20.071  0.00  0.00    +0.000 Br
ENDBRANCH  12  13
ENDBRANCH  11  12
ENDBRANCH   3  11
TORSDOF 4
ENDMDL
MODEL 2
REMARK VINA RESULT:      -6.5      3.737      5.594
REMARK  Name = 
REMARK  5 active torsions:
REMARK  status: ('A' for Active; 'I' for Inactive)
REMARK    1  A    between atoms: C_1  and  N_2
REMARK    2  A    between atoms: N_2  and  C_15
REMARK    3  A    between atoms: C_3  and  C_5
REMARK    4  A    between atoms: C_5  and  O_6
REMARK    5  A    between atoms: O_6  and  C_7
REMARK                            x       y       z     vdW  Elec       q    Type
REMARK                         _______ _______ _______ _____ _____    ______ ____
ROOT
ATOM      1  C   UNL     1       1.411   4.787  20.553  0.00  0.00    +0.000 C 
ATOM      2  N   UNL     1       2.159   5.550  19.554  0.00  0.00    +0.000 N 
ATOM      3  C   UNL     1       2.211   6.958  19.636  0.00  0.00    +0.000 C 
ATOM      4  O   UNL     1       2.597   7.673  18.705  0.00  0.00    +0.000 OA
ENDROOT
BRANCH   2   5
ATOM      5  C   UNL     1       2.374   4.933  18.210  0.00  0.00    +0.000 C 
ATOM      6  C   UNL     1       3.852   4.606  17.892  0.00  0.00    +0.000 C 
ATOM      7  C   UNL     1       4.387   3.576  18.873  0.00  0.00    +0.000 C 
ATOM      8  C   UNL     1       3.646   2.257  18.700  0.00  0.00    +0.000 C 
ATOM      9  C   UNL     1       2.125   2.407  18.717  0.00  0.00    +0.000 C 
ATOM     10  C   UNL     1       1.592   3.621  17.946  0.00  0.00    +0.000 C 
ENDBRANCH   2   5
BRANCH   3  11
ATOM     11  C   UNL     1       1.755   7.650  20.913  0.00  0.00    +0.000 C 
BRANCH  11  12
ATOM     12  O   UNL     1       0.406   8.035  20.691  0.00  0.00    +0.000 OA
BRANCH  12  13
ATOM     13  C   UNL     1      -0.055   9.151  21.330  0.00  0.00    +0.000 A 
ATOM     14  C   UNL     1      -0.320   9.224  22.701  0.00  0.00    +0.000 A 
ATOM     15  C   UNL     1      -0.808  10.407  23.264  0.00  0.00    +0.000 A 
ATOM     16  C   UNL     1      -1.023  11.523  22.459  0.00  0.00    +0.000 A 
ATOM     17 CL   UNL     1      -1.646  12.966  23.155  0.00  0.00    +0.000 Cl
ATOM     18  C   UNL     1      -0.737  11.479  21.098  0.00  0.00    +0.000 A 
ATOM     19  C   UNL     1      -0.246  10.295  20.541  0.00  0.00    +0.000 A 
ATOM     20 BR   UNL     1       0.132  10.287  18.676  0.00  0.00    +0.000 Br
ENDBRANCH  12  13
ENDBRANCH  11  12
ENDBRANCH   3  11
TORSDOF 4
ENDMDL
MODEL 3
REMARK VINA RESULT:      -6.3      4.519      6.045
REMARK  Name = 
REMARK  5 active torsions:
REMARK  status: ('A' for Active; 'I' for Inactive)
REMARK    1  A    between atoms: C_1  and  N_2
REMARK    2  A    between atoms: N_2  and  C_15
REMARK    3  A    between atoms: C_3  and  C_5
REMARK    4  A    between atoms: C_5  and  O_6
REMARK    5  A    between atoms: O_6  and  C_7
REMARK                            x       y       z     vdW  Elec       q    Type
REMARK                         _______ _______ _______ _____ _____    ______ ____
ROOT
ATOM      1  C   UNL     1       3.587   7.234  17.446  0.00  0.00    +0.000 C 
ATOM      2  N   UNL     1       2.781   6.952  18.633  0.00  0.00    +0.000 N 
ATOM      3  C   UNL     1       2.023   7.981  19.233  0.00  0.00    +0.000 C 
ATOM      4  O   UNL     1       1.533   7.886  20.363  0.00  0.00    +0.000 OA
ENDROOT
BRANCH   2   5
ATOM      5  C   UNL     1       3.179   5.801  19.500  0.00  0.00    +0.000 C 
ATOM      6  C   UNL     1       2.060   4.755  19.717  0.00  0.00    +0.000 C 
ATOM      7  C   UNL     1       1.670   4.117  18.393  0.00  0.00    +0.000 C 
ATOM      8  C   UNL     1       2.843   3.327  17.829  0.00  0.00    +0.000 C 
ATOM      9  C   UNL     1       4.146   4.126  17.779  0.00  0.00    +0.000 C 
ATOM     10  C   UNL     1       4.411   4.996  19.014  0.00  0.00    +0.000 C 
ENDBRANCH   2   5
BRANCH   3  11
ATOM     11  C   UNL     1       1.805   9.284  18.478  0.00  0.00    +0.000 C 
BRANCH  11  12
ATOM     12  O   UNL     1       0.932  10.064  19.283  0.00  0.00    +0.000 OA
BRANCH  12  13
ATOM     13  C   UNL     1      -0.295  10.384  18.774  0.00  0.00    +0.000 A 
ATOM     14  C   UNL     1      -0.846   9.814  17.623  0.00  0.00    +0.000 A 
ATOM     15  C   UNL     1      -2.103  10.219  17.166  0.00  0.00    +0.000 A 
ATOM     16  C   UNL     1      -2.818  11.189  17.866  0.00  0.00    +0.000 A 
ATOM     17 CL   UNL     1      -4.353  11.699  17.284  0.00  0.00    +0.000 Cl
ATOM     18  C   UNL     1      -2.299  11.746  19.031  0.00  0.00    +0.000 A 
ATOM     19  C   UNL     1      -1.044  11.335  19.484  0.00  0.00    +0.000 A 
ATOM     20 BR   UNL     1      -0.380  12.125  21.083  0.00  0.00    +0.000 Br
ENDBRANCH  12  13
ENDBRANCH  11  12
ENDBRANCH   3  11
TORSDOF 4
ENDMDL
MODEL 4
REMARK VINA RESULT:      -6.2      4.220      6.034
REMARK  Name = 
REMARK  5 active torsions:
REMARK  status: ('A' for Active; 'I' for Inactive)
REMARK    1  A    between atoms: C_1  and  N_2
REMARK    2  A    between atoms: N_2  and  C_15
REMARK    3  A    between atoms: C_3  and  C_5
REMARK    4  A    between atoms: C_5  and  O_6
REMARK    5  A    between atoms: O_6  and  C_7
REMARK                            x       y       z     vdW  Elec       q    Type
REMARK                         _______ _______ _______ _____ _____    ______ ____
ROOT
ATOM      1  C   UNL     1       2.868   5.821  17.665  0.00  0.00    +0.000 C 
ATOM      2  N   UNL     1       2.438   6.135  19.027  0.00  0.00    +0.000 N 
ATOM      3  C   UNL     1       2.123   7.465  19.378  0.00  0.00    +0.000 C 
ATOM      4  O   UNL     1       2.005   7.843  20.548  0.00  0.00    +0.000 OA
ENDROOT
BRANCH   2   5
ATOM      5  C   UNL     1       2.856   5.216  20.129  0.00  0.00    +0.000 C 
ATOM      6  C   UNL     1       1.679   4.566  20.893  0.00  0.00    +0.000 C 
ATOM      7  C   UNL     1       0.863   3.689  19.956  0.00  0.00    +0.000 C 
ATOM      8  C   UNL     1       1.708   2.521  19.466  0.00  0.00    +0.000 C 
ATOM      9  C   UNL     1       3.065   2.946  18.903  0.00  0.00    +0.000 C 
ATOM     10  C   UNL     1       3.776   4.043  19.706  0.00  0.00    +0.000 C 
ENDBRANCH   2   5
BRANCH   3  11
ATOM     11  C   UNL     1       1.936   8.503  18.281  0.00  0.00    +0.000 C 
BRANCH  11  12
ATOM     12  O   UNL     1       1.453   9.674  18.925  0.00  0.00    +0.000 OA
BRANCH  12  13
ATOM     13  C   UNL     1       0.173  10.071  18.658  0.00  0.00    +0.000 A 
ATOM     14  C   UNL     1      -0.579   9.631  17.565  0.00  0.00    +0.000 A 
ATOM     15  C   UNL     1      -1.877  10.107  17.363  0.00  0.00    +0.000 A 
ATOM     16  C   UNL     1      -2.431  11.017  18.260  0.00  0.00    +0.000 A 
ATOM     17 CL   UNL     1      -4.020  11.617  17.992  0.00  0.00    +0.000 Cl
ATOM     18  C   UNL     1      -1.709  11.444  19.371  0.00  0.00    +0.000 A 
ATOM     19  C   UNL     1      -0.413  10.962  19.569  0.00  0.00    +0.000 A 
ATOM     20 BR   UNL     1       0.532  11.574  21.103  0.00  0.00    +0.000 Br
ENDBRANCH  12  13
ENDBRANCH  11  12
ENDBRANCH   3  11
TORSDOF 4
ENDMDL
MODEL 5
REMARK VINA RESULT:      -6.1      4.508      5.706
REMARK  Name = 
REMARK  5 active torsions:
REMARK  status: ('A' for Active; 'I' for Inactive)
REMARK    1  A    between atoms: C_1  and  N_2
REMARK    2  A    between atoms: N_2  and  C_15
REMARK    3  A    between atoms: C_3  and  C_5
REMARK    4  A    between atoms: C_5  and  O_6
REMARK    5  A    between atoms: O_6  and  C_7
REMARK                            x       y       z     vdW  Elec       q    Type
REMARK                         _______ _______ _______ _____ _____    ______ ____
ROOT
ATOM      1  C   UNL     1       2.038   6.180  20.048  0.00  0.00    +0.000 C 
ATOM      2  N   UNL     1       2.617   6.818  18.866  0.00  0.00    +0.000 N 
ATOM      3  C   UNL     1       2.211   8.117  18.495  0.00  0.00    +0.000 C 
ATOM      4  O   UNL     1       2.456   8.610  17.389  0.00  0.00    +0.000 OA
ENDROOT
BRANCH   2   5
ATOM      5  C   UNL     1       3.173   5.941  17.791  0.00  0.00    +0.000 C 
ATOM      6  C   UNL     1       4.716   5.956  17.695  0.00  0.00    +0.000 C 
ATOM      7  C   UNL     1       5.330   5.420  18.978  0.00  0.00    +0.000 C 
ATOM      8  C   UNL     1       4.962   3.953  19.159  0.00  0.00    +0.000 C 
ATOM      9  C   UNL     1       3.464   3.681  19.020  0.00  0.00    +0.000 C 
ATOM     10  C   UNL     1       2.777   4.444  17.880  0.00  0.00    +0.000 C 
ENDBRANCH   2   5
BRANCH   3  11
ATOM     11  C   UNL     1       1.413   8.960  19.480  0.00  0.00    +0.000 C 
BRANCH  11  12
ATOM     12  O   UNL     1       1.112  10.174  18.805  0.00  0.00    +0.000 OA
BRANCH  12  13
ATOM     13  C   UNL     1      -0.203  10.491  18.612  0.00  0.00    +0.000 A 
ATOM     14  C   UNL     1      -1.026   9.899  17.649  0.00  0.00    +0.000 A 
ATOM     15  C   UNL     1      -2.357  10.302  17.514  0.00  0.00    +0.000 A 
ATOM     16  C   UNL     1      -2.873  11.291  18.348  0.00  0.00    +0.000 A 
ATOM     17 CL   UNL     1      -4.505  11.798  18.159  0.00  0.00    +0.000 Cl
ATOM     18  C   UNL     1      -2.078  11.870  19.332  0.00  0.00    +0.000 A 
ATOM     19  C   UNL     1      -0.749  11.461  19.466  0.00  0.00    +0.000 A 
ATOM     20 BR   UNL     1       0.295  12.283  20.828  0.00  0.00    +0.000 Br
ENDBRANCH  12  13
ENDBRANCH  11  12
ENDBRANCH   3  11
TORSDOF 4
ENDMDL
MODEL 6
REMARK VINA RESULT:      -6.1      2.905      5.672
REMARK  Name = 
REMARK  5 active torsions:
REMARK  status: ('A' for Active; 'I' for Inactive)
REMARK    1  A    between atoms: C_1  and  N_2
REMARK    2  A    between atoms: N_2  and  C_15
REMARK    3  A    between atoms: C_3  and  C_5
REMARK    4  A    between atoms: C_5  and  O_6
REMARK    5  A    between atoms: O_6  and  C_7
REMARK                            x       y       z     vdW  Elec       q    Type
REMARK                         _______ _______ _______ _____ _____    ______ ____
ROOT
ATOM      1  C   UNL     1       2.797   5.681  18.158  0.00  0.00    +0.000 C 
ATOM      2  N   UNL     1       2.424   4.272  18.272  0.00  0.00    +0.000 N 
ATOM      3  C   UNL     1       2.786   3.361  17.257  0.00  0.00    +0.000 C 
ATOM      4  O   UNL     1       2.295   2.232  17.157  0.00  0.00    +0.000 OA
ENDROOT
BRANCH   2   5
ATOM      5  C   UNL     1       1.242   3.920  19.117  0.00  0.00    +0.000 C 
ATOM      6  C   UNL     1       1.276   2.482  19.686  0.00  0.00    +0.000 C 
ATOM      7  C   UNL     1       2.470   2.308  20.611  0.00  0.00    +0.000 C 
ATOM      8  C   UNL     1       2.322   3.210  21.829  0.00  0.00    +0.000 C 
ATOM      9  C   UNL     1       2.011   4.665  21.474  0.00  0.00    +0.000 C 
ATOM     10  C   UNL     1       0.997   4.844  20.338  0.00  0.00    +0.000 C 
ENDBRANCH   2   5
BRANCH   3  11
ATOM     11  C   UNL     1       3.813   3.777  16.212  0.00  0.00    +0.000 C 
BRANCH  11  12
ATOM     12  O   UNL     1       5.081   3.410  16.738  0.00  0.00    +0.000 OA
BRANCH  12  13
ATOM     13  C   UNL     1       5.867   4.397  17.262  0.00  0.00    +0.000 A 
ATOM     14  C   UNL     1       5.996   4.662  18.628  0.00  0.00    +0.000 A 
ATOM     15  C   UNL     1       6.812   5.708  19.070  0.00  0.00    +0.000 A 
ATOM     16  C   UNL     1       7.510   6.483  18.147  0.00  0.00    +0.000 A 
ATOM     17 CL   UNL     1       8.492   7.782  18.698  0.00  0.00    +0.000 Cl
ATOM     18  C   UNL     1       7.417   6.215  16.785  0.00  0.00    +0.000 A 
ATOM     19  C   UNL     1       6.603   5.167  16.349  0.00  0.00    +0.000 A 
ATOM     20 BR   UNL     1       6.513   4.839  14.477  0.00  0.00    +0.000 Br
ENDBRANCH  12  13
ENDBRANCH  11  12
ENDBRANCH   3  11
TORSDOF 4
ENDMDL
MODEL 7
REMARK VINA RESULT:      -6.1      3.348      4.318
REMARK  Name = 
REMARK  5 active torsions:
REMARK  status: ('A' for Active; 'I' for Inactive)
REMARK    1  A    between atoms: C_1  and  N_2
REMARK    2  A    between atoms: N_2  and  C_15
REMARK    3  A    between atoms: C_3  and  C_5
REMARK    4  A    between atoms: C_5  and  O_6
REMARK    5  A    between atoms: O_6  and  C_7
REMARK                            x       y       z     vdW  Elec       q    Type
REMARK                         _______ _______ _______ _____ _____    ______ ____
ROOT
ATOM      1  C   UNL     1       4.040   5.235  19.758  0.00  0.00    +0.000 C 
ATOM      2  N   UNL     1       3.707   6.053  18.593  0.00  0.00    +0.000 N 
ATOM      3  C   UNL     1       2.580   6.902  18.625  0.00  0.00    +0.000 C 
ATOM      4  O   UNL     1       2.095   7.417  17.612  0.00  0.00    +0.000 OA
ENDROOT
BRANCH   2   5
ATOM      5  C   UNL     1       4.183   5.598  17.251  0.00  0.00    +0.000 C 
ATOM      6  C   UNL     1       4.949   6.678  16.451  0.00  0.00    +0.000 C 
ATOM      7  C   UNL     1       6.216   7.081  17.188  0.00  0.00    +0.000 C 
ATOM      8  C   UNL     1       7.172   5.899  17.267  0.00  0.00    +0.000 C 
ATOM      9  C   UNL     1       6.518   4.623  17.798  0.00  0.00    +0.000 C 
ATOM     10  C   UNL     1       5.108   4.354  17.259  0.00  0.00    +0.000 C 
ENDBRANCH   2   5
BRANCH   3  11
ATOM     11  C   UNL     1       1.901   7.192  19.957  0.00  0.00    +0.000 C 
BRANCH  11  12
ATOM     12  O   UNL     1       2.060   8.586  20.184  0.00  0.00    +0.000 OA
BRANCH  12  13
ATOM     13  C   UNL     1       1.144   9.214  20.979  0.00  0.00    +0.000 A 
ATOM     14  C   UNL     1       1.003   8.990  22.352  0.00  0.00    +0.000 A 
ATOM     15  C   UNL     1       0.023   9.668  23.081  0.00  0.00    +0.000 A 
ATOM     16  C   UNL     1      -0.814  10.580  22.442  0.00  0.00    +0.000 A 
ATOM     17 CL   UNL     1      -2.033  11.392  23.341  0.00  0.00    +0.000 Cl
ATOM     18  C   UNL     1      -0.669  10.839  21.082  0.00  0.00    +0.000 A 
ATOM     19  C   UNL     1       0.315  10.161  20.358  0.00  0.00    +0.000 A 
ATOM     20 BR   UNL     1       0.474  10.553  18.503  0.00  0.00    +0.000 Br
ENDBRANCH  12  13
ENDBRANCH  11  12
ENDBRANCH   3  11
TORSDOF 4
ENDMDL
MODEL 8
REMARK VINA RESULT:      -6.1      4.278      5.757
REMARK  Name = 
REMARK  5 active torsions:
REMARK  status: ('A' for Active; 'I' for Inactive)
REMARK    1  A    between atoms: C_1  and  N_2
REMARK    2  A    between atoms: N_2  and  C_15
REMARK    3  A    between atoms: C_3  and  C_5
REMARK    4  A    between atoms: C_5  and  O_6
REMARK    5  A    between atoms: O_6  and  C_7
REMARK                            x       y       z     vdW  Elec       q    Type
REMARK                         _______ _______ _______ _____ _____    ______ ____
ROOT
ATOM      1  C   UNL     1       1.899   5.515  20.529  0.00  0.00    +0.000 C 
ATOM      2  N   UNL     1       2.414   6.410  19.494  0.00  0.00    +0.000 N 
ATOM      3  C   UNL     1       2.035   7.770  19.485  0.00  0.00    +0.000 C 
ATOM      4  O   UNL     1       2.217   8.513  18.515  0.00  0.00    +0.000 OA
ENDROOT
BRANCH   2   5
ATOM      5  C   UNL     1       2.850   5.812  18.195  0.00  0.00    +0.000 C 
ATOM      6  C   UNL     1       4.345   6.031  17.867  0.00  0.00    +0.000 C 
ATOM      7  C   UNL     1       5.219   5.353  18.911  0.00  0.00    +0.000 C 
ATOM      8  C   UNL     1       5.022   3.844  18.857  0.00  0.00    +0.000 C 
ATOM      9  C   UNL     1       3.553   3.422  18.900  0.00  0.00    +0.000 C 
ATOM     10  C   UNL     1       2.612   4.287  18.051  0.00  0.00    +0.000 C 
ENDBRANCH   2   5
BRANCH   3  11
ATOM     11  C   UNL     1       1.349   8.363  20.708  0.00  0.00    +0.000 C 
BRANCH  11  12
ATOM     12  O   UNL     1       0.388   9.284  20.212  0.00  0.00    +0.000 OA
BRANCH  12  13
ATOM     13  C   UNL     1      -0.026  10.287  21.042  0.00  0.00    +0.000 A 
ATOM     14  C   UNL     1      -0.725  10.086  22.236  0.00  0.00    +0.000 A 
ATOM     15  C   UNL     1      -1.124  11.177  23.012  0.00  0.00    +0.000 A 
ATOM     16  C   UNL     1      -0.816  12.473  22.602  0.00  0.00    +0.000 A 
ATOM     17 CL   UNL     1      -1.332  13.810  23.551  0.00  0.00    +0.000 Cl
ATOM     18  C   UNL     1      -0.096  12.691  21.432  0.00  0.00    +0.000 A 
ATOM     19  C   UNL     1       0.304  11.596  20.662  0.00  0.00    +0.000 A 
ATOM     20 BR   UNL     1       1.290  11.948  19.073  0.00  0.00    +0.000 Br
ENDBRANCH  12  13
ENDBRANCH  11  12
ENDBRANCH   3  11
TORSDOF 4
ENDMDL
MODEL 9
REMARK VINA RESULT:      -6.1      3.787      5.553
REMARK  Name = 
REMARK  5 active torsions:
REMARK  status: ('A' for Active; 'I' for Inactive)
REMARK    1  A    between atoms: C_1  and  N_2
REMARK    2  A    between atoms: N_2  and  C_15
REMARK    3  A    between atoms: C_3  and  C_5
REMARK    4  A    between atoms: C_5  and  O_6
REMARK    5  A    between atoms: O_6  and  C_7
REMARK                            x       y       z     vdW  Elec       q    Type
REMARK                         _______ _______ _______ _____ _____    ______ ____
ROOT
ATOM      1  C   UNL     1       4.105   6.082  17.327  0.00  0.00    +0.000 C 
ATOM      2  N   UNL     1       3.161   6.016  18.442  0.00  0.00    +0.000 N 
ATOM      3  C   UNL     1       2.539   7.193  18.911  0.00  0.00    +0.000 C 
ATOM      4  O   UNL     1       1.942   7.256  19.991  0.00  0.00    +0.000 OA
ENDROOT
BRANCH   2   5
ATOM      5  C   UNL     1       3.279   4.875  19.401  0.00  0.00    +0.000 C 
ATOM      6  C   UNL     1       1.944   4.150  19.691  0.00  0.00    +0.000 C 
ATOM      7  C   UNL     1       1.398   3.522  18.418  0.00  0.00    +0.000 C 
ATOM      8  C   UNL     1       2.341   2.431  17.929  0.00  0.00    +0.000 C 
ATOM      9  C   UNL     1       3.797   2.886  17.828  0.00  0.00    +0.000 C 
ATOM     10  C   UNL     1       4.277   3.762  18.992  0.00  0.00    +0.000 C 
ENDBRANCH   2   5
BRANCH   3  11
ATOM     11  C   UNL     1       2.613   8.462  18.073  0.00  0.00    +0.000 C 
BRANCH  11  12
ATOM     12  O   UNL     1       1.436   9.200  18.371  0.00  0.00    +0.000 OA
BRANCH  12  13
ATOM     13  C   UNL     1       1.569  10.529  18.658  0.00  0.00    +0.000 A 
ATOM     14  C   UNL     1       2.337  11.426  17.910  0.00  0.00    +0.000 A 
ATOM     15  C   UNL     1       2.428  12.767  18.292  0.00  0.00    +0.000 A 
ATOM     16  C   UNL     1       1.742  13.218  19.418  0.00  0.00    +0.000 A 
ATOM     17 CL   UNL     1       1.878  14.864  19.895  0.00  0.00    +0.000 Cl
ATOM     18  C   UNL     1       0.949  12.346  20.158  0.00  0.00    +0.000 A 
ATOM     19  C   UNL     1       0.858  11.007  19.769  0.00  0.00    +0.000 A 
ATOM     20 BR   UNL     1      -0.241   9.857  20.812  0.00  0.00    +0.000 Br
ENDBRANCH  12  13
ENDBRANCH  11  12
ENDBRANCH   3  11
TORSDOF 4
ENDMDL
