MODEL 1
REMARK VINA RESULT:      -7.9      0.000      0.000
REMARK  Name = 
REMARK  9 active torsions:
REMARK  status: ('A' for Active; 'I' for Inactive)
REMARK    1  A    between atoms: C_4  and  C_5
REMARK    2  A    between atoms: C_5  and  N_6
REMARK    3  A    between atoms: C_9  and  N_10
REMARK    4  A    between atoms: N_10  and  C_11
REMARK    5  A    between atoms: C_11  and  C_12
REMARK    6  A    between atoms: C_12  and  C_13
REMARK    7  A    between atoms: C_13  and  C_14
REMARK    8  A    between atoms: C_14  and  C_15
REMARK    9  A    between atoms: C_15  and  N_16
REMARK                            x       y       z     vdW  Elec       q    Type
REMARK                         _______ _______ _______ _____ _____    ______ ____
ROOT
ATOM      1  N   UNL     1       7.642   6.914  17.244  0.00  0.00    +0.000 NA
ATOM      2  H   UNL     1       6.660   7.116  17.047  0.00  0.00    +0.000 HD
ENDROOT
BRANCH   1   6
ATOM      3  N   UNL     1       4.877   4.656  17.865  0.00  0.00    +0.000 NA
ATOM      4  C   UNL     1       5.667   4.645  16.618  0.00  0.00    +0.000 C 
ATOM      5  C   UNL     1       7.163   4.451  16.879  0.00  0.00    +0.000 C 
ATOM      6  C   UNL     1       7.726   5.543  17.795  0.00  0.00    +0.000 C 
ATOM      7  C   UNL     1       6.929   5.472  19.104  0.00  0.00    +0.000 C 
ATOM      8  C   UNL     1       5.434   5.611  18.837  0.00  0.00    +0.000 C 
BRANCH   3   9
ATOM      9  C   UNL     1       3.472   5.044  17.575  0.00  0.00    +0.000 C 
BRANCH   9  13
ATOM     10  C   UNL     1       0.530   3.068  20.042  0.00  0.00    +0.000 A 
ATOM     11  C   UNL     1       0.879   2.527  18.801  0.00  0.00    +0.000 A 
ATOM     12  C   UNL     1       1.839   3.167  18.010  0.00  0.00    +0.000 A 
ATOM     13  C   UNL     1       2.442   4.357  18.436  0.00  0.00    +0.000 A 
ATOM     14  C   UNL     1       2.081   4.889  19.682  0.00  0.00    +0.000 A 
ATOM     15  C   UNL     1       1.127   4.244  20.482  0.00  0.00    +0.000 A 
ENDBRANCH   9  13
ENDBRANCH   3   9
ENDBRANCH   1   6
BRANCH   1  16
ATOM     16  C   UNL     1       8.165   7.940  18.142  0.00  0.00    +0.000 C 
BRANCH  16  17
ATOM     17  C   UNL     1       7.894   9.357  17.623  0.00  0.00    +0.000 C 
BRANCH  17  18
ATOM     18  C   UNL     1       8.811  10.478  18.141  0.00  0.00    +0.000 C 
BRANCH  18  19
ATOM     19  C   UNL     1       9.370  10.437  19.578  0.00  0.00    +0.000 C 
BRANCH  19  20
ATOM     20  C   UNL     1      10.482  11.440  19.880  0.00  0.00    +0.000 C 
BRANCH  20  21
ATOM     21  N   UNL     1      10.129  12.850  19.688  0.00  0.00    +0.000 N 
ATOM     22  C   UNL     1       9.116  13.444  20.407  0.00  0.00    +0.000 A 
ATOM     23  C   UNL     1       8.518  14.356  19.564  0.00  0.00    +0.000 A 
ATOM     24  C   UNL     1       9.502  14.695  18.607  0.00  0.00    +0.000 A 
ATOM     25  C   UNL     1       9.636  15.784  17.724  0.00  0.00    +0.000 A 
ATOM     26  C   UNL     1      10.836  15.958  17.033  0.00  0.00    +0.000 A 
ATOM     27  C   UNL     1      11.849  15.011  17.143  0.00  0.00    +0.000 A 
ATOM     28  C   UNL     1      11.703  13.882  17.961  0.00  0.00    +0.000 A 
ATOM     29  C   UNL     1      10.534  13.749  18.717  0.00  0.00    +0.000 A 
ENDBRANCH  20  21
ENDBRANCH  19  20
ENDBRANCH  18  19
ENDBRANCH  17  18
ENDBRANCH  16  17
ENDBRANCH   1  16
TORSDOF 9
ENDMDL
MODEL 2
REMARK VINA RESULT:      -7.7      1.324      2.061
REMARK  Name = 
REMARK  9 active torsions:
REMARK  status: ('A' for Active; 'I' for Inactive)
REMARK    1  A    between atoms: C_4  and  C_5
REMARK    2  A    between atoms: C_5  and  N_6
REMARK    3  A    between atoms: C_9  and  N_10
REMARK    4  A    between atoms: N_10  and  C_11
REMARK    5  A    between atoms: C_11  and  C_12
REMARK    6  A    between atoms: C_12  and  C_13
REMARK    7  A    between atoms: C_13  and  C_14
REMARK    8  A    between atoms: C_14  and  C_15
REMARK    9  A    between atoms: C_15  and  N_16
REMARK                            x       y       z     vdW  Elec       q    Type
REMARK                         _______ _______ _______ _____ _____    ______ ____
ROOT
ATOM      1  N   UNL     1       7.251   5.995  16.982  0.00  0.00    +0.000 NA
ATOM      2  H   UNL     1       8.022   6.329  16.403  0.00  0.00    +0.000 HD
ENDROOT
BRANCH   1   6
ATOM      3  N   UNL     1       4.094   4.217  17.048  0.00  0.00    +0.000 NA
ATOM      4  C   UNL     1       4.444   5.282  18.009  0.00  0.00    +0.000 C 
ATOM      5  C   UNL     1       4.809   6.595  17.313  0.00  0.00    +0.000 C 
ATOM      6  C   UNL     1       5.983   6.418  16.344  0.00  0.00    +0.000 C 
ATOM      7  C   UNL     1       5.552   5.358  15.322  0.00  0.00    +0.000 C 
ATOM      8  C   UNL     1       5.136   4.068  16.020  0.00  0.00    +0.000 C 
BRANCH   3   9
ATOM      9  C   UNL     1       3.944   2.920  17.758  0.00  0.00    +0.000 C 
BRANCH   9  13
ATOM     10  C   UNL     1       1.239   3.026  21.122  0.00  0.00    +0.000 A 
ATOM     11  C   UNL     1       2.592   2.738  21.322  0.00  0.00    +0.000 A 
ATOM     12  C   UNL     1       3.465   2.714  20.230  0.00  0.00    +0.000 A 
ATOM     13  C   UNL     1       2.997   2.954  18.931  0.00  0.00    +0.000 A 
ATOM     14  C   UNL     1       1.637   3.239  18.745  0.00  0.00    +0.000 A 
ATOM     15  C   UNL     1       0.761   3.275  19.840  0.00  0.00    +0.000 A 
ENDBRANCH   9  13
ENDBRANCH   3   9
ENDBRANCH   1   6
BRANCH   1  16
ATOM     16  C   UNL     1       7.422   6.506  18.340  0.00  0.00    +0.000 C 
BRANCH  16  17
ATOM     17  C   UNL     1       8.393   7.691  18.394  0.00  0.00    +0.000 C 
BRANCH  17  18
ATOM     18  C   UNL     1       7.902   9.023  17.802  0.00  0.00    +0.000 C 
BRANCH  18  19
ATOM     19  C   UNL     1       8.443  10.367  18.333  0.00  0.00    +0.000 C 
BRANCH  19  20
ATOM     20  C   UNL     1       9.949  10.415  18.585  0.00  0.00    +0.000 C 
BRANCH  20  21
ATOM     21  N   UNL     1      10.447  11.652  19.196  0.00  0.00    +0.000 N 
ATOM     22  C   UNL     1      10.482  11.818  20.563  0.00  0.00    +0.000 A 
ATOM     23  C   UNL     1      10.214  13.148  20.804  0.00  0.00    +0.000 A 
ATOM     24  C   UNL     1      10.588  13.834  19.625  0.00  0.00    +0.000 A 
ATOM     25  C   UNL     1      10.881  15.186  19.363  0.00  0.00    +0.000 A 
ATOM     26  C   UNL     1      11.428  15.538  18.129  0.00  0.00    +0.000 A 
ATOM     27  C   UNL     1      11.591  14.577  17.136  0.00  0.00    +0.000 A 
ATOM     28  C   UNL     1      11.235  13.239  17.357  0.00  0.00    +0.000 A 
ATOM     29  C   UNL     1      10.763  12.869  18.620  0.00  0.00    +0.000 A 
ENDBRANCH  20  21
ENDBRANCH  19  20
ENDBRANCH  18  19
ENDBRANCH  17  18
ENDBRANCH  16  17
ENDBRANCH   1  16
TORSDOF 9
ENDMDL
MODEL 3
REMARK VINA RESULT:      -7.7      1.106      2.058
REMARK  Name = 
REMARK  9 active torsions:
REMARK  status: ('A' for Active; 'I' for Inactive)
REMARK    1  A    between atoms: C_4  and  C_5
REMARK    2  A    between atoms: C_5  and  N_6
REMARK    3  A    between atoms: C_9  and  N_10
REMARK    4  A    between atoms: N_10  and  C_11
REMARK    5  A    between atoms: C_11  and  C_12
REMARK    6  A    between atoms: C_12  and  C_13
REMARK    7  A    between atoms: C_13  and  C_14
REMARK    8  A    between atoms: C_14  and  C_15
REMARK    9  A    between atoms: C_15  and  N_16
REMARK                            x       y       z     vdW  Elec       q    Type
REMARK                         _______ _______ _______ _____ _____    ______ ____
ROOT
ATOM      1  N   UNL     1       7.478   6.614  16.416  0.00  0.00    +0.000 NA
ATOM      2  H   UNL     1       6.737   6.848  15.753  0.00  0.00    +0.000 HD
ENDROOT
BRANCH   1   6
ATOM      3  N   UNL     1       4.624   4.617  17.414  0.00  0.00    +0.000 NA
ATOM      4  C   UNL     1       5.020   4.818  16.006  0.00  0.00    +0.000 C 
ATOM      5  C   UNL     1       6.465   4.390  15.741  0.00  0.00    +0.000 C 
ATOM      6  C   UNL     1       7.455   5.149  16.631  0.00  0.00    +0.000 C 
ATOM      7  C   UNL     1       7.054   4.856  18.083  0.00  0.00    +0.000 C 
ATOM      8  C   UNL     1       5.597   5.233  18.331  0.00  0.00    +0.000 C 
BRANCH   3   9
ATOM      9  C   UNL     1       3.292   5.229  17.661  0.00  0.00    +0.000 C 
BRANCH   9  13
ATOM     10  C   UNL     1       0.670   2.889  20.171  0.00  0.00    +0.000 A 
ATOM     11  C   UNL     1       1.323   4.009  20.694  0.00  0.00    +0.000 A 
ATOM     12  C   UNL     1       2.164   4.767  19.874  0.00  0.00    +0.000 A 
ATOM     13  C   UNL     1       2.379   4.408  18.537  0.00  0.00    +0.000 A 
ATOM     14  C   UNL     1       1.719   3.282  18.026  0.00  0.00    +0.000 A 
ATOM     15  C   UNL     1       0.866   2.525  18.843  0.00  0.00    +0.000 A 
ENDBRANCH   9  13
ENDBRANCH   3   9
ENDBRANCH   1   6
BRANCH   1  16
ATOM     16  C   UNL     1       7.283   7.389  17.638  0.00  0.00    +0.000 C 
BRANCH  16  17
ATOM     17  C   UNL     1       7.840   8.812  17.517  0.00  0.00    +0.000 C 
BRANCH  17  18
ATOM     18  C   UNL     1       8.889   9.241  18.557  0.00  0.00    +0.000 C 
BRANCH  18  19
ATOM     19  C   UNL     1       9.191  10.735  18.800  0.00  0.00    +0.000 C 
BRANCH  19  20
ATOM     20  C   UNL     1      10.429  11.279  18.088  0.00  0.00    +0.000 C 
BRANCH  20  21
ATOM     21  N   UNL     1      10.368  12.694  17.710  0.00  0.00    +0.000 N 
ATOM     22  C   UNL     1      11.498  13.390  17.339  0.00  0.00    +0.000 A 
ATOM     23  C   UNL     1      11.334  14.678  17.801  0.00  0.00    +0.000 A 
ATOM     24  C   UNL     1       9.937  14.871  17.912  0.00  0.00    +0.000 A 
ATOM     25  C   UNL     1       9.139  16.028  17.988  0.00  0.00    +0.000 A 
ATOM     26  C   UNL     1       7.753  15.909  17.882  0.00  0.00    +0.000 A 
ATOM     27  C   UNL     1       7.164  14.651  17.801  0.00  0.00    +0.000 A 
ATOM     28  C   UNL     1       7.942  13.484  17.798  0.00  0.00    +0.000 A 
ATOM     29  C   UNL     1       9.334  13.606  17.821  0.00  0.00    +0.000 A 
ENDBRANCH  20  21
ENDBRANCH  19  20
ENDBRANCH  18  19
ENDBRANCH  17  18
ENDBRANCH  16  17
ENDBRANCH   1  16
TORSDOF 9
ENDMDL
MODEL 4
REMARK VINA RESULT:      -7.6      1.482      2.688
REMARK  Name = 
REMARK  9 active torsions:
REMARK  status: ('A' for Active; 'I' for Inactive)
REMARK    1  A    between atoms: C_4  and  C_5
REMARK    2  A    between atoms: C_5  and  N_6
REMARK    3  A    between atoms: C_9  and  N_10
REMARK    4  A    between atoms: N_10  and  C_11
REMARK    5  A    between atoms: C_11  and  C_12
REMARK    6  A    between atoms: C_12  and  C_13
REMARK    7  A    between atoms: C_13  and  C_14
REMARK    8  A    between atoms: C_14  and  C_15
REMARK    9  A    between atoms: C_15  and  N_16
REMARK                            x       y       z     vdW  Elec       q    Type
REMARK                         _______ _______ _______ _____ _____    ______ ____
ROOT
ATOM      1  N   UNL     1       6.968   6.269  16.573  0.00  0.00    +0.000 NA
ATOM      2  H   UNL     1       7.649   6.863  16.096  0.00  0.00    +0.000 HD
ENDROOT
BRANCH   1   6
ATOM      3  N   UNL     1       4.047   4.148  16.894  0.00  0.00    +0.000 NA
ATOM      4  C   UNL     1       4.279   5.340  17.734  0.00  0.00    +0.000 C 
ATOM      5  C   UNL     1       4.477   6.609  16.901  0.00  0.00    +0.000 C 
ATOM      6  C   UNL     1       5.651   6.471  15.926  0.00  0.00    +0.000 C 
ATOM      7  C   UNL     1       5.337   5.269  15.026  0.00  0.00    +0.000 C 
ATOM      8  C   UNL     1       5.087   4.017  15.861  0.00  0.00    +0.000 C 
BRANCH   3   9
ATOM      9  C   UNL     1       4.062   2.923  17.734  0.00  0.00    +0.000 C 
BRANCH   9  13
ATOM     10  C   UNL     1       1.171   2.920  20.943  0.00  0.00    +0.000 A 
ATOM     11  C   UNL     1       2.533   2.790  21.229  0.00  0.00    +0.000 A 
ATOM     12  C   UNL     1       3.465   2.800  20.186  0.00  0.00    +0.000 A 
ATOM     13  C   UNL     1       3.050   2.918  18.853  0.00  0.00    +0.000 A 
ATOM     14  C   UNL     1       1.681   3.047  18.581  0.00  0.00    +0.000 A 
ATOM     15  C   UNL     1       0.744   3.048  19.625  0.00  0.00    +0.000 A 
ENDBRANCH   9  13
ENDBRANCH   3   9
ENDBRANCH   1   6
BRANCH   1  16
ATOM     16  C   UNL     1       6.977   6.588  17.998  0.00  0.00    +0.000 C 
BRANCH  16  17
ATOM     17  C   UNL     1       8.210   7.404  18.401  0.00  0.00    +0.000 C 
BRANCH  17  18
ATOM     18  C   UNL     1       8.228   8.887  17.993  0.00  0.00    +0.000 C 
BRANCH  18  19
ATOM     19  C   UNL     1       8.921   9.941  18.883  0.00  0.00    +0.000 C 
BRANCH  19  20
ATOM     20  C   UNL     1      10.004  10.771  18.196  0.00  0.00    +0.000 C 
BRANCH  20  21
ATOM     21  N   UNL     1       9.943  12.215  18.441  0.00  0.00    +0.000 N 
ATOM     22  C   UNL     1      10.010  13.126  17.410  0.00  0.00    +0.000 A 
ATOM     23  C   UNL     1      10.692  14.220  17.896  0.00  0.00    +0.000 A 
ATOM     24  C   UNL     1      10.511  14.192  19.298  0.00  0.00    +0.000 A 
ATOM     25  C   UNL     1      10.650  15.176  20.296  0.00  0.00    +0.000 A 
ATOM     26  C   UNL     1      10.199  14.906  21.588  0.00  0.00    +0.000 A 
ATOM     27  C   UNL     1       9.707  13.644  21.907  0.00  0.00    +0.000 A 
ATOM     28  C   UNL     1       9.631  12.630  20.942  0.00  0.00    +0.000 A 
ATOM     29  C   UNL     1      10.006  12.924  19.628  0.00  0.00    +0.000 A 
ENDBRANCH  20  21
ENDBRANCH  19  20
ENDBRANCH  18  19
ENDBRANCH  17  18
ENDBRANCH  16  17
ENDBRANCH   1  16
TORSDOF 9
ENDMDL
MODEL 5
REMARK VINA RESULT:      -7.5      0.929      1.041
REMARK  Name = 
REMARK  9 active torsions:
REMARK  status: ('A' for Active; 'I' for Inactive)
REMARK    1  A    between atoms: C_4  and  C_5
REMARK    2  A    between atoms: C_5  and  N_6
REMARK    3  A    between atoms: C_9  and  N_10
REMARK    4  A    between atoms: N_10  and  C_11
REMARK    5  A    between atoms: C_11  and  C_12
REMARK    6  A    between atoms: C_12  and  C_13
REMARK    7  A    between atoms: C_13  and  C_14
REMARK    8  A    between atoms: C_14  and  C_15
REMARK    9  A    between atoms: C_15  and  N_16
REMARK                            x       y       z     vdW  Elec       q    Type
REMARK                         _______ _______ _______ _____ _____    ______ ____
ROOT
ATOM      1  N   UNL     1       6.903   7.578  17.344  0.00  0.00    +0.000 NA
ATOM      2  H   UNL     1       6.280   7.835  18.112  0.00  0.00    +0.000 HD
ENDROOT
BRANCH   1   6
ATOM      3  N   UNL     1       4.855   4.595  17.546  0.00  0.00    +0.000 NA
ATOM      4  C   UNL     1       5.514   5.043  16.302  0.00  0.00    +0.000 C 
ATOM      5  C   UNL     1       7.027   5.201  16.470  0.00  0.00    +0.000 C 
ATOM      6  C   UNL     1       7.375   6.195  17.583  0.00  0.00    +0.000 C 
ATOM      7  C   UNL     1       6.735   5.655  18.869  0.00  0.00    +0.000 C 
ATOM      8  C   UNL     1       5.236   5.448  18.684  0.00  0.00    +0.000 C 
BRANCH   3   9
ATOM      9  C   UNL     1       3.379   4.651  17.389  0.00  0.00    +0.000 C 
BRANCH   9  13
ATOM     10  C   UNL     1       1.169   3.069  20.745  0.00  0.00    +0.000 A 
ATOM     11  C   UNL     1       1.817   2.200  19.862  0.00  0.00    +0.000 A 
ATOM     12  C   UNL     1       2.538   2.719  18.782  0.00  0.00    +0.000 A 
ATOM     13  C   UNL     1       2.603   4.100  18.560  0.00  0.00    +0.000 A 
ATOM     14  C   UNL     1       1.948   4.960  19.452  0.00  0.00    +0.000 A 
ATOM     15  C   UNL     1       1.233   4.443  20.543  0.00  0.00    +0.000 A 
ENDBRANCH   9  13
ENDBRANCH   3   9
ENDBRANCH   1   6
BRANCH   1  16
ATOM     16  C   UNL     1       7.982   8.559  17.261  0.00  0.00    +0.000 C 
BRANCH  16  17
ATOM     17  C   UNL     1       8.649   8.803  18.619  0.00  0.00    +0.000 C 
BRANCH  17  18
ATOM     18  C   UNL     1       9.030  10.255  18.958  0.00  0.00    +0.000 C 
BRANCH  18  19
ATOM     19  C   UNL     1      10.011  11.041  18.063  0.00  0.00    +0.000 C 
BRANCH  19  20
ATOM     20  C   UNL     1      11.197  11.674  18.788  0.00  0.00    +0.000 C 
BRANCH  20  21
ATOM     21  N   UNL     1      11.012  13.067  19.205  0.00  0.00    +0.000 N 
ATOM     22  C   UNL     1      10.797  13.403  20.524  0.00  0.00    +0.000 A 
ATOM     23  C   UNL     1       9.937  14.480  20.519  0.00  0.00    +0.000 A 
ATOM     24  C   UNL     1      10.113  15.105  19.263  0.00  0.00    +0.000 A 
ATOM     25  C   UNL     1       9.804  16.395  18.790  0.00  0.00    +0.000 A 
ATOM     26  C   UNL     1      10.288  16.799  17.545  0.00  0.00    +0.000 A 
ATOM     27  C   UNL     1      10.985  15.903  16.742  0.00  0.00    +0.000 A 
ATOM     28  C   UNL     1      11.237  14.590  17.168  0.00  0.00    +0.000 A 
ATOM     29  C   UNL     1      10.823  14.210  18.448  0.00  0.00    +0.000 A 
ENDBRANCH  20  21
ENDBRANCH  19  20
ENDBRANCH  18  19
ENDBRANCH  17  18
ENDBRANCH  16  17
ENDBRANCH   1  16
TORSDOF 9
ENDMDL
MODEL 6
REMARK VINA RESULT:      -7.5      1.368      2.257
REMARK  Name = 
REMARK  9 active torsions:
REMARK  status: ('A' for Active; 'I' for Inactive)
REMARK    1  A    between atoms: C_4  and  C_5
REMARK    2  A    between atoms: C_5  and  N_6
REMARK    3  A    between atoms: C_9  and  N_10
REMARK    4  A    between atoms: N_10  and  C_11
REMARK    5  A    between atoms: C_11  and  C_12
REMARK    6  A    between atoms: C_12  and  C_13
REMARK    7  A    between atoms: C_13  and  C_14
REMARK    8  A    between atoms: C_14  and  C_15
REMARK    9  A    between atoms: C_15  and  N_16
REMARK                            x       y       z     vdW  Elec       q    Type
REMARK                         _______ _______ _______ _____ _____    ______ ____
ROOT
ATOM      1  N   UNL     1       6.734   4.905  17.967  0.00  0.00    +0.000 NA
ATOM      2  H   UNL     1       7.562   4.431  17.600  0.00  0.00    +0.000 HD
ENDROOT
BRANCH   1   6
ATOM      3  N   UNL     1       3.461   3.945  16.744  0.00  0.00    +0.000 NA
ATOM      4  C   UNL     1       3.676   5.040  17.711  0.00  0.00    +0.000 C 
ATOM      5  C   UNL     1       4.642   6.103  17.181  0.00  0.00    +0.000 C 
ATOM      6  C   UNL     1       6.006   5.502  16.824  0.00  0.00    +0.000 C 
ATOM      7  C   UNL     1       5.747   4.422  15.766  0.00  0.00    +0.000 C 
ATOM      8  C   UNL     1       4.743   3.393  16.275  0.00  0.00    +0.000 C 
BRANCH   3   9
ATOM      9  C   UNL     1       2.681   2.851  17.378  0.00  0.00    +0.000 C 
BRANCH   9  13
ATOM     10  C   UNL     1       1.909   3.396  21.592  0.00  0.00    +0.000 A 
ATOM     11  C   UNL     1       1.036   3.940  20.645  0.00  0.00    +0.000 A 
ATOM     12  C   UNL     1       1.287   3.752  19.282  0.00  0.00    +0.000 A 
ATOM     13  C   UNL     1       2.416   3.043  18.851  0.00  0.00    +0.000 A 
ATOM     14  C   UNL     1       3.283   2.505  19.811  0.00  0.00    +0.000 A 
ATOM     15  C   UNL     1       3.029   2.682  21.179  0.00  0.00    +0.000 A 
ENDBRANCH   9  13
ENDBRANCH   3   9
ENDBRANCH   1   6
BRANCH   1  16
ATOM     16  C   UNL     1       7.153   5.880  18.970  0.00  0.00    +0.000 C 
BRANCH  16  17
ATOM     17  C   UNL     1       8.161   6.890  18.410  0.00  0.00    +0.000 C 
BRANCH  17  18
ATOM     18  C   UNL     1       7.593   8.203  17.845  0.00  0.00    +0.000 C 
BRANCH  18  19
ATOM     19  C   UNL     1       8.402   9.514  17.935  0.00  0.00    +0.000 C 
BRANCH  19  20
ATOM     20  C   UNL     1       9.106   9.761  19.268  0.00  0.00    +0.000 C 
BRANCH  20  21
ATOM     21  N   UNL     1       9.528  11.144  19.512  0.00  0.00    +0.000 N 
ATOM     22  C   UNL     1       9.207  11.801  20.680  0.00  0.00    +0.000 A 
ATOM     23  C   UNL     1       9.003  13.122  20.344  0.00  0.00    +0.000 A 
ATOM     24  C   UNL     1       9.741  13.333  19.156  0.00  0.00    +0.000 A 
ATOM     25  C   UNL     1      10.212  14.500  18.524  0.00  0.00    +0.000 A 
ATOM     26  C   UNL     1      11.101  14.385  17.455  0.00  0.00    +0.000 A 
ATOM     27  C   UNL     1      11.440  13.129  16.960  0.00  0.00    +0.000 A 
ATOM     28  C   UNL     1      10.921  11.959  17.532  0.00  0.00    +0.000 A 
ATOM     29  C   UNL     1      10.095  12.070  18.655  0.00  0.00    +0.000 A 
ENDBRANCH  20  21
ENDBRANCH  19  20
ENDBRANCH  18  19
ENDBRANCH  17  18
ENDBRANCH  16  17
ENDBRANCH   1  16
TORSDOF 9
ENDMDL
MODEL 7
REMARK VINA RESULT:      -7.5      1.550      2.377
REMARK  Name = 
REMARK  9 active torsions:
REMARK  status: ('A' for Active; 'I' for Inactive)
REMARK    1  A    between atoms: C_4  and  C_5
REMARK    2  A    between atoms: C_5  and  N_6
REMARK    3  A    between atoms: C_9  and  N_10
REMARK    4  A    between atoms: N_10  and  C_11
REMARK    5  A    between atoms: C_11  and  C_12
REMARK    6  A    between atoms: C_12  and  C_13
REMARK    7  A    between atoms: C_13  and  C_14
REMARK    8  A    between atoms: C_14  and  C_15
REMARK    9  A    between atoms: C_15  and  N_16
REMARK                            x       y       z     vdW  Elec       q    Type
REMARK                         _______ _______ _______ _____ _____    ______ ____
ROOT
ATOM      1  N   UNL     1       7.240   5.839  17.064  0.00  0.00    +0.000 NA
ATOM      2  H   UNL     1       8.037   6.099  16.480  0.00  0.00    +0.000 HD
ENDROOT
BRANCH   1   6
ATOM      3  N   UNL     1       4.089   4.051  17.005  0.00  0.00    +0.000 NA
ATOM      4  C   UNL     1       4.388   5.133  17.963  0.00  0.00    +0.000 C 
ATOM      5  C   UNL     1       4.783   6.436  17.265  0.00  0.00    +0.000 C 
ATOM      6  C   UNL     1       6.004   6.247  16.357  0.00  0.00    +0.000 C 
ATOM      7  C   UNL     1       5.626   5.169  15.333  0.00  0.00    +0.000 C 
ATOM      8  C   UNL     1       5.181   3.888  16.031  0.00  0.00    +0.000 C 
BRANCH   3   9
ATOM      9  C   UNL     1       3.908   2.765  17.728  0.00  0.00    +0.000 C 
BRANCH   9  13
ATOM     10  C   UNL     1       1.223   2.977  21.104  0.00  0.00    +0.000 A 
ATOM     11  C   UNL     1       2.583   2.719  21.307  0.00  0.00    +0.000 A 
ATOM     12  C   UNL     1       3.448   2.661  20.210  0.00  0.00    +0.000 A 
ATOM     13  C   UNL     1       2.968   2.836  18.906  0.00  0.00    +0.000 A 
ATOM     14  C   UNL     1       1.602   3.091  18.717  0.00  0.00    +0.000 A 
ATOM     15  C   UNL     1       0.733   3.162  19.816  0.00  0.00    +0.000 A 
ENDBRANCH   9  13
ENDBRANCH   3   9
ENDBRANCH   1   6
BRANCH   1  16
ATOM     16  C   UNL     1       7.394   6.456  18.378  0.00  0.00    +0.000 C 
BRANCH  16  17
ATOM     17  C   UNL     1       8.383   7.627  18.356  0.00  0.00    +0.000 C 
BRANCH  17  18
ATOM     18  C   UNL     1       7.858   8.974  17.832  0.00  0.00    +0.000 C 
BRANCH  18  19
ATOM     19  C   UNL     1       8.667  10.271  18.043  0.00  0.00    +0.000 C 
BRANCH  19  20
ATOM     20  C   UNL     1       9.417  10.368  19.371  0.00  0.00    +0.000 C 
BRANCH  20  21
ATOM     21  N   UNL     1       9.597  11.725  19.896  0.00  0.00    +0.000 N 
ATOM     22  C   UNL     1      10.167  11.952  21.130  0.00  0.00    +0.000 A 
ATOM     23  C   UNL     1       9.530  13.053  21.660  0.00  0.00    +0.000 A 
ATOM     24  C   UNL     1       9.035  13.779  20.552  0.00  0.00    +0.000 A 
ATOM     25  C   UNL     1       8.616  15.115  20.400  0.00  0.00    +0.000 A 
ATOM     26  C   UNL     1       8.367  15.610  19.120  0.00  0.00    +0.000 A 
ATOM     27  C   UNL     1       8.438  14.764  18.017  0.00  0.00    +0.000 A 
ATOM     28  C   UNL     1       8.782  13.412  18.160  0.00  0.00    +0.000 A 
ATOM     29  C   UNL     1       9.111  12.935  19.433  0.00  0.00    +0.000 A 
ENDBRANCH  20  21
ENDBRANCH  19  20
ENDBRANCH  18  19
ENDBRANCH  17  18
ENDBRANCH  16  17
ENDBRANCH   1  16
TORSDOF 9
ENDMDL
MODEL 8
REMARK VINA RESULT:      -7.4      1.175      1.867
REMARK  Name = 
REMARK  9 active torsions:
REMARK  status: ('A' for Active; 'I' for Inactive)
REMARK    1  A    between atoms: C_4  and  C_5
REMARK    2  A    between atoms: C_5  and  N_6
REMARK    3  A    between atoms: C_9  and  N_10
REMARK    4  A    between atoms: N_10  and  C_11
REMARK    5  A    between atoms: C_11  and  C_12
REMARK    6  A    between atoms: C_12  and  C_13
REMARK    7  A    between atoms: C_13  and  C_14
REMARK    8  A    between atoms: C_14  and  C_15
REMARK    9  A    between atoms: C_15  and  N_16
REMARK                            x       y       z     vdW  Elec       q    Type
REMARK                         _______ _______ _______ _____ _____    ______ ____
ROOT
ATOM      1  N   UNL     1       7.645   6.955  17.213  0.00  0.00    +0.000 NA
ATOM      2  H   UNL     1       6.681   7.194  16.975  0.00  0.00    +0.000 HD
ENDROOT
BRANCH   1   6
ATOM      3  N   UNL     1       4.802   4.773  17.750  0.00  0.00    +0.000 NA
ATOM      4  C   UNL     1       5.495   4.896  16.452  0.00  0.00    +0.000 C 
ATOM      5  C   UNL     1       6.991   4.593  16.560  0.00  0.00    +0.000 C 
ATOM      6  C   UNL     1       7.687   5.517  17.566  0.00  0.00    +0.000 C 
ATOM      7  C   UNL     1       6.986   5.305  18.914  0.00  0.00    +0.000 C 
ATOM      8  C   UNL     1       5.487   5.555  18.792  0.00  0.00    +0.000 C 
BRANCH   3   9
ATOM      9  C   UNL     1       3.406   5.268  17.632  0.00  0.00    +0.000 C 
BRANCH   9  13
ATOM     10  C   UNL     1       0.544   3.127  20.057  0.00  0.00    +0.000 A 
ATOM     11  C   UNL     1       0.861   2.664  18.775  0.00  0.00    +0.000 A 
ATOM     12  C   UNL     1       1.794   3.357  17.999  0.00  0.00    +0.000 A 
ATOM     13  C   UNL     1       2.404   4.524  18.479  0.00  0.00    +0.000 A 
ATOM     14  C   UNL     1       2.076   4.977  19.764  0.00  0.00    +0.000 A 
ATOM     15  C   UNL     1       1.148   4.279  20.550  0.00  0.00    +0.000 A 
ENDBRANCH   9  13
ENDBRANCH   3   9
ENDBRANCH   1   6
BRANCH   1  16
ATOM     16  C   UNL     1       8.101   7.835  18.286  0.00  0.00    +0.000 C 
BRANCH  16  17
ATOM     17  C   UNL     1       8.208   9.295  17.831  0.00  0.00    +0.000 C 
BRANCH  17  18
ATOM     18  C   UNL     1       9.053  10.238  18.704  0.00  0.00    +0.000 C 
BRANCH  18  19
ATOM     19  C   UNL     1       9.926  11.336  18.062  0.00  0.00    +0.000 C 
BRANCH  19  20
ATOM     20  C   UNL     1       9.218  12.662  17.788  0.00  0.00    +0.000 C 
BRANCH  20  21
ATOM     21  N   UNL     1       9.518  13.743  18.731  0.00  0.00    +0.000 N 
ATOM     22  C   UNL     1      10.456  13.592  19.729  0.00  0.00    +0.000 A 
ATOM     23  C   UNL     1       9.995  14.306  20.813  0.00  0.00    +0.000 A 
ATOM     24  C   UNL     1       9.137  15.298  20.282  0.00  0.00    +0.000 A 
ATOM     25  C   UNL     1       8.649  16.512  20.802  0.00  0.00    +0.000 A 
ATOM     26  C   UNL     1       7.974  17.394  19.956  0.00  0.00    +0.000 A 
ATOM     27  C   UNL     1       7.704  17.031  18.640  0.00  0.00    +0.000 A 
ATOM     28  C   UNL     1       8.120  15.794  18.128  0.00  0.00    +0.000 A 
ATOM     29  C   UNL     1       8.867  14.944  18.950  0.00  0.00    +0.000 A 
ENDBRANCH  20  21
ENDBRANCH  19  20
ENDBRANCH  18  19
ENDBRANCH  17  18
ENDBRANCH  16  17
ENDBRANCH   1  16
TORSDOF 9
ENDMDL
MODEL 9
REMARK VINA RESULT:      -7.4      1.240      2.208
REMARK  Name = 
REMARK  9 active torsions:
REMARK  status: ('A' for Active; 'I' for Inactive)
REMARK    1  A    between atoms: C_4  and  C_5
REMARK    2  A    between atoms: C_5  and  N_6
REMARK    3  A    between atoms: C_9  and  N_10
REMARK    4  A    between atoms: N_10  and  C_11
REMARK    5  A    between atoms: C_11  and  C_12
REMARK    6  A    between atoms: C_12  and  C_13
REMARK    7  A    between atoms: C_13  and  C_14
REMARK    8  A    between atoms: C_14  and  C_15
REMARK    9  A    between atoms: C_15  and  N_16
REMARK                            x       y       z     vdW  Elec       q    Type
REMARK                         _______ _______ _______ _____ _____    ______ ____
ROOT
ATOM      1  N   UNL     1       7.455   7.178  17.775  0.00  0.00    +0.000 NA
ATOM      2  H   UNL     1       6.494   7.446  17.991  0.00  0.00    +0.000 HD
ENDROOT
BRANCH   1   6
ATOM      3  N   UNL     1       4.804   4.710  17.899  0.00  0.00    +0.000 NA
ATOM      4  C   UNL     1       5.614   4.970  16.692  0.00  0.00    +0.000 C 
ATOM      5  C   UNL     1       7.113   4.805  16.950  0.00  0.00    +0.000 C 
ATOM      6  C   UNL     1       7.603   5.733  18.066  0.00  0.00    +0.000 C 
ATOM      7  C   UNL     1       6.790   5.382  19.319  0.00  0.00    +0.000 C 
ATOM      8  C   UNL     1       5.294   5.495  19.044  0.00  0.00    +0.000 C 
BRANCH   3   9
ATOM      9  C   UNL     1       3.386   5.076  17.650  0.00  0.00    +0.000 C 
BRANCH   9  13
ATOM     10  C   UNL     1       0.514   2.864  19.996  0.00  0.00    +0.000 A 
ATOM     11  C   UNL     1       1.048   4.058  20.489  0.00  0.00    +0.000 A 
ATOM     12  C   UNL     1       1.971   4.775  19.721  0.00  0.00    +0.000 A 
ATOM     13  C   UNL     1       2.385   4.300  18.470  0.00  0.00    +0.000 A 
ATOM     14  C   UNL     1       1.843   3.100  17.989  0.00  0.00    +0.000 A 
ATOM     15  C   UNL     1       0.909   2.385  18.752  0.00  0.00    +0.000 A 
ENDBRANCH   9  13
ENDBRANCH   3   9
ENDBRANCH   1   6
BRANCH   1  16
ATOM     16  C   UNL     1       8.367   8.025  18.539  0.00  0.00    +0.000 C 
BRANCH  16  17
ATOM     17  C   UNL     1       8.384   9.469  18.023  0.00  0.00    +0.000 C 
BRANCH  17  18
ATOM     18  C   UNL     1       9.293  10.464  18.765  0.00  0.00    +0.000 C 
BRANCH  18  19
ATOM     19  C   UNL     1       9.971  11.625  18.008  0.00  0.00    +0.000 C 
BRANCH  19  20
ATOM     20  C   UNL     1      10.643  12.678  18.888  0.00  0.00    +0.000 C 
BRANCH  20  21
ATOM     21  N   UNL     1       9.740  13.656  19.504  0.00  0.00    +0.000 N 
ATOM     22  C   UNL     1       9.991  14.183  20.752  0.00  0.00    +0.000 A 
ATOM     23  C   UNL     1       8.765  14.367  21.354  0.00  0.00    +0.000 A 
ATOM     24  C   UNL     1       7.835  14.497  20.296  0.00  0.00    +0.000 A 
ATOM     25  C   UNL     1       6.533  15.029  20.234  0.00  0.00    +0.000 A 
ATOM     26  C   UNL     1       5.929  15.210  18.989  0.00  0.00    +0.000 A 
ATOM     27  C   UNL     1       6.570  14.778  17.832  0.00  0.00    +0.000 A 
ATOM     28  C   UNL     1       7.836  14.177  17.884  0.00  0.00    +0.000 A 
ATOM     29  C   UNL     1       8.477  14.070  19.123  0.00  0.00    +0.000 A 
ENDBRANCH  20  21
ENDBRANCH  19  20
ENDBRANCH  18  19
ENDBRANCH  17  18
ENDBRANCH  16  17
ENDBRANCH   1  16
TORSDOF 9
ENDMDL
