MODEL 1
REMARK VINA RESULT:      -7.6      0.000      0.000
REMARK  Name = 
REMARK  10 active torsions:
REMARK  status: ('A' for Active; 'I' for Inactive)
REMARK    1  A    between atoms: C_1  and  C_2
REMARK    2  A    between atoms: C_2  and  O_3
REMARK    3  A    between atoms: O_3  and  C_4
REMARK    4  A    between atoms: C_6  and  C_7
REMARK    5  A    between atoms: C_7  and  N_8
REMARK    6  A    between atoms: N_8  and  C_9
REMARK    7  A    between atoms: C_12  and  O_13
REMARK    8  A    between atoms: C_19  and  O_20
REMARK    9  A    between atoms: O_20  and  C_21
REMARK   10  A    between atoms: C_21  and  C_22
REMARK                            x       y       z     vdW  Elec       q    Type
REMARK                         _______ _______ _______ _____ _____    ______ ____
ROOT
ATOM      1  C   UNL     1       4.666   5.862  18.071  0.00  0.00    +0.000 A 
ATOM      2  C   UNL     1       5.760   6.695  18.369  0.00  0.00    +0.000 A 
ATOM      3  C   UNL     1       6.913   6.719  17.570  0.00  0.00    +0.000 A 
ATOM      4  C   UNL     1       6.953   5.917  16.430  0.00  0.00    +0.000 A 
ATOM      5  C   UNL     1       5.915   5.020  16.172  0.00  0.00    +0.000 A 
ATOM      6 BR   UNL     1       6.078   3.935  14.613  0.00  0.00    +0.000 Br
ATOM      7  C   UNL     1       4.800   4.921  17.032  0.00  0.00    +0.000 A 
ENDROOT
BRANCH   1   8
ATOM      8  O   UNL     1       3.590   6.108  18.896  0.00  0.00    +0.000 OA
BRANCH   8  10
ATOM      9  C   UNL     1       2.495   8.049  17.930  0.00  0.00    +0.000 C 
ATOM     10  C   UNL     1       2.368   6.601  18.332  0.00  0.00    +0.000 C 
ENDBRANCH   8  10
ENDBRANCH   1   8
BRANCH   3  11
ATOM     11  C   UNL     1       8.070   7.638  17.889  0.00  0.00    +0.000 C 
BRANCH  11  12
ATOM     12  N   UNL     1       7.665   9.013  17.637  0.00  0.00    +0.000 N 
ATOM     13  H   UNL     1       6.663   9.142  17.754  0.00  0.00    +0.000 HD
BRANCH  12  14
ATOM     14  C   UNL     1       8.393  10.053  18.226  0.00  0.00    +0.000 A 
ATOM     15  C   UNL     1       9.223   9.878  19.343  0.00  0.00    +0.000 A 
ATOM     16  C   UNL     1       9.992  10.931  19.852  0.00  0.00    +0.000 A 
ATOM     17  C   UNL     1       9.952  12.170  19.229  0.00  0.00    +0.000 A 
ATOM     18  C   UNL     1       9.169  12.365  18.100  0.00  0.00    +0.000 A 
ATOM     19  C   UNL     1       8.410  11.305  17.593  0.00  0.00    +0.000 A 
BRANCH  17  20
ATOM     20  O   UNL     1      10.683  13.223  19.690  0.00  0.00    +0.000 OA
ATOM     21  H   UNL     1      10.191  14.043  19.519  0.00  0.00    +0.000 HD
ENDBRANCH  17  20
ENDBRANCH  12  14
ENDBRANCH  11  12
ENDBRANCH   3  11
BRANCH   7  22
ATOM     22  O   UNL     1       3.956   3.871  16.759  0.00  0.00    +0.000 OA
BRANCH  22  23
ATOM     23  C   UNL     1       4.005   2.771  17.655  0.00  0.00    +0.000 C 
BRANCH  23  24
ATOM     24  C   UNL     1       3.000   2.735  18.760  0.00  0.00    +0.000 A 
ATOM     25  C   UNL     1       3.474   2.694  20.085  0.00  0.00    +0.000 A 
ATOM     26  C   UNL     1       2.605   2.809  21.150  0.00  0.00    +0.000 A 
ATOM     27  C   UNL     1       1.253   2.978  20.899  0.00  0.00    +0.000 A 
ATOM     28  C   UNL     1       0.768   3.018  19.584  0.00  0.00    +0.000 A 
ATOM     29  C   UNL     1       1.642   2.892  18.508  0.00  0.00    +0.000 A 
ENDBRANCH  23  24
ENDBRANCH  22  23
ENDBRANCH   7  22
TORSDOF 9
ENDMDL
MODEL 2
REMARK VINA RESULT:      -7.5      3.697      6.149
REMARK  Name = 
REMARK  10 active torsions:
REMARK  status: ('A' for Active; 'I' for Inactive)
REMARK    1  A    between atoms: C_1  and  C_2
REMARK    2  A    between atoms: C_2  and  O_3
REMARK    3  A    between atoms: O_3  and  C_4
REMARK    4  A    between atoms: C_6  and  C_7
REMARK    5  A    between atoms: C_7  and  N_8
REMARK    6  A    between atoms: N_8  and  C_9
REMARK    7  A    between atoms: C_12  and  O_13
REMARK    8  A    between atoms: C_19  and  O_20
REMARK    9  A    between atoms: O_20  and  C_21
REMARK   10  A    between atoms: C_21  and  C_22
REMARK                            x       y       z     vdW  Elec       q    Type
REMARK                         _______ _______ _______ _____ _____    ______ ____
ROOT
ATOM      1  C   UNL     1       2.431   5.368  20.110  0.00  0.00    +0.000 A 
ATOM      2  C   UNL     1       3.114   4.576  19.168  0.00  0.00    +0.000 A 
ATOM      3  C   UNL     1       3.489   5.077  17.912  0.00  0.00    +0.000 A 
ATOM      4  C   UNL     1       3.203   6.409  17.611  0.00  0.00    +0.000 A 
ATOM      5  C   UNL     1       2.446   7.177  18.497  0.00  0.00    +0.000 A 
ATOM      6 BR   UNL     1       2.070   8.973  17.980  0.00  0.00    +0.000 Br
ATOM      7  C   UNL     1       1.980   6.643  19.718  0.00  0.00    +0.000 A 
ENDROOT
BRANCH   1   8
ATOM      8  O   UNL     1       2.296   4.726  21.323  0.00  0.00    +0.000 OA
BRANCH   8  10
ATOM      9  C   UNL     1       1.338   2.527  21.707  0.00  0.00    +0.000 C 
ATOM     10  C   UNL     1       2.583   3.326  21.413  0.00  0.00    +0.000 C 
ENDBRANCH   8  10
ENDBRANCH   1   8
BRANCH   3  11
ATOM     11  C   UNL     1       4.245   4.224  16.921  0.00  0.00    +0.000 C 
BRANCH  11  12
ATOM     12  N   UNL     1       5.561   3.922  17.464  0.00  0.00    +0.000 N 
ATOM     13  H   UNL     1       6.026   3.181  16.945  0.00  0.00    +0.000 HD
BRANCH  12  14
ATOM     14  C   UNL     1       6.435   4.976  17.754  0.00  0.00    +0.000 A 
ATOM     15  C   UNL     1       6.644   6.063  16.892  0.00  0.00    +0.000 A 
ATOM     16  C   UNL     1       7.468   7.134  17.257  0.00  0.00    +0.000 A 
ATOM     17  C   UNL     1       8.076   7.135  18.504  0.00  0.00    +0.000 A 
ATOM     18  C   UNL     1       7.860   6.092  19.393  0.00  0.00    +0.000 A 
ATOM     19  C   UNL     1       7.028   5.029  19.024  0.00  0.00    +0.000 A 
BRANCH  17  20
ATOM     20  O   UNL     1       8.887   8.155  18.899  0.00  0.00    +0.000 OA
ATOM     21  H   UNL     1       8.517   8.992  18.574  0.00  0.00    +0.000 HD
ENDBRANCH  17  20
ENDBRANCH  12  14
ENDBRANCH  11  12
ENDBRANCH   3  11
BRANCH   7  22
ATOM     22  O   UNL     1       1.096   7.447  20.396  0.00  0.00    +0.000 OA
BRANCH  22  23
ATOM     23  C   UNL     1       1.644   8.275  21.411  0.00  0.00    +0.000 C 
BRANCH  23  24
ATOM     24  C   UNL     1       0.818   9.427  21.883  0.00  0.00    +0.000 A 
ATOM     25  C   UNL     1       0.846  10.615  21.127  0.00  0.00    +0.000 A 
ATOM     26  C   UNL     1      -0.005  11.660  21.423  0.00  0.00    +0.000 A 
ATOM     27  C   UNL     1      -0.898  11.524  22.473  0.00  0.00    +0.000 A 
ATOM     28  C   UNL     1      -0.934  10.347  23.234  0.00  0.00    +0.000 A 
ATOM     29  C   UNL     1      -0.070   9.294  22.944  0.00  0.00    +0.000 A 
ENDBRANCH  23  24
ENDBRANCH  22  23
ENDBRANCH   7  22
TORSDOF 9
ENDMDL
MODEL 3
REMARK VINA RESULT:      -7.4      3.778      7.238
REMARK  Name = 
REMARK  10 active torsions:
REMARK  status: ('A' for Active; 'I' for Inactive)
REMARK    1  A    between atoms: C_1  and  C_2
REMARK    2  A    between atoms: C_2  and  O_3
REMARK    3  A    between atoms: O_3  and  C_4
REMARK    4  A    between atoms: C_6  and  C_7
REMARK    5  A    between atoms: C_7  and  N_8
REMARK    6  A    between atoms: N_8  and  C_9
REMARK    7  A    between atoms: C_12  and  O_13
REMARK    8  A    between atoms: C_19  and  O_20
REMARK    9  A    between atoms: O_20  and  C_21
REMARK   10  A    between atoms: C_21  and  C_22
REMARK                            x       y       z     vdW  Elec       q    Type
REMARK                         _______ _______ _______ _____ _____    ______ ____
ROOT
ATOM      1  C   UNL     1       4.811   6.443  16.928  0.00  0.00    +0.000 A 
ATOM      2  C   UNL     1       4.021   7.464  17.490  0.00  0.00    +0.000 A 
ATOM      3  C   UNL     1       2.806   7.190  18.136  0.00  0.00    +0.000 A 
ATOM      4  C   UNL     1       2.394   5.862  18.251  0.00  0.00    +0.000 A 
ATOM      5  C   UNL     1       3.120   4.850  17.620  0.00  0.00    +0.000 A 
ATOM      6 BR   UNL     1       2.457   3.072  17.798  0.00  0.00    +0.000 Br
ATOM      7  C   UNL     1       4.289   5.136  16.882  0.00  0.00    +0.000 A 
ENDROOT
BRANCH   1   8
ATOM      8  O   UNL     1       6.025   6.918  16.480  0.00  0.00    +0.000 OA
BRANCH   8  10
ATOM      9  C   UNL     1       7.559   6.377  18.283  0.00  0.00    +0.000 C 
ATOM     10  C   UNL     1       6.960   7.459  17.421  0.00  0.00    +0.000 C 
ENDBRANCH   8  10
ENDBRANCH   1   8
BRANCH   3  11
ATOM     11  C   UNL     1       1.982   8.293  18.757  0.00  0.00    +0.000 C 
BRANCH  11  12
ATOM     12  N   UNL     1       1.813   8.016  20.176  0.00  0.00    +0.000 N 
ATOM     13  H   UNL     1       2.704   7.870  20.643  0.00  0.00    +0.000 HD
BRANCH  12  14
ATOM     14  C   UNL     1       0.961   8.832  20.930  0.00  0.00    +0.000 A 
ATOM     15  C   UNL     1       0.821   8.722  22.321  0.00  0.00    +0.000 A 
ATOM     16  C   UNL     1       0.016   9.610  23.044  0.00  0.00    +0.000 A 
ATOM     17  C   UNL     1      -0.642  10.634  22.378  0.00  0.00    +0.000 A 
ATOM     18  C   UNL     1      -0.494  10.791  21.008  0.00  0.00    +0.000 A 
ATOM     19  C   UNL     1       0.319   9.905  20.294  0.00  0.00    +0.000 A 
BRANCH  17  20
ATOM     20  O   UNL     1      -1.437  11.519  23.042  0.00  0.00    +0.000 OA
ATOM     21  H   UNL     1      -0.872  12.140  23.531  0.00  0.00    +0.000 HD
ENDBRANCH  17  20
ENDBRANCH  12  14
ENDBRANCH  11  12
ENDBRANCH   3  11
BRANCH   7  22
ATOM     22  O   UNL     1       4.789   4.076  16.164  0.00  0.00    +0.000 OA
BRANCH  22  23
ATOM     23  C   UNL     1       6.182   4.097  15.893  0.00  0.00    +0.000 C 
BRANCH  23  24
ATOM     24  C   UNL     1       6.606   4.141  14.461  0.00  0.00    +0.000 A 
ATOM     25  C   UNL     1       5.914   3.329  13.541  0.00  0.00    +0.000 A 
ATOM     26  C   UNL     1       6.155   3.434  12.187  0.00  0.00    +0.000 A 
ATOM     27  C   UNL     1       7.083   4.359  11.738  0.00  0.00    +0.000 A 
ATOM     28  C   UNL     1       7.780   5.171  12.644  0.00  0.00    +0.000 A 
ATOM     29  C   UNL     1       7.546   5.061  14.012  0.00  0.00    +0.000 A 
ENDBRANCH  23  24
ENDBRANCH  22  23
ENDBRANCH   7  22
TORSDOF 9
ENDMDL
MODEL 4
REMARK VINA RESULT:      -7.3      3.696      7.322
REMARK  Name = 
REMARK  10 active torsions:
REMARK  status: ('A' for Active; 'I' for Inactive)
REMARK    1  A    between atoms: C_1  and  C_2
REMARK    2  A    between atoms: C_2  and  O_3
REMARK    3  A    between atoms: O_3  and  C_4
REMARK    4  A    between atoms: C_6  and  C_7
REMARK    5  A    between atoms: C_7  and  N_8
REMARK    6  A    between atoms: N_8  and  C_9
REMARK    7  A    between atoms: C_12  and  O_13
REMARK    8  A    between atoms: C_19  and  O_20
REMARK    9  A    between atoms: O_20  and  C_21
REMARK   10  A    between atoms: C_21  and  C_22
REMARK                            x       y       z     vdW  Elec       q    Type
REMARK                         _______ _______ _______ _____ _____    ______ ____
ROOT
ATOM      1  C   UNL     1       4.661   6.366  16.942  0.00  0.00    +0.000 A 
ATOM      2  C   UNL     1       3.926   7.358  17.618  0.00  0.00    +0.000 A 
ATOM      3  C   UNL     1       2.782   7.051  18.370  0.00  0.00    +0.000 A 
ATOM      4  C   UNL     1       2.390   5.716  18.474  0.00  0.00    +0.000 A 
ATOM      5  C   UNL     1       3.055   4.734  17.737  0.00  0.00    +0.000 A 
ATOM      6 BR   UNL     1       2.420   2.945  17.911  0.00  0.00    +0.000 Br
ATOM      7  C   UNL     1       4.143   5.057  16.899  0.00  0.00    +0.000 A 
ENDROOT
BRANCH   1   8
ATOM      8  O   UNL     1       5.823   6.867  16.395  0.00  0.00    +0.000 OA
BRANCH   8  10
ATOM      9  C   UNL     1       7.583   6.308  17.971  0.00  0.00    +0.000 C 
ATOM     10  C   UNL     1       6.833   7.404  17.257  0.00  0.00    +0.000 C 
ENDBRANCH   8  10
ENDBRANCH   1   8
BRANCH   3  11
ATOM     11  C   UNL     1       2.018   8.123  19.110  0.00  0.00    +0.000 C 
BRANCH  11  12
ATOM     12  N   UNL     1       1.755   9.229  18.203  0.00  0.00    +0.000 N 
ATOM     13  H   UNL     1       1.835   8.949  17.229  0.00  0.00    +0.000 HD
BRANCH  12  14
ATOM     14  C   UNL     1       0.630  10.033  18.420  0.00  0.00    +0.000 A 
ATOM     15  C   UNL     1       0.657  11.207  19.186  0.00  0.00    +0.000 A 
ATOM     16  C   UNL     1      -0.475  12.021  19.312  0.00  0.00    +0.000 A 
ATOM     17  C   UNL     1      -1.644  11.674  18.651  0.00  0.00    +0.000 A 
ATOM     18  C   UNL     1      -1.691  10.538  17.856  0.00  0.00    +0.000 A 
ATOM     19  C   UNL     1      -0.554   9.734  17.728  0.00  0.00    +0.000 A 
BRANCH  17  20
ATOM     20  O   UNL     1      -2.769  12.435  18.747  0.00  0.00    +0.000 OA
ATOM     21  H   UNL     1      -2.509  13.369  18.816  0.00  0.00    +0.000 HD
ENDBRANCH  17  20
ENDBRANCH  12  14
ENDBRANCH  11  12
ENDBRANCH   3  11
BRANCH   7  22
ATOM     22  O   UNL     1       4.574   4.029  16.095  0.00  0.00    +0.000 OA
BRANCH  22  23
ATOM     23  C   UNL     1       5.957   4.016  15.772  0.00  0.00    +0.000 C 
BRANCH  23  24
ATOM     24  C   UNL     1       6.331   4.164  14.333  0.00  0.00    +0.000 A 
ATOM     25  C   UNL     1       7.367   5.062  14.008  0.00  0.00    +0.000 A 
ATOM     26  C   UNL     1       7.860   5.135  12.722  0.00  0.00    +0.000 A 
ATOM     27  C   UNL     1       7.329   4.303  11.750  0.00  0.00    +0.000 A 
ATOM     28  C   UNL     1       6.296   3.407  12.061  0.00  0.00    +0.000 A 
ATOM     29  C   UNL     1       5.789   3.338  13.355  0.00  0.00    +0.000 A 
ENDBRANCH  23  24
ENDBRANCH  22  23
ENDBRANCH   7  22
TORSDOF 9
ENDMDL
MODEL 5
REMARK VINA RESULT:      -7.2      3.759      7.182
REMARK  Name = 
REMARK  10 active torsions:
REMARK  status: ('A' for Active; 'I' for Inactive)
REMARK    1  A    between atoms: C_1  and  C_2
REMARK    2  A    between atoms: C_2  and  O_3
REMARK    3  A    between atoms: O_3  and  C_4
REMARK    4  A    between atoms: C_6  and  C_7
REMARK    5  A    between atoms: C_7  and  N_8
REMARK    6  A    between atoms: N_8  and  C_9
REMARK    7  A    between atoms: C_12  and  O_13
REMARK    8  A    between atoms: C_19  and  O_20
REMARK    9  A    between atoms: O_20  and  C_21
REMARK   10  A    between atoms: C_21  and  C_22
REMARK                            x       y       z     vdW  Elec       q    Type
REMARK                         _______ _______ _______ _____ _____    ______ ____
ROOT
ATOM      1  C   UNL     1       4.465   6.102  17.444  0.00  0.00    +0.000 A 
ATOM      2  C   UNL     1       3.792   6.814  18.455  0.00  0.00    +0.000 A 
ATOM      3  C   UNL     1       2.795   6.219  19.242  0.00  0.00    +0.000 A 
ATOM      4  C   UNL     1       2.492   4.873  19.032  0.00  0.00    +0.000 A 
ATOM      5  C   UNL     1       3.085   4.182  17.975  0.00  0.00    +0.000 A 
ATOM      6 BR   UNL     1       2.578   2.359  17.742  0.00  0.00    +0.000 Br
ATOM      7  C   UNL     1       4.015   4.809  17.117  0.00  0.00    +0.000 A 
ENDROOT
BRANCH   1   8
ATOM      8  O   UNL     1       5.502   6.832  16.902  0.00  0.00    +0.000 OA
BRANCH   8  10
ATOM      9  C   UNL     1       7.531   8.001  17.544  0.00  0.00    +0.000 C 
ATOM     10  C   UNL     1       6.824   6.673  17.429  0.00  0.00    +0.000 C 
ENDBRANCH   8  10
ENDBRANCH   1   8
BRANCH   3  11
ATOM     11  C   UNL     1       2.099   6.988  20.340  0.00  0.00    +0.000 C 
BRANCH  11  12
ATOM     12  N   UNL     1       1.587   8.235  19.794  0.00  0.00    +0.000 N 
ATOM     13  H   UNL     1       1.033   8.084  18.955  0.00  0.00    +0.000 HD
BRANCH  12  14
ATOM     14  C   UNL     1       0.979   9.155  20.656  0.00  0.00    +0.000 A 
ATOM     15  C   UNL     1       0.851  10.520  20.360  0.00  0.00    +0.000 A 
ATOM     16  C   UNL     1       0.167  11.390  21.218  0.00  0.00    +0.000 A 
ATOM     17  C   UNL     1      -0.417  10.892  22.374  0.00  0.00    +0.000 A 
ATOM     18  C   UNL     1      -0.339   9.540  22.675  0.00  0.00    +0.000 A 
ATOM     19  C   UNL     1       0.339   8.676  21.809  0.00  0.00    +0.000 A 
BRANCH  17  20
ATOM     20  O   UNL     1      -1.091  11.703  23.237  0.00  0.00    +0.000 OA
ATOM     21  H   UNL     1      -2.043  11.544  23.135  0.00  0.00    +0.000 HD
ENDBRANCH  17  20
ENDBRANCH  12  14
ENDBRANCH  11  12
ENDBRANCH   3  11
BRANCH   7  22
ATOM     22  O   UNL     1       4.369   4.068  16.015  0.00  0.00    +0.000 OA
BRANCH  22  23
ATOM     23  C   UNL     1       5.760   3.948  15.756  0.00  0.00    +0.000 C 
BRANCH  23  24
ATOM     24  C   UNL     1       6.223   4.180  14.355  0.00  0.00    +0.000 A 
ATOM     25  C   UNL     1       7.295   5.071  14.151  0.00  0.00    +0.000 A 
ATOM     26  C   UNL     1       7.867   5.215  12.904  0.00  0.00    +0.000 A 
ATOM     27  C   UNL     1       7.378   4.462  11.849  0.00  0.00    +0.000 A 
ATOM     28  C   UNL     1       6.310   3.574  12.038  0.00  0.00    +0.000 A 
ATOM     29  C   UNL     1       5.724   3.434  13.294  0.00  0.00    +0.000 A 
ENDBRANCH  23  24
ENDBRANCH  22  23
ENDBRANCH   7  22
TORSDOF 9
ENDMDL
MODEL 6
REMARK VINA RESULT:      -7.2      0.365      1.360
REMARK  Name = 
REMARK  10 active torsions:
REMARK  status: ('A' for Active; 'I' for Inactive)
REMARK    1  A    between atoms: C_1  and  C_2
REMARK    2  A    between atoms: C_2  and  O_3
REMARK    3  A    between atoms: O_3  and  C_4
REMARK    4  A    between atoms: C_6  and  C_7
REMARK    5  A    between atoms: C_7  and  N_8
REMARK    6  A    between atoms: N_8  and  C_9
REMARK    7  A    between atoms: C_12  and  O_13
REMARK    8  A    between atoms: C_19  and  O_20
REMARK    9  A    between atoms: O_20  and  C_21
REMARK   10  A    between atoms: C_21  and  C_22
REMARK                            x       y       z     vdW  Elec       q    Type
REMARK                         _______ _______ _______ _____ _____    ______ ____
ROOT
ATOM      1  C   UNL     1       4.540   6.050  17.952  0.00  0.00    +0.000 A 
ATOM      2  C   UNL     1       5.659   6.827  18.307  0.00  0.00    +0.000 A 
ATOM      3  C   UNL     1       6.883   6.716  17.629  0.00  0.00    +0.000 A 
ATOM      4  C   UNL     1       6.973   5.834  16.552  0.00  0.00    +0.000 A 
ATOM      5  C   UNL     1       5.901   4.993  16.248  0.00  0.00    +0.000 A 
ATOM      6 BR   UNL     1       6.133   3.792  14.786  0.00  0.00    +0.000 Br
ATOM      7  C   UNL     1       4.704   5.031  16.994  0.00  0.00    +0.000 A 
ENDROOT
BRANCH   1   8
ATOM      8  O   UNL     1       3.410   6.426  18.647  0.00  0.00    +0.000 OA
BRANCH   8  10
ATOM      9  C   UNL     1       1.998   8.394  18.828  0.00  0.00    +0.000 C 
ATOM     10  C   UNL     1       2.408   7.209  17.988  0.00  0.00    +0.000 C 
ENDBRANCH   8  10
ENDBRANCH   1   8
BRANCH   3  11
ATOM     11  C   UNL     1       8.068   7.575  18.004  0.00  0.00    +0.000 C 
BRANCH  11  12
ATOM     12  N   UNL     1       7.881   8.907  17.451  0.00  0.00    +0.000 N 
ATOM     13  H   UNL     1       6.904   9.098  17.241  0.00  0.00    +0.000 HD
BRANCH  12  14
ATOM     14  C   UNL     1       8.498   9.996  18.078  0.00  0.00    +0.000 A 
ATOM     15  C   UNL     1       8.380  11.317  17.622  0.00  0.00    +0.000 A 
ATOM     16  C   UNL     1       8.951  12.384  18.325  0.00  0.00    +0.000 A 
ATOM     17  C   UNL     1       9.631  12.137  19.509  0.00  0.00    +0.000 A 
ATOM     18  C   UNL     1       9.734  10.845  20.004  0.00  0.00    +0.000 A 
ATOM     19  C   UNL     1       9.154   9.785  19.300  0.00  0.00    +0.000 A 
BRANCH  17  20
ATOM     20  O   UNL     1      10.204  13.145  20.224  0.00  0.00    +0.000 OA
ATOM     21  H   UNL     1       9.612  13.383  20.956  0.00  0.00    +0.000 HD
ENDBRANCH  17  20
ENDBRANCH  12  14
ENDBRANCH  11  12
ENDBRANCH   3  11
BRANCH   7  22
ATOM     22  O   UNL     1       3.815   4.024  16.704  0.00  0.00    +0.000 OA
BRANCH  22  23
ATOM     23  C   UNL     1       3.808   2.913  17.588  0.00  0.00    +0.000 C 
BRANCH  23  24
ATOM     24  C   UNL     1       2.985   3.024  18.830  0.00  0.00    +0.000 A 
ATOM     25  C   UNL     1       1.601   3.245  18.690  0.00  0.00    +0.000 A 
ATOM     26  C   UNL     1       0.765   3.208  19.786  0.00  0.00    +0.000 A 
ATOM     27  C   UNL     1       1.304   2.939  21.034  0.00  0.00    +0.000 A 
ATOM     28  C   UNL     1       2.680   2.719  21.187  0.00  0.00    +0.000 A 
ATOM     29  C   UNL     1       3.528   2.766  20.084  0.00  0.00    +0.000 A 
ENDBRANCH  23  24
ENDBRANCH  22  23
ENDBRANCH   7  22
TORSDOF 9
ENDMDL
MODEL 7
REMARK VINA RESULT:      -7.2      3.652      7.075
REMARK  Name = 
REMARK  10 active torsions:
REMARK  status: ('A' for Active; 'I' for Inactive)
REMARK    1  A    between atoms: C_1  and  C_2
REMARK    2  A    between atoms: C_2  and  O_3
REMARK    3  A    between atoms: O_3  and  C_4
REMARK    4  A    between atoms: C_6  and  C_7
REMARK    5  A    between atoms: C_7  and  N_8
REMARK    6  A    between atoms: N_8  and  C_9
REMARK    7  A    between atoms: C_12  and  O_13
REMARK    8  A    between atoms: C_19  and  O_20
REMARK    9  A    between atoms: O_20  and  C_21
REMARK   10  A    between atoms: C_21  and  C_22
REMARK                            x       y       z     vdW  Elec       q    Type
REMARK                         _______ _______ _______ _____ _____    ______ ____
ROOT
ATOM      1  C   UNL     1       4.117   5.725  17.420  0.00  0.00    +0.000 A 
ATOM      2  C   UNL     1       3.336   6.308  18.435  0.00  0.00    +0.000 A 
ATOM      3  C   UNL     1       2.608   5.532  19.349  0.00  0.00    +0.000 A 
ATOM      4  C   UNL     1       2.695   4.142  19.263  0.00  0.00    +0.000 A 
ATOM      5  C   UNL     1       3.390   3.550  18.207  0.00  0.00    +0.000 A 
ATOM      6 BR   UNL     1       3.418   1.646  18.150  0.00  0.00    +0.000 Br
ATOM      7  C   UNL     1       4.039   4.332  17.227  0.00  0.00    +0.000 A 
ENDROOT
BRANCH   1   8
ATOM      8  O   UNL     1       4.859   6.663  16.736  0.00  0.00    +0.000 OA
BRANCH   8  10
ATOM      9  C   UNL     1       7.141   6.626  17.566  0.00  0.00    +0.000 C 
ATOM     10  C   UNL     1       5.861   7.413  17.433  0.00  0.00    +0.000 C 
ENDBRANCH   8  10
ENDBRANCH   1   8
BRANCH   3  11
ATOM     11  C   UNL     1       1.795   6.172  20.450  0.00  0.00    +0.000 C 
BRANCH  11  12
ATOM     12  N   UNL     1       2.276   7.528  20.666  0.00  0.00    +0.000 N 
ATOM     13  H   UNL     1       3.148   7.705  20.174  0.00  0.00    +0.000 HD
BRANCH  12  14
ATOM     14  C   UNL     1       1.381   8.595  20.534  0.00  0.00    +0.000 A 
ATOM     15  C   UNL     1       1.125   9.241  19.316  0.00  0.00    +0.000 A 
ATOM     16  C   UNL     1       0.165  10.254  19.216  0.00  0.00    +0.000 A 
ATOM     17  C   UNL     1      -0.567  10.615  20.337  0.00  0.00    +0.000 A 
ATOM     18  C   UNL     1      -0.364   9.970  21.548  0.00  0.00    +0.000 A 
ATOM     19  C   UNL     1       0.592   8.953  21.638  0.00  0.00    +0.000 A 
BRANCH  17  20
ATOM     20  O   UNL     1      -1.511  11.596  20.285  0.00  0.00    +0.000 OA
ATOM     21  H   UNL     1      -1.081  12.452  20.447  0.00  0.00    +0.000 HD
ENDBRANCH  17  20
ENDBRANCH  12  14
ENDBRANCH  11  12
ENDBRANCH   3  11
BRANCH   7  22
ATOM     22  O   UNL     1       4.519   3.622  16.152  0.00  0.00    +0.000 OA
BRANCH  22  23
ATOM     23  C   UNL     1       5.902   3.765  15.867  0.00  0.00    +0.000 C 
BRANCH  23  24
ATOM     24  C   UNL     1       6.287   4.074  14.456  0.00  0.00    +0.000 A 
ATOM     25  C   UNL     1       7.298   5.032  14.241  0.00  0.00    +0.000 A 
ATOM     26  C   UNL     1       7.803   5.253  12.977  0.00  0.00    +0.000 A 
ATOM     27  C   UNL     1       7.309   4.512  11.916  0.00  0.00    +0.000 A 
ATOM     28  C   UNL     1       6.302   3.557  12.117  0.00  0.00    +0.000 A 
ATOM     29  C   UNL     1       5.783   3.339  13.390  0.00  0.00    +0.000 A 
ENDBRANCH  23  24
ENDBRANCH  22  23
ENDBRANCH   7  22
TORSDOF 9
ENDMDL
MODEL 8
REMARK VINA RESULT:      -7.1      5.618      9.884
REMARK  Name = 
REMARK  10 active torsions:
REMARK  status: ('A' for Active; 'I' for Inactive)
REMARK    1  A    between atoms: C_1  and  C_2
REMARK    2  A    between atoms: C_2  and  O_3
REMARK    3  A    between atoms: O_3  and  C_4
REMARK    4  A    between atoms: C_6  and  C_7
REMARK    5  A    between atoms: C_7  and  N_8
REMARK    6  A    between atoms: N_8  and  C_9
REMARK    7  A    between atoms: C_12  and  O_13
REMARK    8  A    between atoms: C_19  and  O_20
REMARK    9  A    between atoms: O_20  and  C_21
REMARK   10  A    between atoms: C_21  and  C_22
REMARK                            x       y       z     vdW  Elec       q    Type
REMARK                         _______ _______ _______ _____ _____    ______ ____
ROOT
ATOM      1  C   UNL     1      -0.408  10.494  19.032  0.00  0.00    +0.000 A 
ATOM      2  C   UNL     1       0.598   9.647  18.531  0.00  0.00    +0.000 A 
ATOM      3  C   UNL     1       1.340   8.801  19.369  0.00  0.00    +0.000 A 
ATOM      4  C   UNL     1       1.041   8.780  20.732  0.00  0.00    +0.000 A 
ATOM      5  C   UNL     1       0.110   9.679  21.255  0.00  0.00    +0.000 A 
ATOM      6 BR   UNL     1      -0.202   9.604  23.134  0.00  0.00    +0.000 Br
ATOM      7  C   UNL     1      -0.565  10.602  20.427  0.00  0.00    +0.000 A 
ENDROOT
BRANCH   1   8
ATOM      8  O   UNL     1      -1.105  11.121  18.021  0.00  0.00    +0.000 OA
BRANCH   8  10
ATOM      9  C   UNL     1      -2.528  10.003  16.401  0.00  0.00    +0.000 C 
ATOM     10  C   UNL     1      -2.447  10.710  17.731  0.00  0.00    +0.000 C 
ENDBRANCH   8  10
ENDBRANCH   1   8
BRANCH   3  11
ATOM     11  C   UNL     1       2.400   7.879  18.814  0.00  0.00    +0.000 C 
BRANCH  11  12
ATOM     12  N   UNL     1       2.677   6.836  19.789  0.00  0.00    +0.000 N 
ATOM     13  H   UNL     1       2.472   7.138  20.738  0.00  0.00    +0.000 HD
BRANCH  12  14
ATOM     14  C   UNL     1       2.211   5.538  19.547  0.00  0.00    +0.000 A 
ATOM     15  C   UNL     1       1.590   4.747  20.525  0.00  0.00    +0.000 A 
ATOM     16  C   UNL     1       1.070   3.485  20.218  0.00  0.00    +0.000 A 
ATOM     17  C   UNL     1       1.149   3.010  18.917  0.00  0.00    +0.000 A 
ATOM     18  C   UNL     1       1.724   3.784  17.920  0.00  0.00    +0.000 A 
ATOM     19  C   UNL     1       2.235   5.049  18.233  0.00  0.00    +0.000 A 
BRANCH  17  20
ATOM     20  O   UNL     1       0.657   1.787  18.574  0.00  0.00    +0.000 OA
ATOM     21  H   UNL     1       0.663   1.217  19.360  0.00  0.00    +0.000 HD
ENDBRANCH  17  20
ENDBRANCH  12  14
ENDBRANCH  11  12
ENDBRANCH   3  11
BRANCH   7  22
ATOM     22  O   UNL     1      -1.304  11.544  21.101  0.00  0.00    +0.000 OA
BRANCH  22  23
ATOM     23  C   UNL     1      -0.606  12.698  21.545  0.00  0.00    +0.000 C 
BRANCH  23  24
ATOM     24  C   UNL     1       0.147  13.485  20.522  0.00  0.00    +0.000 A 
ATOM     25  C   UNL     1      -0.584  14.352  19.685  0.00  0.00    +0.000 A 
ATOM     26  C   UNL     1       0.064  15.215  18.825  0.00  0.00    +0.000 A 
ATOM     27  C   UNL     1       1.449  15.225  18.800  0.00  0.00    +0.000 A 
ATOM     28  C   UNL     1       2.187  14.365  19.625  0.00  0.00    +0.000 A 
ATOM     29  C   UNL     1       1.536  13.487  20.487  0.00  0.00    +0.000 A 
ENDBRANCH  23  24
ENDBRANCH  22  23
ENDBRANCH   7  22
TORSDOF 9
ENDMDL
MODEL 9
REMARK VINA RESULT:      -7.1      5.559      9.712
REMARK  Name = 
REMARK  10 active torsions:
REMARK  status: ('A' for Active; 'I' for Inactive)
REMARK    1  A    between atoms: C_1  and  C_2
REMARK    2  A    between atoms: C_2  and  O_3
REMARK    3  A    between atoms: O_3  and  C_4
REMARK    4  A    between atoms: C_6  and  C_7
REMARK    5  A    between atoms: C_7  and  N_8
REMARK    6  A    between atoms: N_8  and  C_9
REMARK    7  A    between atoms: C_12  and  O_13
REMARK    8  A    between atoms: C_19  and  O_20
REMARK    9  A    between atoms: O_20  and  C_21
REMARK   10  A    between atoms: C_21  and  C_22
REMARK                            x       y       z     vdW  Elec       q    Type
REMARK                         _______ _______ _______ _____ _____    ______ ____
ROOT
ATOM      1  C   UNL     1      -0.576  10.442  18.566  0.00  0.00    +0.000 A 
ATOM      2  C   UNL     1       0.474   9.578  18.203  0.00  0.00    +0.000 A 
ATOM      3  C   UNL     1       1.248   8.908  19.162  0.00  0.00    +0.000 A 
ATOM      4  C   UNL     1       0.937   9.080  20.511  0.00  0.00    +0.000 A 
ATOM      5  C   UNL     1      -0.041  10.002  20.889  0.00  0.00    +0.000 A 
ATOM      6 BR   UNL     1      -0.366  10.200  22.757  0.00  0.00    +0.000 Br
ATOM      7  C   UNL     1      -0.751  10.754  19.928  0.00  0.00    +0.000 A 
ENDROOT
BRANCH   1   8
ATOM      8  O   UNL     1      -1.293  10.872  17.470  0.00  0.00    +0.000 OA
BRANCH   8  10
ATOM      9  C   UNL     1      -3.406   9.679  17.583  0.00  0.00    +0.000 C 
ATOM     10  C   UNL     1      -2.154   9.954  16.787  0.00  0.00    +0.000 C 
ENDBRANCH   8  10
ENDBRANCH   1   8
BRANCH   3  11
ATOM     11  C   UNL     1       2.356   7.965  18.757  0.00  0.00    +0.000 C 
BRANCH  11  12
ATOM     12  N   UNL     1       2.538   6.970  19.804  0.00  0.00    +0.000 N 
ATOM     13  H   UNL     1       2.206   7.303  20.706  0.00  0.00    +0.000 HD
BRANCH  12  14
ATOM     14  C   UNL     1       2.142   5.650  19.562  0.00  0.00    +0.000 A 
ATOM     15  C   UNL     1       1.549   4.832  20.535  0.00  0.00    +0.000 A 
ATOM     16  C   UNL     1       1.099   3.543  20.227  0.00  0.00    +0.000 A 
ATOM     17  C   UNL     1       1.220   3.068  18.930  0.00  0.00    +0.000 A 
ATOM     18  C   UNL     1       1.769   3.866  17.937  0.00  0.00    +0.000 A 
ATOM     19  C   UNL     1       2.209   5.156  18.250  0.00  0.00    +0.000 A 
BRANCH  17  20
ATOM     20  O   UNL     1       0.797   1.819  18.587  0.00  0.00    +0.000 OA
ATOM     21  H   UNL     1       0.000   1.900  18.036  0.00  0.00    +0.000 HD
ENDBRANCH  17  20
ENDBRANCH  12  14
ENDBRANCH  11  12
ENDBRANCH   3  11
BRANCH   7  22
ATOM     22  O   UNL     1      -1.541  11.751  20.449  0.00  0.00    +0.000 OA
BRANCH  22  23
ATOM     23  C   UNL     1      -1.318  13.060  19.949  0.00  0.00    +0.000 C 
BRANCH  23  24
ATOM     24  C   UNL     1       0.093  13.551  19.905  0.00  0.00    +0.000 A 
ATOM     25  C   UNL     1       0.797  13.654  21.121  0.00  0.00    +0.000 A 
ATOM     26  C   UNL     1       2.143  13.955  21.134  0.00  0.00    +0.000 A 
ATOM     27  C   UNL     1       2.801  14.147  19.930  0.00  0.00    +0.000 A 
ATOM     28  C   UNL     1       2.111  14.050  18.714  0.00  0.00    +0.000 A 
ATOM     29  C   UNL     1       0.750  13.755  18.697  0.00  0.00    +0.000 A 
ENDBRANCH  23  24
ENDBRANCH  22  23
ENDBRANCH   7  22
TORSDOF 9
ENDMDL
