MODEL 1
REMARK VINA RESULT:      -7.5      0.000      0.000
REMARK  Name = 
REMARK  17 active torsions:
REMARK  status: ('A' for Active; 'I' for Inactive)
REMARK    1  A    between atoms: C_1  and  O_2
REMARK    2  A    between atoms: O_2  and  C_3
REMARK    3  A    between atoms: C_3  and  C_5
REMARK    4  A    between atoms: C_5  and  N_6
REMARK    5  A    between atoms: C_5  and  C_29
REMARK    6  A    between atoms: C_7  and  C_9
REMARK    7  A    between atoms: C_9  and  C_10
REMARK    8  A    between atoms: C_10  and  C_11
REMARK    9  A    between atoms: C_11  and  C_12
REMARK   10  A    between atoms: C_13  and  C_14
REMARK   11  A    between atoms: C_14  and  C_15
REMARK   12  A    between atoms: C_16  and  O_17
REMARK   13  A    between atoms: C_20  and  C_21
REMARK   14  A    between atoms: C_22  and  O_23
REMARK   15  A    between atoms: O_23  and  C_24
REMARK   16  A    between atoms: C_29  and  O_31
REMARK   17  A    between atoms: O_31  and  C_32
REMARK                            x       y       z     vdW  Elec       q    Type
REMARK                         _______ _______ _______ _____ _____    ______ ____
ROOT
ATOM      1  C   UNL     1       2.193   7.417  19.201  0.00  0.00    +0.000 C 
ATOM      2  C   UNL     1       2.798   8.002  17.947  0.00  0.00    +0.000 C 
ATOM      3  C   UNL     1       1.507   8.171  20.088  0.00  0.00    +0.000 C 
ENDROOT
BRANCH   1   4
ATOM      4  C   UNL     1       2.500   5.948  19.438  0.00  0.00    +0.000 C 
BRANCH   4   5
ATOM      5  C   UNL     1       2.548   5.031  18.213  0.00  0.00    +0.000 C 
BRANCH   5   7
ATOM      6  N   UNL     1       4.711   4.995  17.097  0.00  0.00    +0.000 N 
ATOM      7  C   UNL     1       3.910   4.398  18.040  0.00  0.00    +0.000 C 
ATOM      8  O   UNL     1       4.267   3.417  18.682  0.00  0.00    +0.000 OA
ATOM      9  H   UNL     1       4.325   5.686  16.466  0.00  0.00    +0.000 HD
BRANCH   6  10
ATOM     10  C   UNL     1       6.028   4.440  16.760  0.00  0.00    +0.000 C 
BRANCH  10  11
ATOM     11  C   UNL     1       7.046   5.013  17.727  0.00  0.00    +0.000 C 
ATOM     12  O   UNL     1       8.020   4.390  18.144  0.00  0.00    +0.000 OA
BRANCH  11  14
ATOM     13  C   UNL     1       7.861   7.175  18.143  0.00  0.00    +0.000 C 
ATOM     14  O   UNL     1       6.738   6.296  18.061  0.00  0.00    +0.000 OA
ENDBRANCH  11  14
ENDBRANCH  10  11
BRANCH  10  15
ATOM     15  C   UNL     1       6.467   4.720  15.323  0.00  0.00    +0.000 C 
ATOM     16  O   UNL     1       7.526   5.268  15.035  0.00  0.00    +0.000 OA
BRANCH  15  17
ATOM     17  O   UNL     1       5.560   4.287  14.408  0.00  0.00    +0.000 OA
ATOM     18  C   UNL     1       6.145   3.742  13.223  0.00  0.00    +0.000 C 
ENDBRANCH  15  17
ENDBRANCH  10  15
ENDBRANCH   6  10
ENDBRANCH   5   7
ENDBRANCH   4   5
ENDBRANCH   1   4
BRANCH   3  19
ATOM     19  C   UNL     1       1.553   9.670  20.188  0.00  0.00    +0.000 C 
BRANCH  19  20
ATOM     20  C   UNL     1       0.251  10.438  20.214  0.00  0.00    +0.000 A 
ATOM     21  C   UNL     1      -0.455  10.613  18.996  0.00  0.00    +0.000 A 
ATOM     22  C   UNL     1      -1.678  11.268  18.988  0.00  0.00    +0.000 A 
ATOM     23  C   UNL     1      -2.231  11.782  20.136  0.00  0.00    +0.000 A 
ATOM     24  C   UNL     1      -1.572  11.670  21.357  0.00  0.00    +0.000 A 
ATOM     25  C   UNL     1      -2.189  12.229  22.611  0.00  0.00    +0.000 C 
ATOM     26  C   UNL     1      -0.314  11.004  21.393  0.00  0.00    +0.000 A 
ATOM     27  C   UNL     1      -3.547  12.371  19.808  0.00  0.00    +0.000 C 
ATOM     28  O   UNL     1      -3.657  12.192  18.384  0.00  0.00    +0.000 OA
ATOM     29  C   UNL     1      -2.575  11.544  17.860  0.00  0.00    +0.000 C 
ATOM     30  O   UNL     1      -2.415  11.294  16.687  0.00  0.00    +0.000 OA
BRANCH  21  31
ATOM     31  O   UNL     1      -0.001  10.113  17.808  0.00  0.00    +0.000 OA
ATOM     32  H   UNL     1      -0.703  10.156  17.140  0.00  0.00    +0.000 HD
ENDBRANCH  21  31
BRANCH  26  33
ATOM     33  O   UNL     1       0.179  10.819  22.663  0.00  0.00    +0.000 OA
ATOM     34  C   UNL     1      -0.074   9.584  23.322  0.00  0.00    +0.000 C 
ENDBRANCH  26  33
ENDBRANCH  19  20
ENDBRANCH   3  19
TORSDOF 12
ENDMDL
MODEL 2
REMARK VINA RESULT:      -7.3      4.650      8.603
REMARK  Name = 
REMARK  17 active torsions:
REMARK  status: ('A' for Active; 'I' for Inactive)
REMARK    1  A    between atoms: C_1  and  O_2
REMARK    2  A    between atoms: O_2  and  C_3
REMARK    3  A    between atoms: C_3  and  C_5
REMARK    4  A    between atoms: C_5  and  N_6
REMARK    5  A    between atoms: C_5  and  C_29
REMARK    6  A    between atoms: C_7  and  C_9
REMARK    7  A    between atoms: C_9  and  C_10
REMARK    8  A    between atoms: C_10  and  C_11
REMARK    9  A    between atoms: C_11  and  C_12
REMARK   10  A    between atoms: C_13  and  C_14
REMARK   11  A    between atoms: C_14  and  C_15
REMARK   12  A    between atoms: C_16  and  O_17
REMARK   13  A    between atoms: C_20  and  C_21
REMARK   14  A    between atoms: C_22  and  O_23
REMARK   15  A    between atoms: O_23  and  C_24
REMARK   16  A    between atoms: C_29  and  O_31
REMARK   17  A    between atoms: O_31  and  C_32
REMARK                            x       y       z     vdW  Elec       q    Type
REMARK                         _______ _______ _______ _____ _____    ______ ____
ROOT
ATOM      1  C   UNL     1       7.085   7.088  17.825  0.00  0.00    +0.000 C 
ATOM      2  C   UNL     1       7.378   5.832  18.611  0.00  0.00    +0.000 C 
ATOM      3  C   UNL     1       5.959   7.233  17.093  0.00  0.00    +0.000 C 
ENDROOT
BRANCH   1   4
ATOM      4  C   UNL     1       8.195   8.127  17.837  0.00  0.00    +0.000 C 
BRANCH   4   5
ATOM      5  C   UNL     1       7.780   9.601  17.862  0.00  0.00    +0.000 C 
BRANCH   5   7
ATOM      6  N   UNL     1       8.930  11.736  18.061  0.00  0.00    +0.000 N 
ATOM      7  C   UNL     1       8.811  10.461  18.556  0.00  0.00    +0.000 C 
ATOM      8  O   UNL     1       9.500  10.047  19.482  0.00  0.00    +0.000 OA
ATOM      9  H   UNL     1       8.478  11.988  17.191  0.00  0.00    +0.000 HD
BRANCH   6  10
ATOM     10  C   UNL     1       9.949  12.659  18.578  0.00  0.00    +0.000 C 
BRANCH  10  11
ATOM     11  C   UNL     1       9.437  14.076  18.405  0.00  0.00    +0.000 C 
ATOM     12  O   UNL     1      10.104  14.992  17.930  0.00  0.00    +0.000 OA
BRANCH  11  14
ATOM     13  C   UNL     1       7.345  15.092  18.081  0.00  0.00    +0.000 C 
ATOM     14  O   UNL     1       8.151  14.190  18.840  0.00  0.00    +0.000 OA
ENDBRANCH  11  14
ENDBRANCH  10  11
BRANCH  10  15
ATOM     15  C   UNL     1      11.312  12.517  17.901  0.00  0.00    +0.000 C 
ATOM     16  O   UNL     1      11.462  12.479  16.684  0.00  0.00    +0.000 OA
BRANCH  15  17
ATOM     17  O   UNL     1      12.333  12.450  18.797  0.00  0.00    +0.000 OA
ATOM     18  C   UNL     1      11.920  12.109  20.123  0.00  0.00    +0.000 C 
ENDBRANCH  15  17
ENDBRANCH  10  15
ENDBRANCH   6  10
ENDBRANCH   5   7
ENDBRANCH   4   5
ENDBRANCH   1   4
BRANCH   3  19
ATOM     19  C   UNL     1       5.053   6.121  16.643  0.00  0.00    +0.000 C 
BRANCH  19  20
ATOM     20  C   UNL     1       4.121   5.488  17.651  0.00  0.00    +0.000 A 
ATOM     21  C   UNL     1       4.112   4.075  17.769  0.00  0.00    +0.000 A 
ATOM     22  C   UNL     1       3.307   3.460  18.717  0.00  0.00    +0.000 A 
ATOM     23  C   UNL     1       2.486   4.185  19.548  0.00  0.00    +0.000 A 
ATOM     24  C   UNL     1       2.427   5.573  19.458  0.00  0.00    +0.000 A 
ATOM     25  C   UNL     1       1.530   6.359  20.378  0.00  0.00    +0.000 C 
ATOM     26  C   UNL     1       3.241   6.228  18.492  0.00  0.00    +0.000 A 
ATOM     27  C   UNL     1       1.800   3.254  20.469  0.00  0.00    +0.000 C 
ATOM     28  O   UNL     1       2.262   1.956  20.051  0.00  0.00    +0.000 OA
ATOM     29  C   UNL     1       3.155   2.033  19.020  0.00  0.00    +0.000 C 
ATOM     30  O   UNL     1       3.669   1.084  18.474  0.00  0.00    +0.000 OA
BRANCH  21  31
ATOM     31  O   UNL     1       4.914   3.271  17.009  0.00  0.00    +0.000 OA
ATOM     32  H   UNL     1       4.648   3.321  16.078  0.00  0.00    +0.000 HD
ENDBRANCH  21  31
BRANCH  26  33
ATOM     33  O   UNL     1       3.218   7.600  18.587  0.00  0.00    +0.000 OA
ATOM     34  C   UNL     1       2.309   8.327  17.769  0.00  0.00    +0.000 C 
ENDBRANCH  26  33
ENDBRANCH  19  20
ENDBRANCH   3  19
TORSDOF 12
ENDMDL
MODEL 3
REMARK VINA RESULT:      -7.2      1.024      1.141
REMARK  Name = 
REMARK  17 active torsions:
REMARK  status: ('A' for Active; 'I' for Inactive)
REMARK    1  A    between atoms: C_1  and  O_2
REMARK    2  A    between atoms: O_2  and  C_3
REMARK    3  A    between atoms: C_3  and  C_5
REMARK    4  A    between atoms: C_5  and  N_6
REMARK    5  A    between atoms: C_5  and  C_29
REMARK    6  A    between atoms: C_7  and  C_9
REMARK    7  A    between atoms: C_9  and  C_10
REMARK    8  A    between atoms: C_10  and  C_11
REMARK    9  A    between atoms: C_11  and  C_12
REMARK   10  A    between atoms: C_13  and  C_14
REMARK   11  A    between atoms: C_14  and  C_15
REMARK   12  A    between atoms: C_16  and  O_17
REMARK   13  A    between atoms: C_20  and  C_21
REMARK   14  A    between atoms: C_22  and  O_23
REMARK   15  A    between atoms: O_23  and  C_24
REMARK   16  A    between atoms: C_29  and  O_31
REMARK   17  A    between atoms: O_31  and  C_32
REMARK                            x       y       z     vdW  Elec       q    Type
REMARK                         _______ _______ _______ _____ _____    ______ ____
ROOT
ATOM      1  C   UNL     1       2.081   6.623  19.640  0.00  0.00    +0.000 C 
ATOM      2  C   UNL     1       2.288   6.661  18.145  0.00  0.00    +0.000 C 
ATOM      3  C   UNL     1       1.711   7.715  20.344  0.00  0.00    +0.000 C 
ENDROOT
BRANCH   1   4
ATOM      4  C   UNL     1       2.419   5.297  20.302  0.00  0.00    +0.000 C 
BRANCH   4   5
ATOM      5  C   UNL     1       2.716   4.107  19.386  0.00  0.00    +0.000 C 
BRANCH   5   7
ATOM      6  N   UNL     1       4.938   4.711  18.598  0.00  0.00    +0.000 N 
ATOM      7  C   UNL     1       4.197   3.807  19.319  0.00  0.00    +0.000 C 
ATOM      8  O   UNL     1       4.695   2.824  19.854  0.00  0.00    +0.000 OA
ATOM      9  H   UNL     1       4.476   5.407  18.026  0.00  0.00    +0.000 HD
BRANCH   6  10
ATOM     10  C   UNL     1       6.375   4.506  18.374  0.00  0.00    +0.000 C 
BRANCH  10  11
ATOM     11  C   UNL     1       7.124   5.654  19.023  0.00  0.00    +0.000 C 
ATOM     12  O   UNL     1       7.735   5.560  20.086  0.00  0.00    +0.000 OA
BRANCH  11  14
ATOM     13  C   UNL     1       8.186   7.628  18.322  0.00  0.00    +0.000 C 
ATOM     14  O   UNL     1       7.032   6.787  18.273  0.00  0.00    +0.000 OA
ENDBRANCH  11  14
ENDBRANCH  10  11
BRANCH  10  15
ATOM     15  C   UNL     1       6.763   4.406  16.899  0.00  0.00    +0.000 C 
ATOM     16  O   UNL     1       7.924   4.374  16.506  0.00  0.00    +0.000 OA
BRANCH  15  17
ATOM     17  O   UNL     1       5.679   4.347  16.079  0.00  0.00    +0.000 OA
ATOM     18  C   UNL     1       5.828   5.090  14.867  0.00  0.00    +0.000 C 
ENDBRANCH  15  17
ENDBRANCH  10  15
ENDBRANCH   6  10
ENDBRANCH   5   7
ENDBRANCH   4   5
ENDBRANCH   1   4
BRANCH   3  19
ATOM     19  C   UNL     1       1.811   9.139  19.874  0.00  0.00    +0.000 C 
BRANCH  19  20
ATOM     20  C   UNL     1       0.580  10.015  19.935  0.00  0.00    +0.000 A 
ATOM     21  C   UNL     1      -0.177  10.202  18.752  0.00  0.00    +0.000 A 
ATOM     22  C   UNL     1      -1.340  10.957  18.780  0.00  0.00    +0.000 A 
ATOM     23  C   UNL     1      -1.783  11.560  19.933  0.00  0.00    +0.000 A 
ATOM     24  C   UNL     1      -1.066  11.440  21.121  0.00  0.00    +0.000 A 
ATOM     25  C   UNL     1      -1.562  12.098  22.381  0.00  0.00    +0.000 C 
ATOM     26  C   UNL     1       0.133  10.672  21.118  0.00  0.00    +0.000 A 
ATOM     27  C   UNL     1      -3.062  12.245  19.652  0.00  0.00    +0.000 C 
ATOM     28  O   UNL     1      -3.268  12.021  18.245  0.00  0.00    +0.000 OA
ATOM     29  C   UNL     1      -2.275  11.263  17.692  0.00  0.00    +0.000 C 
ATOM     30  O   UNL     1      -2.203  10.956  16.524  0.00  0.00    +0.000 OA
BRANCH  21  31
ATOM     31  O   UNL     1       0.165   9.619  17.564  0.00  0.00    +0.000 OA
ATOM     32  H   UNL     1       0.988  10.007  17.228  0.00  0.00    +0.000 HD
ENDBRANCH  21  31
BRANCH  26  33
ATOM     33  O   UNL     1       0.681  10.496  22.367  0.00  0.00    +0.000 OA
ATOM     34  C   UNL     1       0.199   9.433  23.181  0.00  0.00    +0.000 C 
ENDBRANCH  26  33
ENDBRANCH  19  20
ENDBRANCH   3  19
TORSDOF 12
ENDMDL
MODEL 4
REMARK VINA RESULT:      -7.1      1.234      1.471
REMARK  Name = 
REMARK  17 active torsions:
REMARK  status: ('A' for Active; 'I' for Inactive)
REMARK    1  A    between atoms: C_1  and  O_2
REMARK    2  A    between atoms: O_2  and  C_3
REMARK    3  A    between atoms: C_3  and  C_5
REMARK    4  A    between atoms: C_5  and  N_6
REMARK    5  A    between atoms: C_5  and  C_29
REMARK    6  A    between atoms: C_7  and  C_9
REMARK    7  A    between atoms: C_9  and  C_10
REMARK    8  A    between atoms: C_10  and  C_11
REMARK    9  A    between atoms: C_11  and  C_12
REMARK   10  A    between atoms: C_13  and  C_14
REMARK   11  A    between atoms: C_14  and  C_15
REMARK   12  A    between atoms: C_16  and  O_17
REMARK   13  A    between atoms: C_20  and  C_21
REMARK   14  A    between atoms: C_22  and  O_23
REMARK   15  A    between atoms: O_23  and  C_24
REMARK   16  A    between atoms: C_29  and  O_31
REMARK   17  A    between atoms: O_31  and  C_32
REMARK                            x       y       z     vdW  Elec       q    Type
REMARK                         _______ _______ _______ _____ _____    ______ ____
ROOT
ATOM      1  C   UNL     1       1.634   8.734  19.083  0.00  0.00    +0.000 C 
ATOM      2  C   UNL     1       2.143   9.323  17.789  0.00  0.00    +0.000 C 
ATOM      3  C   UNL     1       0.786   9.404  19.893  0.00  0.00    +0.000 C 
ENDROOT
BRANCH   1   4
ATOM      4  C   UNL     1       2.225   7.383  19.450  0.00  0.00    +0.000 C 
BRANCH   4   5
ATOM      5  C   UNL     1       2.495   6.398  18.310  0.00  0.00    +0.000 C 
BRANCH   5   7
ATOM      6  N   UNL     1       4.675   6.100  17.269  0.00  0.00    +0.000 N 
ATOM      7  C   UNL     1       3.899   5.840  18.373  0.00  0.00    +0.000 C 
ATOM      8  O   UNL     1       4.308   5.192  19.329  0.00  0.00    +0.000 OA
ATOM      9  H   UNL     1       4.256   6.481  16.431  0.00  0.00    +0.000 HD
BRANCH   6  10
ATOM     10  C   UNL     1       6.032   5.550  17.150  0.00  0.00    +0.000 C 
BRANCH  10  11
ATOM     11  C   UNL     1       6.980   6.461  17.906  0.00  0.00    +0.000 C 
ATOM     12  O   UNL     1       7.810   6.063  18.720  0.00  0.00    +0.000 OA
BRANCH  11  14
ATOM     13  C   UNL     1       7.949   8.590  17.694  0.00  0.00    +0.000 C 
ATOM     14  O   UNL     1       6.792   7.764  17.558  0.00  0.00    +0.000 OA
ENDBRANCH  11  14
ENDBRANCH  10  11
BRANCH  10  15
ATOM     15  C   UNL     1       6.510   5.392  15.707  0.00  0.00    +0.000 C 
ATOM     16  O   UNL     1       7.677   5.539  15.362  0.00  0.00    +0.000 OA
BRANCH  15  17
ATOM     17  O   UNL     1       5.500   5.061  14.858  0.00  0.00    +0.000 OA
ATOM     18  C   UNL     1       5.833   4.019  13.938  0.00  0.00    +0.000 C 
ENDBRANCH  15  17
ENDBRANCH  10  15
ENDBRANCH   6  10
ENDBRANCH   5   7
ENDBRANCH   4   5
ENDBRANCH   1   4
BRANCH   3  19
ATOM     19  C   UNL     1       0.524  10.884  19.863  0.00  0.00    +0.000 C 
BRANCH  19  20
ATOM     20  C   UNL     1      -0.904  11.369  19.765  0.00  0.00    +0.000 A 
ATOM     21  C   UNL     1      -1.607  11.161  18.551  0.00  0.00    +0.000 A 
ATOM     22  C   UNL     1      -2.935  11.547  18.440  0.00  0.00    +0.000 A 
ATOM     23  C   UNL     1      -3.600  12.154  19.478  0.00  0.00    +0.000 A 
ATOM     24  C   UNL     1      -2.955  12.415  20.684  0.00  0.00    +0.000 A 
ATOM     25  C   UNL     1      -3.694  13.074  21.818  0.00  0.00    +0.000 C 
ATOM     26  C   UNL     1      -1.591  12.031  20.823  0.00  0.00    +0.000 A 
ATOM     27  C   UNL     1      -5.000  12.397  19.069  0.00  0.00    +0.000 C 
ATOM     28  O   UNL     1      -5.046  11.926  17.709  0.00  0.00    +0.000 OA
ATOM     29  C   UNL     1      -3.847  11.415  17.299  0.00  0.00    +0.000 C 
ATOM     30  O   UNL     1      -3.619  10.979  16.194  0.00  0.00    +0.000 OA
BRANCH  21  31
ATOM     31  O   UNL     1      -1.041  10.539  17.474  0.00  0.00    +0.000 OA
ATOM     32  H   UNL     1      -0.758   9.645  17.717  0.00  0.00    +0.000 HD
ENDBRANCH  21  31
BRANCH  26  33
ATOM     33  O   UNL     1      -1.096  12.198  22.095  0.00  0.00    +0.000 OA
ATOM     34  C   UNL     1      -1.073  11.078  22.972  0.00  0.00    +0.000 C 
ENDBRANCH  26  33
ENDBRANCH  19  20
ENDBRANCH   3  19
TORSDOF 12
ENDMDL
MODEL 5
REMARK VINA RESULT:      -7.1      4.408      8.316
REMARK  Name = 
REMARK  17 active torsions:
REMARK  status: ('A' for Active; 'I' for Inactive)
REMARK    1  A    between atoms: C_1  and  O_2
REMARK    2  A    between atoms: O_2  and  C_3
REMARK    3  A    between atoms: C_3  and  C_5
REMARK    4  A    between atoms: C_5  and  N_6
REMARK    5  A    between atoms: C_5  and  C_29
REMARK    6  A    between atoms: C_7  and  C_9
REMARK    7  A    between atoms: C_9  and  C_10
REMARK    8  A    between atoms: C_10  and  C_11
REMARK    9  A    between atoms: C_11  and  C_12
REMARK   10  A    between atoms: C_13  and  C_14
REMARK   11  A    between atoms: C_14  and  C_15
REMARK   12  A    between atoms: C_16  and  O_17
REMARK   13  A    between atoms: C_20  and  C_21
REMARK   14  A    between atoms: C_22  and  O_23
REMARK   15  A    between atoms: O_23  and  C_24
REMARK   16  A    between atoms: C_29  and  O_31
REMARK   17  A    between atoms: O_31  and  C_32
REMARK                            x       y       z     vdW  Elec       q    Type
REMARK                         _______ _______ _______ _____ _____    ______ ____
ROOT
ATOM      1  C   UNL     1       6.951   6.846  17.354  0.00  0.00    +0.000 C 
ATOM      2  C   UNL     1       7.334   5.400  17.149  0.00  0.00    +0.000 C 
ATOM      3  C   UNL     1       5.662   7.248  17.409  0.00  0.00    +0.000 C 
ENDROOT
BRANCH   1   4
ATOM      4  C   UNL     1       8.116   7.821  17.391  0.00  0.00    +0.000 C 
BRANCH   4   5
ATOM      5  C   UNL     1       8.339   8.606  18.687  0.00  0.00    +0.000 C 
BRANCH   5   7
ATOM      6  N   UNL     1       9.744  10.525  19.201  0.00  0.00    +0.000 N 
ATOM      7  C   UNL     1       8.728  10.041  18.414  0.00  0.00    +0.000 C 
ATOM      8  O   UNL     1       8.170  10.724  17.563  0.00  0.00    +0.000 OA
ATOM      9  H   UNL     1      10.060   9.998  20.006  0.00  0.00    +0.000 HD
BRANCH   6  10
ATOM     10  C   UNL     1      10.173  11.927  19.108  0.00  0.00    +0.000 C 
BRANCH  10  11
ATOM     11  C   UNL     1      11.687  11.966  19.195  0.00  0.00    +0.000 C 
ATOM     12  O   UNL     1      12.333  11.471  20.115  0.00  0.00    +0.000 OA
BRANCH  11  14
ATOM     13  C   UNL     1      11.276  12.993  17.123  0.00  0.00    +0.000 C 
ATOM     14  O   UNL     1      12.223  12.613  18.123  0.00  0.00    +0.000 OA
ENDBRANCH  11  14
ENDBRANCH  10  11
BRANCH  10  15
ATOM     15  C   UNL     1       9.571  12.830  20.185  0.00  0.00    +0.000 C 
ATOM     16  O   UNL     1       8.830  13.775  19.938  0.00  0.00    +0.000 OA
BRANCH  15  17
ATOM     17  O   UNL     1       9.943  12.461  21.440  0.00  0.00    +0.000 OA
ATOM     18  C   UNL     1       8.844  12.205  22.319  0.00  0.00    +0.000 C 
ENDBRANCH  15  17
ENDBRANCH  10  15
ENDBRANCH   6  10
ENDBRANCH   5   7
ENDBRANCH   4   5
ENDBRANCH   1   4
BRANCH   3  19
ATOM     19  C   UNL     1       4.475   6.465  16.923  0.00  0.00    +0.000 C 
BRANCH  19  20
ATOM     20  C   UNL     1       3.594   5.773  17.938  0.00  0.00    +0.000 A 
ATOM     21  C   UNL     1       3.615   4.357  17.999  0.00  0.00    +0.000 A 
ATOM     22  C   UNL     1       2.858   3.689  18.950  0.00  0.00    +0.000 A 
ATOM     23  C   UNL     1       2.057   4.363  19.841  0.00  0.00    +0.000 A 
ATOM     24  C   UNL     1       1.969   5.752  19.811  0.00  0.00    +0.000 A 
ATOM     25  C   UNL     1       1.095   6.483  20.795  0.00  0.00    +0.000 C 
ATOM     26  C   UNL     1       2.734   6.462  18.842  0.00  0.00    +0.000 A 
ATOM     27  C   UNL     1       1.424   3.383  20.748  0.00  0.00    +0.000 C 
ATOM     28  O   UNL     1       1.892   2.112  20.260  0.00  0.00    +0.000 OA
ATOM     29  C   UNL     1       2.743   2.248  19.199  0.00  0.00    +0.000 C 
ATOM     30  O   UNL     1       3.253   1.332  18.596  0.00  0.00    +0.000 OA
BRANCH  21  31
ATOM     31  O   UNL     1       4.401   3.600  17.176  0.00  0.00    +0.000 OA
ATOM     32  H   UNL     1       5.336   3.730  17.397  0.00  0.00    +0.000 HD
ENDBRANCH  21  31
BRANCH  26  33
ATOM     33  O   UNL     1       2.690   7.828  18.994  0.00  0.00    +0.000 OA
ATOM     34  C   UNL     1       2.052   8.608  17.990  0.00  0.00    +0.000 C 
ENDBRANCH  26  33
ENDBRANCH  19  20
ENDBRANCH   3  19
TORSDOF 12
ENDMDL
MODEL 6
REMARK VINA RESULT:      -7.0      4.729      8.552
REMARK  Name = 
REMARK  17 active torsions:
REMARK  status: ('A' for Active; 'I' for Inactive)
REMARK    1  A    between atoms: C_1  and  O_2
REMARK    2  A    between atoms: O_2  and  C_3
REMARK    3  A    between atoms: C_3  and  C_5
REMARK    4  A    between atoms: C_5  and  N_6
REMARK    5  A    between atoms: C_5  and  C_29
REMARK    6  A    between atoms: C_7  and  C_9
REMARK    7  A    between atoms: C_9  and  C_10
REMARK    8  A    between atoms: C_10  and  C_11
REMARK    9  A    between atoms: C_11  and  C_12
REMARK   10  A    between atoms: C_13  and  C_14
REMARK   11  A    between atoms: C_14  and  C_15
REMARK   12  A    between atoms: C_16  and  O_17
REMARK   13  A    between atoms: C_20  and  C_21
REMARK   14  A    between atoms: C_22  and  O_23
REMARK   15  A    between atoms: O_23  and  C_24
REMARK   16  A    between atoms: C_29  and  O_31
REMARK   17  A    between atoms: O_31  and  C_32
REMARK                            x       y       z     vdW  Elec       q    Type
REMARK                         _______ _______ _______ _____ _____    ______ ____
ROOT
ATOM      1  C   UNL     1       7.253   7.210  17.861  0.00  0.00    +0.000 C 
ATOM      2  C   UNL     1       7.626   5.938  18.585  0.00  0.00    +0.000 C 
ATOM      3  C   UNL     1       6.030   7.396  17.319  0.00  0.00    +0.000 C 
ENDROOT
BRANCH   1   4
ATOM      4  C   UNL     1       8.382   8.215  17.703  0.00  0.00    +0.000 C 
BRANCH   4   5
ATOM      5  C   UNL     1       8.016   9.701  17.753  0.00  0.00    +0.000 C 
BRANCH   5   7
ATOM      6  N   UNL     1       8.980  11.799  18.523  0.00  0.00    +0.000 N 
ATOM      7  C   UNL     1       8.859  10.452  18.759  0.00  0.00    +0.000 C 
ATOM      8  O   UNL     1       9.405   9.897  19.705  0.00  0.00    +0.000 OA
ATOM      9  H   UNL     1       8.666  12.192  17.644  0.00  0.00    +0.000 HD
BRANCH   6  10
ATOM     10  C   UNL     1       9.836  12.643  19.366  0.00  0.00    +0.000 C 
BRANCH  10  11
ATOM     11  C   UNL     1       8.943  13.470  20.271  0.00  0.00    +0.000 C 
ATOM     12  O   UNL     1       8.602  13.122  21.400  0.00  0.00    +0.000 OA
BRANCH  11  14
ATOM     13  C   UNL     1       7.172  14.807  19.503  0.00  0.00    +0.000 C 
ATOM     14  O   UNL     1       8.580  14.637  19.671  0.00  0.00    +0.000 OA
ENDBRANCH  11  14
ENDBRANCH  10  11
BRANCH  10  15
ATOM     15  C   UNL     1      10.764  13.566  18.576  0.00  0.00    +0.000 C 
ATOM     16  O   UNL     1      11.680  14.202  19.087  0.00  0.00    +0.000 OA
BRANCH  15  17
ATOM     17  O   UNL     1      10.466  13.592  17.249  0.00  0.00    +0.000 OA
ATOM     18  C   UNL     1      11.597  13.404  16.396  0.00  0.00    +0.000 C 
ENDBRANCH  15  17
ENDBRANCH  10  15
ENDBRANCH   6  10
ENDBRANCH   5   7
ENDBRANCH   4   5
ENDBRANCH   1   4
BRANCH   3  19
ATOM     19  C   UNL     1       5.030   6.316  17.013  0.00  0.00    +0.000 C 
BRANCH  19  20
ATOM     20  C   UNL     1       4.178   5.772  18.137  0.00  0.00    +0.000 A 
ATOM     21  C   UNL     1       4.375   4.428  18.544  0.00  0.00    +0.000 A 
ATOM     22  C   UNL     1       3.648   3.908  19.605  0.00  0.00    +0.000 A 
ATOM     23  C   UNL     1       2.711   4.657  20.276  0.00  0.00    +0.000 A 
ATOM     24  C   UNL     1       2.450   5.973  19.902  0.00  0.00    +0.000 A 
ATOM     25  C   UNL     1       1.426   6.788  20.647  0.00  0.00    +0.000 C 
ATOM     26  C   UNL     1       3.180   6.530  18.815  0.00  0.00    +0.000 A 
ATOM     27  C   UNL     1       2.149   3.844  21.375  0.00  0.00    +0.000 C 
ATOM     28  O   UNL     1       2.806   2.572  21.230  0.00  0.00    +0.000 OA
ATOM     29  C   UNL     1       3.701   2.567  20.197  0.00  0.00    +0.000 C 
ATOM     30  O   UNL     1       4.363   1.614  19.855  0.00  0.00    +0.000 OA
BRANCH  21  31
ATOM     31  O   UNL     1       5.304   3.614  17.960  0.00  0.00    +0.000 OA
ATOM     32  H   UNL     1       4.877   3.037  17.307  0.00  0.00    +0.000 HD
ENDBRANCH  21  31
BRANCH  26  33
ATOM     33  O   UNL     1       2.953   7.873  18.624  0.00  0.00    +0.000 OA
ATOM     34  C   UNL     1       2.012   8.274  17.637  0.00  0.00    +0.000 C 
ENDBRANCH  26  33
ENDBRANCH  19  20
ENDBRANCH   3  19
TORSDOF 12
ENDMDL
MODEL 7
REMARK VINA RESULT:      -7.0      1.231      1.351
REMARK  Name = 
REMARK  17 active torsions:
REMARK  status: ('A' for Active; 'I' for Inactive)
REMARK    1  A    between atoms: C_1  and  O_2
REMARK    2  A    between atoms: O_2  and  C_3
REMARK    3  A    between atoms: C_3  and  C_5
REMARK    4  A    between atoms: C_5  and  N_6
REMARK    5  A    between atoms: C_5  and  C_29
REMARK    6  A    between atoms: C_7  and  C_9
REMARK    7  A    between atoms: C_9  and  C_10
REMARK    8  A    between atoms: C_10  and  C_11
REMARK    9  A    between atoms: C_11  and  C_12
REMARK   10  A    between atoms: C_13  and  C_14
REMARK   11  A    between atoms: C_14  and  C_15
REMARK   12  A    between atoms: C_16  and  O_17
REMARK   13  A    between atoms: C_20  and  C_21
REMARK   14  A    between atoms: C_22  and  O_23
REMARK   15  A    between atoms: O_23  and  C_24
REMARK   16  A    between atoms: C_29  and  O_31
REMARK   17  A    between atoms: O_31  and  C_32
REMARK                            x       y       z     vdW  Elec       q    Type
REMARK                         _______ _______ _______ _____ _____    ______ ____
ROOT
ATOM      1  C   UNL     1       2.212   7.871  18.579  0.00  0.00    +0.000 C 
ATOM      2  C   UNL     1       3.230   8.223  17.520  0.00  0.00    +0.000 C 
ATOM      3  C   UNL     1       1.174   8.682  18.876  0.00  0.00    +0.000 C 
ENDROOT
BRANCH   1   4
ATOM      4  C   UNL     1       2.502   6.593  19.349  0.00  0.00    +0.000 C 
BRANCH   4   5
ATOM      5  C   UNL     1       2.559   5.287  18.552  0.00  0.00    +0.000 C 
BRANCH   5   7
ATOM      6  N   UNL     1       4.796   5.147  17.603  0.00  0.00    +0.000 N 
ATOM      7  C   UNL     1       3.943   4.678  18.573  0.00  0.00    +0.000 C 
ATOM      8  O   UNL     1       4.274   3.821  19.383  0.00  0.00    +0.000 OA
ATOM      9  H   UNL     1       4.441   5.718  16.846  0.00  0.00    +0.000 HD
BRANCH   6  10
ATOM     10  C   UNL     1       6.145   4.588  17.446  0.00  0.00    +0.000 C 
BRANCH  10  11
ATOM     11  C   UNL     1       7.098   5.403  18.299  0.00  0.00    +0.000 C 
ATOM     12  O   UNL     1       8.021   4.918  18.950  0.00  0.00    +0.000 OA
BRANCH  11  14
ATOM     13  C   UNL     1       7.842   7.556  17.729  0.00  0.00    +0.000 C 
ATOM     14  O   UNL     1       6.796   6.730  18.242  0.00  0.00    +0.000 OA
ENDBRANCH  11  14
ENDBRANCH  10  11
BRANCH  10  15
ATOM     15  C   UNL     1       6.640   4.564  16.000  0.00  0.00    +0.000 C 
ATOM     16  O   UNL     1       7.826   4.594  15.691  0.00  0.00    +0.000 OA
BRANCH  15  17
ATOM     17  O   UNL     1       5.620   4.497  15.103  0.00  0.00    +0.000 OA
ATOM     18  C   UNL     1       5.987   3.916  13.849  0.00  0.00    +0.000 C 
ENDBRANCH  15  17
ENDBRANCH  10  15
ENDBRANCH   6  10
ENDBRANCH   5   7
ENDBRANCH   4   5
ENDBRANCH   1   4
BRANCH   3  19
ATOM     19  C   UNL     1       1.066  10.139  18.522  0.00  0.00    +0.000 C 
BRANCH  19  20
ATOM     20  C   UNL     1      -0.134  10.920  19.007  0.00  0.00    +0.000 A 
ATOM     21  C   UNL     1      -1.349  10.810  18.286  0.00  0.00    +0.000 A 
ATOM     22  C   UNL     1      -2.485  11.471  18.729  0.00  0.00    +0.000 A 
ATOM     23  C   UNL     1      -2.470  12.261  19.853  0.00  0.00    +0.000 A 
ATOM     24  C   UNL     1      -1.299  12.434  20.587  0.00  0.00    +0.000 A 
ATOM     25  C   UNL     1      -1.293  13.296  21.822  0.00  0.00    +0.000 C 
ATOM     26  C   UNL     1      -0.118  11.768  20.152  0.00  0.00    +0.000 A 
ATOM     27  C   UNL     1      -3.833  12.783  20.087  0.00  0.00    +0.000 C 
ATOM     28  O   UNL     1      -4.592  12.266  18.979  0.00  0.00    +0.000 OA
ATOM     29  C   UNL     1      -3.834  11.485  18.153  0.00  0.00    +0.000 C 
ATOM     30  O   UNL     1      -4.231  10.954  17.141  0.00  0.00    +0.000 OA
BRANCH  21  31
ATOM     31  O   UNL     1      -1.472  10.026  17.173  0.00  0.00    +0.000 OA
ATOM     32  H   UNL     1      -1.174   9.124  17.367  0.00  0.00    +0.000 HD
ENDBRANCH  21  31
BRANCH  26  33
ATOM     33  O   UNL     1       0.938  11.886  21.025  0.00  0.00    +0.000 OA
ATOM     34  C   UNL     1       1.959  12.834  20.739  0.00  0.00    +0.000 C 
ENDBRANCH  26  33
ENDBRANCH  19  20
ENDBRANCH   3  19
TORSDOF 12
ENDMDL
MODEL 8
REMARK VINA RESULT:      -7.0      2.080      3.510
REMARK  Name = 
REMARK  17 active torsions:
REMARK  status: ('A' for Active; 'I' for Inactive)
REMARK    1  A    between atoms: C_1  and  O_2
REMARK    2  A    between atoms: O_2  and  C_3
REMARK    3  A    between atoms: C_3  and  C_5
REMARK    4  A    between atoms: C_5  and  N_6
REMARK    5  A    between atoms: C_5  and  C_29
REMARK    6  A    between atoms: C_7  and  C_9
REMARK    7  A    between atoms: C_9  and  C_10
REMARK    8  A    between atoms: C_10  and  C_11
REMARK    9  A    between atoms: C_11  and  C_12
REMARK   10  A    between atoms: C_13  and  C_14
REMARK   11  A    between atoms: C_14  and  C_15
REMARK   12  A    between atoms: C_16  and  O_17
REMARK   13  A    between atoms: C_20  and  C_21
REMARK   14  A    between atoms: C_22  and  O_23
REMARK   15  A    between atoms: O_23  and  C_24
REMARK   16  A    between atoms: C_29  and  O_31
REMARK   17  A    between atoms: O_31  and  C_32
REMARK                            x       y       z     vdW  Elec       q    Type
REMARK                         _______ _______ _______ _____ _____    ______ ____
ROOT
ATOM      1  C   UNL     1       0.278   9.781  21.489  0.00  0.00    +0.000 C 
ATOM      2  C   UNL     1      -0.528  10.057  22.735  0.00  0.00    +0.000 C 
ATOM      3  C   UNL     1       0.517  10.733  20.561  0.00  0.00    +0.000 C 
ENDROOT
BRANCH   1   4
ATOM      4  C   UNL     1       0.709   8.335  21.309  0.00  0.00    +0.000 C 
BRANCH   4   5
ATOM      5  C   UNL     1       1.662   8.022  20.152  0.00  0.00    +0.000 C 
BRANCH   5   7
ATOM      6  N   UNL     1       2.959   6.221  19.152  0.00  0.00    +0.000 N 
ATOM      7  C   UNL     1       2.077   6.568  20.146  0.00  0.00    +0.000 C 
ATOM      8  O   UNL     1       1.648   5.757  20.959  0.00  0.00    +0.000 OA
ATOM      9  H   UNL     1       3.154   6.867  18.397  0.00  0.00    +0.000 HD
BRANCH   6  10
ATOM     10  C   UNL     1       3.385   4.828  18.969  0.00  0.00    +0.000 C 
BRANCH  10  11
ATOM     11  C   UNL     1       4.871   4.823  18.661  0.00  0.00    +0.000 C 
ATOM     12  O   UNL     1       5.682   4.082  19.211  0.00  0.00    +0.000 OA
BRANCH  11  14
ATOM     13  C   UNL     1       6.553   6.118  17.657  0.00  0.00    +0.000 C 
ATOM     14  O   UNL     1       5.176   5.739  17.701  0.00  0.00    +0.000 OA
ENDBRANCH  11  14
ENDBRANCH  10  11
BRANCH  10  15
ATOM     15  C   UNL     1       2.629   4.090  17.865  0.00  0.00    +0.000 C 
ATOM     16  O   UNL     1       1.519   4.425  17.465  0.00  0.00    +0.000 OA
BRANCH  15  17
ATOM     17  O   UNL     1       3.328   3.032  17.373  0.00  0.00    +0.000 OA
ATOM     18  C   UNL     1       3.097   1.807  18.074  0.00  0.00    +0.000 C 
ENDBRANCH  15  17
ENDBRANCH  10  15
ENDBRANCH   6  10
ENDBRANCH   5   7
ENDBRANCH   4   5
ENDBRANCH   1   4
BRANCH   3  19
ATOM     19  C   UNL     1      -0.239  12.024  20.410  0.00  0.00    +0.000 C 
BRANCH  19  20
ATOM     20  C   UNL     1      -1.601  11.998  19.754  0.00  0.00    +0.000 A 
ATOM     21  C   UNL     1      -1.696  11.555  18.411  0.00  0.00    +0.000 A 
ATOM     22  C   UNL     1      -2.934  11.470  17.792  0.00  0.00    +0.000 A 
ATOM     23  C   UNL     1      -4.093  11.825  18.440  0.00  0.00    +0.000 A 
ATOM     24  C   UNL     1      -4.062  12.298  19.749  0.00  0.00    +0.000 A 
ATOM     25  C   UNL     1      -5.337  12.678  20.453  0.00  0.00    +0.000 C 
ATOM     26  C   UNL     1      -2.803  12.397  20.407  0.00  0.00    +0.000 A 
ATOM     27  C   UNL     1      -5.238  11.578  17.538  0.00  0.00    +0.000 C 
ATOM     28  O   UNL     1      -4.623  11.109  16.324  0.00  0.00    +0.000 OA
ATOM     29  C   UNL     1      -3.263  11.029  16.432  0.00  0.00    +0.000 C 
ATOM     30  O   UNL     1      -2.514  10.686  15.545  0.00  0.00    +0.000 OA
BRANCH  21  31
ATOM     31  O   UNL     1      -0.605  11.153  17.693  0.00  0.00    +0.000 OA
ATOM     32  H   UNL     1      -0.464  11.748  16.940  0.00  0.00    +0.000 HD
ENDBRANCH  21  31
BRANCH  26  33
ATOM     33  O   UNL     1      -2.898  12.732  21.737  0.00  0.00    +0.000 OA
ATOM     34  C   UNL     1      -2.557  14.054  22.136  0.00  0.00    +0.000 C 
ENDBRANCH  26  33
ENDBRANCH  19  20
ENDBRANCH   3  19
TORSDOF 12
ENDMDL
MODEL 9
REMARK VINA RESULT:      -6.9      2.390      3.089
REMARK  Name = 
REMARK  17 active torsions:
REMARK  status: ('A' for Active; 'I' for Inactive)
REMARK    1  A    between atoms: C_1  and  O_2
REMARK    2  A    between atoms: O_2  and  C_3
REMARK    3  A    between atoms: C_3  and  C_5
REMARK    4  A    between atoms: C_5  and  N_6
REMARK    5  A    between atoms: C_5  and  C_29
REMARK    6  A    between atoms: C_7  and  C_9
REMARK    7  A    between atoms: C_9  and  C_10
REMARK    8  A    between atoms: C_10  and  C_11
REMARK    9  A    between atoms: C_11  and  C_12
REMARK   10  A    between atoms: C_13  and  C_14
REMARK   11  A    between atoms: C_14  and  C_15
REMARK   12  A    between atoms: C_16  and  O_17
REMARK   13  A    between atoms: C_20  and  C_21
REMARK   14  A    between atoms: C_22  and  O_23
REMARK   15  A    between atoms: O_23  and  C_24
REMARK   16  A    between atoms: C_29  and  O_31
REMARK   17  A    between atoms: O_31  and  C_32
REMARK                            x       y       z     vdW  Elec       q    Type
REMARK                         _______ _______ _______ _____ _____    ______ ____
ROOT
ATOM      1  C   UNL     1       2.106   7.679  19.439  0.00  0.00    +0.000 C 
ATOM      2  C   UNL     1       1.120   7.994  20.539  0.00  0.00    +0.000 C 
ATOM      3  C   UNL     1       2.156   8.392  18.292  0.00  0.00    +0.000 C 
ENDROOT
BRANCH   1   4
ATOM      4  C   UNL     1       2.962   6.446  19.676  0.00  0.00    +0.000 C 
BRANCH   4   5
ATOM      5  C   UNL     1       2.519   5.141  19.007  0.00  0.00    +0.000 C 
BRANCH   5   7
ATOM      6  N   UNL     1       4.769   5.173  18.080  0.00  0.00    +0.000 N 
ATOM      7  C   UNL     1       3.484   4.709  17.927  0.00  0.00    +0.000 C 
ATOM      8  O   UNL     1       3.144   4.011  16.979  0.00  0.00    +0.000 OA
ATOM      9  H   UNL     1       4.974   5.885  18.769  0.00  0.00    +0.000 HD
BRANCH   6  10
ATOM     10  C   UNL     1       5.796   4.906  17.065  0.00  0.00    +0.000 C 
BRANCH  10  11
ATOM     11  C   UNL     1       7.097   4.591  17.779  0.00  0.00    +0.000 C 
ATOM     12  O   UNL     1       8.113   4.197  17.210  0.00  0.00    +0.000 OA
BRANCH  11  14
ATOM     13  C   UNL     1       7.949   5.713  19.658  0.00  0.00    +0.000 C 
ATOM     14  O   UNL     1       6.986   4.805  19.120  0.00  0.00    +0.000 OA
ENDBRANCH  11  14
ENDBRANCH  10  11
BRANCH  10  15
ATOM     15  C   UNL     1       6.012   6.060  16.086  0.00  0.00    +0.000 C 
ATOM     16  O   UNL     1       6.530   7.126  16.401  0.00  0.00    +0.000 OA
BRANCH  15  17
ATOM     17  O   UNL     1       5.577   5.765  14.832  0.00  0.00    +0.000 OA
ATOM     18  C   UNL     1       5.729   4.390  14.472  0.00  0.00    +0.000 C 
ENDBRANCH  15  17
ENDBRANCH  10  15
ENDBRANCH   6  10
ENDBRANCH   5   7
ENDBRANCH   4   5
ENDBRANCH   1   4
BRANCH   3  19
ATOM     19  C   UNL     1       1.074   9.297  17.771  0.00  0.00    +0.000 C 
BRANCH  19  20
ATOM     20  C   UNL     1       0.908  10.665  18.393  0.00  0.00    +0.000 A 
ATOM     21  C   UNL     1       1.925  11.631  18.183  0.00  0.00    +0.000 A 
ATOM     22  C   UNL     1       1.785  12.913  18.694  0.00  0.00    +0.000 A 
ATOM     23  C   UNL     1       0.683  13.282  19.428  0.00  0.00    +0.000 A 
ATOM     24  C   UNL     1      -0.334  12.370  19.695  0.00  0.00    +0.000 A 
ATOM     25  C   UNL     1      -1.541  12.785  20.495  0.00  0.00    +0.000 C 
ATOM     26  C   UNL     1      -0.213  11.046  19.184  0.00  0.00    +0.000 A 
ATOM     27  C   UNL     1       0.806  14.711  19.786  0.00  0.00    +0.000 C 
ATOM     28  O   UNL     1       2.083  15.091  19.241  0.00  0.00    +0.000 OA
ATOM     29  C   UNL     1       2.693  14.059  18.586  0.00  0.00    +0.000 C 
ATOM     30  O   UNL     1       3.783  14.115  18.062  0.00  0.00    +0.000 OA
BRANCH  21  31
ATOM     31  O   UNL     1       3.043  11.369  17.442  0.00  0.00    +0.000 OA
ATOM     32  H   UNL     1       3.641  12.132  17.461  0.00  0.00    +0.000 HD
ENDBRANCH  21  31
BRANCH  26  33
ATOM     33  O   UNL     1      -1.334  10.273  19.377  0.00  0.00    +0.000 OA
ATOM     34  C   UNL     1      -2.260  10.131  18.306  0.00  0.00    +0.000 C 
ENDBRANCH  26  33
ENDBRANCH  19  20
ENDBRANCH   3  19
TORSDOF 12
ENDMDL
