MODEL 1
REMARK VINA RESULT:      -9.6      0.000      0.000
REMARK  Name = 
REMARK  2 active torsions:
REMARK  status: ('A' for Active; 'I' for Inactive)
REMARK    1  A    between atoms: C_7  and  C_8
REMARK    2  A    between atoms: C_12  and  N_13
REMARK                            x       y       z     vdW  Elec       q    Type
REMARK                         _______ _______ _______ _____ _____    ______ ____
ROOT
ATOM      1  O   UNL     1       2.696   4.690  20.867  0.00  0.00    +0.000 OA
ATOM      2  C   UNL     1       3.361   4.766  19.847  0.00  0.00    +0.000 C 
ATOM      3  N   UNL     1       4.440   5.616  19.678  0.00  0.00    +0.000 N 
ATOM      4  C   UNL     1       4.996   5.491  18.422  0.00  0.00    +0.000 A 
ATOM      5  C   UNL     1       6.072   6.187  17.924  0.00  0.00    +0.000 A 
ATOM      6  C   UNL     1       6.466   5.905  16.614  0.00  0.00    +0.000 A 
ATOM      7  C   UNL     1       5.811   4.927  15.818  0.00  0.00    +0.000 A 
ATOM      8  C   UNL     1       4.711   4.240  16.384  0.00  0.00    +0.000 A 
ATOM      9  C   UNL     1       4.308   4.534  17.682  0.00  0.00    +0.000 A 
ATOM     10  C   UNL     1       3.172   3.962  18.522  0.00  0.00    +0.000 C 
ATOM     11  C   UNL     1       1.802   4.271  17.896  0.00  0.00    +0.000 C 
ATOM     12  C   UNL     1       0.640   3.619  18.648  0.00  0.00    +0.000 C 
ATOM     13  C   UNL     1       0.854   2.124  18.846  0.00  0.00    +0.000 C 
ATOM     14  C   UNL     1       2.187   1.824  19.523  0.00  0.00    +0.000 C 
ATOM     15  C   UNL     1       3.364   2.458  18.777  0.00  0.00    +0.000 C 
ATOM     16  H   UNL     1       4.757   6.240  20.407  0.00  0.00    +0.000 HD
ENDROOT
BRANCH   7  17
ATOM     17  C   UNL     1       6.282   4.634  14.440  0.00  0.00    +0.000 A 
ATOM     18  C   UNL     1       7.406   5.280  13.890  0.00  0.00    +0.000 A 
ATOM     19  C   UNL     1       7.843   5.020  12.584  0.00  0.00    +0.000 A 
ATOM     20  C   UNL     1       7.171   4.093  11.792  0.00  0.00    +0.000 A 
ATOM     21  C   UNL     1       6.059   3.430  12.319  0.00  0.00    +0.000 A 
ATOM     22  C   UNL     1       5.616   3.698  13.624  0.00  0.00    +0.000 A 
BRANCH  21  23
ATOM     23  N   UNL     1       5.343   2.447  11.497  0.00  0.00    +0.000 N 
ATOM     24  O   UNL     1       5.919   1.379  11.238  0.00  0.00    +0.000 OA
ATOM     25  O   UNL     1       4.202   2.739  11.111  0.00  0.00    +0.000 OA
ENDBRANCH  21  23
ENDBRANCH   7  17
TORSDOF 2
ENDMDL
MODEL 2
REMARK VINA RESULT:      -9.4      0.931      1.145
REMARK  Name = 
REMARK  2 active torsions:
REMARK  status: ('A' for Active; 'I' for Inactive)
REMARK    1  A    between atoms: C_7  and  C_8
REMARK    2  A    between atoms: C_12  and  N_13
REMARK                            x       y       z     vdW  Elec       q    Type
REMARK                         _______ _______ _______ _____ _____    ______ ____
ROOT
ATOM      1  O   UNL     1       1.870   5.453  20.658  0.00  0.00    +0.000 OA
ATOM      2  C   UNL     1       2.546   5.466  19.642  0.00  0.00    +0.000 C 
ATOM      3  N   UNL     1       3.163   6.593  19.128  0.00  0.00    +0.000 N 
ATOM      4  C   UNL     1       3.855   6.311  17.969  0.00  0.00    +0.000 A 
ATOM      5  C   UNL     1       4.572   7.197  17.201  0.00  0.00    +0.000 A 
ATOM      6  C   UNL     1       5.194   6.695  16.055  0.00  0.00    +0.000 A 
ATOM      7  C   UNL     1       5.120   5.323  15.691  0.00  0.00    +0.000 A 
ATOM      8  C   UNL     1       4.370   4.457  16.520  0.00  0.00    +0.000 A 
ATOM      9  C   UNL     1       3.736   4.961  17.651  0.00  0.00    +0.000 A 
ATOM     10  C   UNL     1       2.874   4.267  18.699  0.00  0.00    +0.000 C 
ATOM     11  C   UNL     1       1.585   3.703  18.077  0.00  0.00    +0.000 C 
ATOM     12  C   UNL     1       0.743   2.901  19.072  0.00  0.00    +0.000 C 
ATOM     13  C   UNL     1       1.559   1.822  19.772  0.00  0.00    +0.000 C 
ATOM     14  C   UNL     1       2.806   2.394  20.439  0.00  0.00    +0.000 C 
ATOM     15  C   UNL     1       3.668   3.190  19.456  0.00  0.00    +0.000 C 
ATOM     16  H   UNL     1       3.094   7.498  19.572  0.00  0.00    +0.000 HD
ENDROOT
BRANCH   7  17
ATOM     17  C   UNL     1       5.823   4.823  14.482  0.00  0.00    +0.000 A 
ATOM     18  C   UNL     1       7.128   5.242  14.160  0.00  0.00    +0.000 A 
ATOM     19  C   UNL     1       7.788   4.787  13.010  0.00  0.00    +0.000 A 
ATOM     20  C   UNL     1       7.161   3.887  12.152  0.00  0.00    +0.000 A 
ATOM     21  C   UNL     1       5.870   3.448  12.456  0.00  0.00    +0.000 A 
ATOM     22  C   UNL     1       5.205   3.912  13.603  0.00  0.00    +0.000 A 
BRANCH  21  23
ATOM     23  N   UNL     1       5.198   2.495  11.563  0.00  0.00    +0.000 N 
ATOM     24  O   UNL     1       4.086   2.809  11.113  0.00  0.00    +0.000 OA
ATOM     25  O   UNL     1       5.783   1.432  11.309  0.00  0.00    +0.000 OA
ENDBRANCH  21  23
ENDBRANCH   7  17
TORSDOF 2
ENDMDL
MODEL 3
REMARK VINA RESULT:      -8.3      4.634      8.461
REMARK  Name = 
REMARK  2 active torsions:
REMARK  status: ('A' for Active; 'I' for Inactive)
REMARK    1  A    between atoms: C_7  and  C_8
REMARK    2  A    between atoms: C_12  and  N_13
REMARK                            x       y       z     vdW  Elec       q    Type
REMARK                         _______ _______ _______ _____ _____    ______ ____
ROOT
ATOM      1  O   UNL     1       4.008   2.963  17.924  0.00  0.00    +0.000 OA
ATOM      2  C   UNL     1       3.584   4.091  18.116  0.00  0.00    +0.000 C 
ATOM      3  N   UNL     1       3.987   5.209  17.406  0.00  0.00    +0.000 N 
ATOM      4  C   UNL     1       3.344   6.349  17.843  0.00  0.00    +0.000 A 
ATOM      5  C   UNL     1       3.513   7.625  17.363  0.00  0.00    +0.000 A 
ATOM      6  C   UNL     1       2.760   8.639  17.960  0.00  0.00    +0.000 A 
ATOM      7  C   UNL     1       1.835   8.381  19.007  0.00  0.00    +0.000 A 
ATOM      8  C   UNL     1       1.702   7.047  19.459  0.00  0.00    +0.000 A 
ATOM      9  C   UNL     1       2.465   6.041  18.877  0.00  0.00    +0.000 A 
ATOM     10  C   UNL     1       2.526   4.546  19.168  0.00  0.00    +0.000 C 
ATOM     11  C   UNL     1       3.033   4.275  20.594  0.00  0.00    +0.000 C 
ATOM     12  C   UNL     1       3.004   2.791  20.966  0.00  0.00    +0.000 C 
ATOM     13  C   UNL     1       1.637   2.166  20.717  0.00  0.00    +0.000 C 
ATOM     14  C   UNL     1       1.163   2.385  19.285  0.00  0.00    +0.000 C 
ATOM     15  C   UNL     1       1.174   3.865  18.897  0.00  0.00    +0.000 C 
ATOM     16  H   UNL     1       4.672   5.162  16.665  0.00  0.00    +0.000 HD
ENDROOT
BRANCH   7  17
ATOM     17  C   UNL     1       1.029   9.483  19.593  0.00  0.00    +0.000 A 
ATOM     18  C   UNL     1       0.638  10.599  18.829  0.00  0.00    +0.000 A 
ATOM     19  C   UNL     1      -0.107  11.649  19.383  0.00  0.00    +0.000 A 
ATOM     20  C   UNL     1      -0.491  11.607  20.720  0.00  0.00    +0.000 A 
ATOM     21  C   UNL     1      -0.124  10.505  21.496  0.00  0.00    +0.000 A 
ATOM     22  C   UNL     1       0.630   9.457  20.944  0.00  0.00    +0.000 A 
BRANCH  21  23
ATOM     23  N   UNL     1      -0.526  10.444  22.907  0.00  0.00    +0.000 N 
ATOM     24  O   UNL     1      -1.566  11.033  23.239  0.00  0.00    +0.000 OA
ATOM     25  O   UNL     1       0.196   9.805  23.686  0.00  0.00    +0.000 OA
ENDBRANCH  21  23
ENDBRANCH   7  17
TORSDOF 2
ENDMDL
MODEL 4
REMARK VINA RESULT:      -8.1      4.260      8.435
REMARK  Name = 
REMARK  2 active torsions:
REMARK  status: ('A' for Active; 'I' for Inactive)
REMARK    1  A    between atoms: C_7  and  C_8
REMARK    2  A    between atoms: C_12  and  N_13
REMARK                            x       y       z     vdW  Elec       q    Type
REMARK                         _______ _______ _______ _____ _____    ______ ____
ROOT
ATOM      1  O   UNL     1       5.203   2.318  18.882  0.00  0.00    +0.000 OA
ATOM      2  C   UNL     1       4.509   3.292  19.129  0.00  0.00    +0.000 C 
ATOM      3  N   UNL     1       3.453   3.292  20.023  0.00  0.00    +0.000 N 
ATOM      4  C   UNL     1       2.847   4.529  20.095  0.00  0.00    +0.000 A 
ATOM      5  C   UNL     1       1.770   4.875  20.876  0.00  0.00    +0.000 A 
ATOM      6  C   UNL     1       1.312   6.192  20.788  0.00  0.00    +0.000 A 
ATOM      7  C   UNL     1       1.931   7.157  19.949  0.00  0.00    +0.000 A 
ATOM      8  C   UNL     1       3.037   6.744  19.170  0.00  0.00    +0.000 A 
ATOM      9  C   UNL     1       3.483   5.429  19.244  0.00  0.00    +0.000 A 
ATOM     10  C   UNL     1       4.627   4.725  18.524  0.00  0.00    +0.000 C 
ATOM     11  C   UNL     1       4.392   4.689  17.004  0.00  0.00    +0.000 C 
ATOM     12  C   UNL     1       5.570   4.090  16.232  0.00  0.00    +0.000 C 
ATOM     13  C   UNL     1       6.889   4.762  16.591  0.00  0.00    +0.000 C 
ATOM     14  C   UNL     1       7.148   4.743  18.093  0.00  0.00    +0.000 C 
ATOM     15  C   UNL     1       5.985   5.349  18.883  0.00  0.00    +0.000 C 
ATOM     16  H   UNL     1       3.183   2.469  20.543  0.00  0.00    +0.000 HD
ENDROOT
BRANCH   7  17
ATOM     17  C   UNL     1       1.433   8.556  19.909  0.00  0.00    +0.000 A 
ATOM     18  C   UNL     1       1.495   9.329  18.733  0.00  0.00    +0.000 A 
ATOM     19  C   UNL     1       1.043  10.655  18.697  0.00  0.00    +0.000 A 
ATOM     20  C   UNL     1       0.503  11.243  19.838  0.00  0.00    +0.000 A 
ATOM     21  C   UNL     1       0.421  10.493  21.013  0.00  0.00    +0.000 A 
ATOM     22  C   UNL     1       0.883   9.167  21.052  0.00  0.00    +0.000 A 
BRANCH  21  23
ATOM     23  N   UNL     1      -0.150  11.099  22.223  0.00  0.00    +0.000 N 
ATOM     24  O   UNL     1      -0.109  10.442  23.274  0.00  0.00    +0.000 OA
ATOM     25  O   UNL     1      -0.639  12.234  22.123  0.00  0.00    +0.000 OA
ENDBRANCH  21  23
ENDBRANCH   7  17
TORSDOF 2
ENDMDL
MODEL 5
REMARK VINA RESULT:      -8.0      4.886      7.490
REMARK  Name = 
REMARK  2 active torsions:
REMARK  status: ('A' for Active; 'I' for Inactive)
REMARK    1  A    between atoms: C_7  and  C_8
REMARK    2  A    between atoms: C_12  and  N_13
REMARK                            x       y       z     vdW  Elec       q    Type
REMARK                         _______ _______ _______ _____ _____    ______ ____
ROOT
ATOM      1  O   UNL     1       4.174   2.886  18.839  0.00  0.00    +0.000 OA
ATOM      2  C   UNL     1       3.787   4.032  18.682  0.00  0.00    +0.000 C 
ATOM      3  N   UNL     1       4.431   4.974  17.898  0.00  0.00    +0.000 N 
ATOM      4  C   UNL     1       3.770   6.185  17.910  0.00  0.00    +0.000 A 
ATOM      5  C   UNL     1       4.138   7.331  17.247  0.00  0.00    +0.000 A 
ATOM      6  C   UNL     1       3.321   8.454  17.406  0.00  0.00    +0.000 A 
ATOM      7  C   UNL     1       2.141   8.428  18.197  0.00  0.00    +0.000 A 
ATOM      8  C   UNL     1       1.811   7.219  18.854  0.00  0.00    +0.000 A 
ATOM      9  C   UNL     1       2.634   6.107  18.710  0.00  0.00    +0.000 A 
ATOM     10  C   UNL     1       2.522   4.706  19.300  0.00  0.00    +0.000 C 
ATOM     11  C   UNL     1       2.623   4.735  20.834  0.00  0.00    +0.000 C 
ATOM     12  C   UNL     1       2.404   3.362  21.473  0.00  0.00    +0.000 C 
ATOM     13  C   UNL     1       1.112   2.710  20.997  0.00  0.00    +0.000 C 
ATOM     14  C   UNL     1       1.042   2.628  19.476  0.00  0.00    +0.000 C 
ATOM     15  C   UNL     1       1.247   3.994  18.819  0.00  0.00    +0.000 C 
ATOM     16  H   UNL     1       5.280   4.768  17.391  0.00  0.00    +0.000 HD
ENDROOT
BRANCH   7  17
ATOM     17  C   UNL     1       1.282   9.634  18.314  0.00  0.00    +0.000 A 
ATOM     18  C   UNL     1       1.825  10.903  18.593  0.00  0.00    +0.000 A 
ATOM     19  C   UNL     1       1.015  12.040  18.722  0.00  0.00    +0.000 A 
ATOM     20  C   UNL     1      -0.364  11.940  18.563  0.00  0.00    +0.000 A 
ATOM     21  C   UNL     1      -0.925  10.694  18.274  0.00  0.00    +0.000 A 
ATOM     22  C   UNL     1      -0.115   9.553  18.155  0.00  0.00    +0.000 A 
BRANCH  21  23
ATOM     23  N   UNL     1      -2.378  10.574  18.099  0.00  0.00    +0.000 N 
ATOM     24  O   UNL     1      -2.811   9.564  17.524  0.00  0.00    +0.000 OA
ATOM     25  O   UNL     1      -3.089  11.490  18.539  0.00  0.00    +0.000 OA
ENDBRANCH  21  23
ENDBRANCH   7  17
TORSDOF 2
ENDMDL
MODEL 6
REMARK VINA RESULT:      -7.8      4.956      7.688
REMARK  Name = 
REMARK  2 active torsions:
REMARK  status: ('A' for Active; 'I' for Inactive)
REMARK    1  A    between atoms: C_7  and  C_8
REMARK    2  A    between atoms: C_12  and  N_13
REMARK                            x       y       z     vdW  Elec       q    Type
REMARK                         _______ _______ _______ _____ _____    ______ ____
ROOT
ATOM      1  O   UNL     1       4.163   2.796  18.817  0.00  0.00    +0.000 OA
ATOM      2  C   UNL     1       3.795   3.949  18.663  0.00  0.00    +0.000 C 
ATOM      3  N   UNL     1       4.454   4.882  17.882  0.00  0.00    +0.000 N 
ATOM      4  C   UNL     1       3.814   6.104  17.899  0.00  0.00    +0.000 A 
ATOM      5  C   UNL     1       4.201   7.246  17.240  0.00  0.00    +0.000 A 
ATOM      6  C   UNL     1       3.404   8.382  17.403  0.00  0.00    +0.000 A 
ATOM      7  C   UNL     1       2.224   8.373  18.195  0.00  0.00    +0.000 A 
ATOM      8  C   UNL     1       1.874   7.168  18.848  0.00  0.00    +0.000 A 
ATOM      9  C   UNL     1       2.677   6.043  18.700  0.00  0.00    +0.000 A 
ATOM     10  C   UNL     1       2.542   4.642  19.285  0.00  0.00    +0.000 C 
ATOM     11  C   UNL     1       2.645   4.664  20.819  0.00  0.00    +0.000 C 
ATOM     12  C   UNL     1       2.403   3.293  21.454  0.00  0.00    +0.000 C 
ATOM     13  C   UNL     1       1.100   2.664  20.976  0.00  0.00    +0.000 C 
ATOM     14  C   UNL     1       1.027   2.588  19.455  0.00  0.00    +0.000 C 
ATOM     15  C   UNL     1       1.255   3.954  18.802  0.00  0.00    +0.000 C 
ATOM     16  H   UNL     1       5.300   4.663  17.374  0.00  0.00    +0.000 HD
ENDROOT
BRANCH   7  17
ATOM     17  C   UNL     1       1.386   9.593  18.317  0.00  0.00    +0.000 A 
ATOM     18  C   UNL     1      -0.021   9.527  18.309  0.00  0.00    +0.000 A 
ATOM     19  C   UNL     1      -0.815  10.678  18.405  0.00  0.00    +0.000 A 
ATOM     20  C   UNL     1      -0.221  11.932  18.521  0.00  0.00    +0.000 A 
ATOM     21  C   UNL     1       1.172  12.023  18.541  0.00  0.00    +0.000 A 
ATOM     22  C   UNL     1       1.969  10.870  18.437  0.00  0.00    +0.000 A 
BRANCH  21  23
ATOM     23  N   UNL     1       1.813  13.338  18.669  0.00  0.00    +0.000 N 
ATOM     24  O   UNL     1       1.081  14.325  18.834  0.00  0.00    +0.000 OA
ATOM     25  O   UNL     1       3.050  13.385  18.606  0.00  0.00    +0.000 OA
ENDBRANCH  21  23
ENDBRANCH   7  17
TORSDOF 2
ENDMDL
MODEL 7
REMARK VINA RESULT:      -7.8      4.873      8.117
REMARK  Name = 
REMARK  2 active torsions:
REMARK  status: ('A' for Active; 'I' for Inactive)
REMARK    1  A    between atoms: C_7  and  C_8
REMARK    2  A    between atoms: C_12  and  N_13
REMARK                            x       y       z     vdW  Elec       q    Type
REMARK                         _______ _______ _______ _____ _____    ______ ____
ROOT
ATOM      1  O   UNL     1       4.221   2.967  18.900  0.00  0.00    +0.000 OA
ATOM      2  C   UNL     1       3.766   4.093  18.782  0.00  0.00    +0.000 C 
ATOM      3  N   UNL     1       4.337   5.089  18.009  0.00  0.00    +0.000 N 
ATOM      4  C   UNL     1       3.609   6.260  18.068  0.00  0.00    +0.000 A 
ATOM      5  C   UNL     1       3.897   7.442  17.428  0.00  0.00    +0.000 A 
ATOM      6  C   UNL     1       3.021   8.511  17.634  0.00  0.00    +0.000 A 
ATOM      7  C   UNL     1       1.863   8.397  18.449  0.00  0.00    +0.000 A 
ATOM      8  C   UNL     1       1.617   7.155  19.081  0.00  0.00    +0.000 A 
ATOM      9  C   UNL     1       2.498   6.097  18.890  0.00  0.00    +0.000 A 
ATOM     10  C   UNL     1       2.479   4.677  19.444  0.00  0.00    +0.000 C 
ATOM     11  C   UNL     1       2.613   4.673  20.976  0.00  0.00    +0.000 C 
ATOM     12  C   UNL     1       2.487   3.274  21.583  0.00  0.00    +0.000 C 
ATOM     13  C   UNL     1       1.224   2.560  21.117  0.00  0.00    +0.000 C 
ATOM     14  C   UNL     1       1.124   2.513  19.596  0.00  0.00    +0.000 C 
ATOM     15  C   UNL     1       1.236   3.905  18.971  0.00  0.00    +0.000 C 
ATOM     16  H   UNL     1       5.186   4.945  17.480  0.00  0.00    +0.000 HD
ENDROOT
BRANCH   7  17
ATOM     17  C   UNL     1       0.940   9.549  18.616  0.00  0.00    +0.000 A 
ATOM     18  C   UNL     1      -0.246   9.660  17.864  0.00  0.00    +0.000 A 
ATOM     19  C   UNL     1      -1.110  10.755  18.005  0.00  0.00    +0.000 A 
ATOM     20  C   UNL     1      -0.816  11.767  18.914  0.00  0.00    +0.000 A 
ATOM     21  C   UNL     1       0.349  11.674  19.680  0.00  0.00    +0.000 A 
ATOM     22  C   UNL     1       1.220  10.582  19.532  0.00  0.00    +0.000 A 
BRANCH  21  23
ATOM     23  N   UNL     1       0.669  12.732  20.646  0.00  0.00    +0.000 N 
ATOM     24  O   UNL     1      -0.198  13.587  20.878  0.00  0.00    +0.000 OA
ATOM     25  O   UNL     1       1.789  12.707  21.177  0.00  0.00    +0.000 OA
ENDBRANCH  21  23
ENDBRANCH   7  17
TORSDOF 2
ENDMDL
MODEL 8
REMARK VINA RESULT:      -7.7      5.007      7.643
REMARK  Name = 
REMARK  2 active torsions:
REMARK  status: ('A' for Active; 'I' for Inactive)
REMARK    1  A    between atoms: C_7  and  C_8
REMARK    2  A    between atoms: C_12  and  N_13
REMARK                            x       y       z     vdW  Elec       q    Type
REMARK                         _______ _______ _______ _____ _____    ______ ____
ROOT
ATOM      1  O   UNL     1       1.081  12.380  18.510  0.00  0.00    +0.000 OA
ATOM      2  C   UNL     1       1.336  11.192  18.624  0.00  0.00    +0.000 C 
ATOM      3  N   UNL     1       2.228  10.503  17.820  0.00  0.00    +0.000 N 
ATOM      4  C   UNL     1       2.312   9.173  18.177  0.00  0.00    +0.000 A 
ATOM      5  C   UNL     1       3.093   8.209  17.585  0.00  0.00    +0.000 A 
ATOM      6  C   UNL     1       3.018   6.915  18.106  0.00  0.00    +0.000 A 
ATOM      7  C   UNL     1       2.191   6.590  19.214  0.00  0.00    +0.000 A 
ATOM      8  C   UNL     1       1.410   7.623  19.784  0.00  0.00    +0.000 A 
ATOM      9  C   UNL     1       1.472   8.907  19.254  0.00  0.00    +0.000 A 
ATOM     10  C   UNL     1       0.747  10.185  19.661  0.00  0.00    +0.000 C 
ATOM     11  C   UNL     1      -0.773  10.048  19.474  0.00  0.00    +0.000 C 
ATOM     12  C   UNL     1      -1.549  11.269  19.975  0.00  0.00    +0.000 C 
ATOM     13  C   UNL     1      -1.179  11.632  21.407  0.00  0.00    +0.000 C 
ATOM     14  C   UNL     1       0.324  11.826  21.576  0.00  0.00    +0.000 C 
ATOM     15  C   UNL     1       1.117  10.610  21.091  0.00  0.00    +0.000 C 
ATOM     16  H   UNL     1       2.738  10.949  17.071  0.00  0.00    +0.000 HD
ENDROOT
BRANCH   7  17
ATOM     17  C   UNL     1       2.165   5.208  19.759  0.00  0.00    +0.000 A 
ATOM     18  C   UNL     1       1.141   4.773  20.622  0.00  0.00    +0.000 A 
ATOM     19  C   UNL     1       1.123   3.475  21.153  0.00  0.00    +0.000 A 
ATOM     20  C   UNL     1       2.128   2.570  20.823  0.00  0.00    +0.000 A 
ATOM     21  C   UNL     1       3.149   2.974  19.960  0.00  0.00    +0.000 A 
ATOM     22  C   UNL     1       3.172   4.277  19.436  0.00  0.00    +0.000 A 
BRANCH  21  23
ATOM     23  N   UNL     1       4.212   2.028  19.599  0.00  0.00    +0.000 N 
ATOM     24  O   UNL     1       5.217   1.983  20.324  0.00  0.00    +0.000 OA
ATOM     25  O   UNL     1       4.042   1.326  18.592  0.00  0.00    +0.000 OA
ENDBRANCH  21  23
ENDBRANCH   7  17
TORSDOF 2
ENDMDL
MODEL 9
REMARK VINA RESULT:      -7.7      4.988      7.956
REMARK  Name = 
REMARK  2 active torsions:
REMARK  status: ('A' for Active; 'I' for Inactive)
REMARK    1  A    between atoms: C_7  and  C_8
REMARK    2  A    between atoms: C_12  and  N_13
REMARK                            x       y       z     vdW  Elec       q    Type
REMARK                         _______ _______ _______ _____ _____    ______ ____
ROOT
ATOM      1  O   UNL     1       4.240   2.994  17.572  0.00  0.00    +0.000 OA
ATOM      2  C   UNL     1       3.792   4.108  17.791  0.00  0.00    +0.000 C 
ATOM      3  N   UNL     1       4.240   5.266  17.180  0.00  0.00    +0.000 N 
ATOM      4  C   UNL     1       3.554   6.376  17.626  0.00  0.00    +0.000 A 
ATOM      5  C   UNL     1       3.750   7.678  17.232  0.00  0.00    +0.000 A 
ATOM      6  C   UNL     1       2.942   8.654  17.822  0.00  0.00    +0.000 A 
ATOM      7  C   UNL     1       1.939   8.334  18.776  0.00  0.00    +0.000 A 
ATOM      8  C   UNL     1       1.782   6.976  19.141  0.00  0.00    +0.000 A 
ATOM      9  C   UNL     1       2.598   6.008  18.567  0.00  0.00    +0.000 A 
ATOM     10  C   UNL     1       2.648   4.499  18.779  0.00  0.00    +0.000 C 
ATOM     11  C   UNL     1       3.043   4.150  20.224  0.00  0.00    +0.000 C 
ATOM     12  C   UNL     1       2.997   2.648  20.510  0.00  0.00    +0.000 C 
ATOM     13  C   UNL     1       1.660   2.032  20.118  0.00  0.00    +0.000 C 
ATOM     14  C   UNL     1       1.300   2.329  18.666  0.00  0.00    +0.000 C 
ATOM     15  C   UNL     1       1.329   3.829  18.364  0.00  0.00    +0.000 C 
ATOM     16  H   UNL     1       4.982   5.263  16.494  0.00  0.00    +0.000 HD
ENDROOT
BRANCH   7  17
ATOM     17  C   UNL     1       1.079   9.398  19.355  0.00  0.00    +0.000 A 
ATOM     18  C   UNL     1       0.863   9.499  20.743  0.00  0.00    +0.000 A 
ATOM     19  C   UNL     1       0.038  10.490  21.292  0.00  0.00    +0.000 A 
ATOM     20  C   UNL     1      -0.588  11.418  20.464  0.00  0.00    +0.000 A 
ATOM     21  C   UNL     1      -0.381  11.345  19.085  0.00  0.00    +0.000 A 
ATOM     22  C   UNL     1       0.439  10.346  18.534  0.00  0.00    +0.000 A 
BRANCH  21  23
ATOM     23  N   UNL     1      -1.031  12.319  18.200  0.00  0.00    +0.000 N 
ATOM     24  O   UNL     1      -0.619  13.489  18.224  0.00  0.00    +0.000 OA
ATOM     25  O   UNL     1      -1.954  11.916  17.476  0.00  0.00    +0.000 OA
ENDBRANCH  21  23
ENDBRANCH   7  17
TORSDOF 2
ENDMDL
