MODEL 1
REMARK VINA RESULT:      -8.4      0.000      0.000
REMARK  Name = 
REMARK  7 active torsions:
REMARK  status: ('A' for Active; 'I' for Inactive)
REMARK    1  A    between atoms: C_1  and  C_2
REMARK    2  A    between atoms: C_2  and  C_3
REMARK    3  A    between atoms: C_8  and  C_9
REMARK    4  A    between atoms: C_9  and  O_10
REMARK    5  A    between atoms: C_9  and  C_11
REMARK    6  A    between atoms: N_13  and  C_14
REMARK    7  A    between atoms: C_14  and  C_15
REMARK                            x       y       z     vdW  Elec       q    Type
REMARK                         _______ _______ _______ _____ _____    ______ ____
ROOT
ATOM      1  C   UNL     1       7.356   5.768  16.911  0.00  0.00    +0.000 C 
ENDROOT
BRANCH   1   9
ATOM      2  C   UNL     1       2.078   4.671  21.285  0.00  0.00    +0.000 C 
ATOM      3  C   UNL     1       2.051   3.733  20.069  0.00  0.00    +0.000 C 
ATOM      4  C   UNL     1       0.682   3.045  19.986  0.00  0.00    +0.000 C 
ATOM      5  C   UNL     1       3.141   2.692  20.205  0.00  0.00    +0.000 C 
ATOM      6  C   UNL     1       4.320   2.811  19.584  0.00  0.00    +0.000 C 
ATOM      7  C   UNL     1       4.516   3.988  18.746  0.00  0.00    +0.000 A 
ATOM      8  C   UNL     1       5.785   4.316  18.254  0.00  0.00    +0.000 A 
ATOM      9  C   UNL     1       5.964   5.424  17.410  0.00  0.00    +0.000 A 
ATOM     10  C   UNL     1       4.835   6.177  17.039  0.00  0.00    +0.000 A 
ATOM     11  C   UNL     1       3.570   5.856  17.537  0.00  0.00    +0.000 A 
ATOM     12  C   UNL     1       3.418   4.780  18.407  0.00  0.00    +0.000 A 
ATOM     13  O   UNL     1       2.153   4.540  18.874  0.00  0.00    +0.000 OA
ENDBRANCH   1   9
BRANCH   1  14
ATOM     14  C   UNL     1       7.730   7.065  17.552  0.00  0.00    +0.000 A 
ATOM     15  C   UNL     1       7.475   8.361  17.150  0.00  0.00    +0.000 A 
ATOM     16  N   UNL     1       8.100   9.129  18.086  0.00  0.00    +0.000 N 
ATOM     17  N   UNL     1       8.623   8.368  19.067  0.00  0.00    +0.000 NA
ATOM     18  N   UNL     1       8.418   7.100  18.742  0.00  0.00    +0.000 NA
BRANCH  16  19
ATOM     19  C   UNL     1       8.185  10.578  18.145  0.00  0.00    +0.000 C 
BRANCH  19  20
ATOM     20  C   UNL     1       9.505  11.053  18.703  0.00  0.00    +0.000 A 
ATOM     21  C   UNL     1      10.615  11.235  17.864  0.00  0.00    +0.000 A 
ATOM     22  C   UNL     1      11.821  11.718  18.377  0.00  0.00    +0.000 A 
ATOM     23  C   UNL     1      11.934  12.025  19.732  0.00  0.00    +0.000 A 
ATOM     24  C   UNL     1      10.843  11.844  20.577  0.00  0.00    +0.000 A 
ATOM     25  C   UNL     1       9.636  11.363  20.067  0.00  0.00    +0.000 A 
ENDBRANCH  19  20
ENDBRANCH  16  19
ENDBRANCH   1  14
BRANCH   1  26
ATOM     26  O   UNL     1       7.358   5.810  15.487  0.00  0.00    +0.000 OA
ATOM     27  H   UNL     1       7.005   4.949  15.198  0.00  0.00    +0.000 HD
ENDBRANCH   1  26
TORSDOF 5
ENDMDL
MODEL 2
REMARK VINA RESULT:      -8.3      4.600      6.875
REMARK  Name = 
REMARK  7 active torsions:
REMARK  status: ('A' for Active; 'I' for Inactive)
REMARK    1  A    between atoms: C_1  and  C_2
REMARK    2  A    between atoms: C_2  and  C_3
REMARK    3  A    between atoms: C_8  and  C_9
REMARK    4  A    between atoms: C_9  and  O_10
REMARK    5  A    between atoms: C_9  and  C_11
REMARK    6  A    between atoms: N_13  and  C_14
REMARK    7  A    between atoms: C_14  and  C_15
REMARK                            x       y       z     vdW  Elec       q    Type
REMARK                         _______ _______ _______ _____ _____    ______ ____
ROOT
ATOM      1  C   UNL     1       2.972   4.324  18.466  0.00  0.00    +0.000 C 
ENDROOT
BRANCH   1   9
ATOM      2  C   UNL     1      -0.761  10.120  19.276  0.00  0.00    +0.000 C 
ATOM      3  C   UNL     1       0.728  10.322  19.586  0.00  0.00    +0.000 C 
ATOM      4  C   UNL     1       0.922  11.659  20.313  0.00  0.00    +0.000 C 
ATOM      5  C   UNL     1       1.521  10.320  18.296  0.00  0.00    +0.000 C 
ATOM      6  C   UNL     1       2.169   9.233  17.862  0.00  0.00    +0.000 C 
ATOM      7  C   UNL     1       2.098   8.038  18.693  0.00  0.00    +0.000 A 
ATOM      8  C   UNL     1       2.538   6.799  18.209  0.00  0.00    +0.000 A 
ATOM      9  C   UNL     1       2.511   5.658  19.027  0.00  0.00    +0.000 A 
ATOM     10  C   UNL     1       2.066   5.791  20.354  0.00  0.00    +0.000 A 
ATOM     11  C   UNL     1       1.618   7.024  20.835  0.00  0.00    +0.000 A 
ATOM     12  C   UNL     1       1.612   8.136  19.997  0.00  0.00    +0.000 A 
ATOM     13  O   UNL     1       1.136   9.305  20.529  0.00  0.00    +0.000 OA
ENDBRANCH   1   9
BRANCH   1  14
ATOM     14  C   UNL     1       4.390   4.510  18.034  0.00  0.00    +0.000 A 
ATOM     15  C   UNL     1       4.903   5.085  16.888  0.00  0.00    +0.000 A 
ATOM     16  N   UNL     1       6.250   4.924  17.010  0.00  0.00    +0.000 N 
ATOM     17  N   UNL     1       6.569   4.379  18.200  0.00  0.00    +0.000 NA
ATOM     18  N   UNL     1       5.436   4.104  18.830  0.00  0.00    +0.000 NA
BRANCH  16  19
ATOM     19  C   UNL     1       7.288   5.318  16.071  0.00  0.00    +0.000 C 
BRANCH  19  20
ATOM     20  C   UNL     1       7.010   4.826  14.671  0.00  0.00    +0.000 A 
ATOM     21  C   UNL     1       7.744   5.316  13.580  0.00  0.00    +0.000 A 
ATOM     22  C   UNL     1       7.516   4.826  12.292  0.00  0.00    +0.000 A 
ATOM     23  C   UNL     1       6.554   3.840  12.078  0.00  0.00    +0.000 A 
ATOM     24  C   UNL     1       5.814   3.349  13.150  0.00  0.00    +0.000 A 
ATOM     25  C   UNL     1       6.041   3.836  14.438  0.00  0.00    +0.000 A 
ENDBRANCH  19  20
ENDBRANCH  16  19
ENDBRANCH   1  14
BRANCH   1  26
ATOM     26  O   UNL     1       2.100   3.920  17.414  0.00  0.00    +0.000 OA
ATOM     27  H   UNL     1       2.428   4.367  16.614  0.00  0.00    +0.000 HD
ENDBRANCH   1  26
TORSDOF 5
ENDMDL
MODEL 3
REMARK VINA RESULT:      -8.1      7.082      9.969
REMARK  Name = 
REMARK  7 active torsions:
REMARK  status: ('A' for Active; 'I' for Inactive)
REMARK    1  A    between atoms: C_1  and  C_2
REMARK    2  A    between atoms: C_2  and  C_3
REMARK    3  A    between atoms: C_8  and  C_9
REMARK    4  A    between atoms: C_9  and  O_10
REMARK    5  A    between atoms: C_9  and  C_11
REMARK    6  A    between atoms: N_13  and  C_14
REMARK    7  A    between atoms: C_14  and  C_15
REMARK                            x       y       z     vdW  Elec       q    Type
REMARK                         _______ _______ _______ _____ _____    ______ ____
ROOT
ATOM      1  C   UNL     1       0.795  11.121  18.361  0.00  0.00    +0.000 C 
ENDROOT
BRANCH   1   9
ATOM      2  C   UNL     1      -5.883  12.554  17.118  0.00  0.00    +0.000 C 
ATOM      3  C   UNL     1      -5.685  11.641  18.336  0.00  0.00    +0.000 C 
ATOM      4  C   UNL     1      -7.032  11.025  18.737  0.00  0.00    +0.000 C 
ATOM      5  C   UNL     1      -5.126  12.445  19.490  0.00  0.00    +0.000 C 
ATOM      6  C   UNL     1      -3.821  12.452  19.785  0.00  0.00    +0.000 C 
ATOM      7  C   UNL     1      -2.945  11.634  18.956  0.00  0.00    +0.000 A 
ATOM      8  C   UNL     1      -1.553  11.762  19.036  0.00  0.00    +0.000 A 
ATOM      9  C   UNL     1      -0.710  10.941  18.270  0.00  0.00    +0.000 A 
ATOM     10  C   UNL     1      -1.293   9.961  17.446  0.00  0.00    +0.000 A 
ATOM     11  C   UNL     1      -2.682   9.839  17.358  0.00  0.00    +0.000 A 
ATOM     12  C   UNL     1      -3.503  10.690  18.092  0.00  0.00    +0.000 A 
ATOM     13  O   UNL     1      -4.854  10.528  17.937  0.00  0.00    +0.000 OA
ENDBRANCH   1   9
BRANCH   1  14
ATOM     14  C   UNL     1       1.362   9.789  18.728  0.00  0.00    +0.000 A 
ATOM     15  C   UNL     1       2.180   8.941  18.008  0.00  0.00    +0.000 A 
ATOM     16  N   UNL     1       2.328   7.854  18.816  0.00  0.00    +0.000 N 
ATOM     17  N   UNL     1       1.728   8.050  20.007  0.00  0.00    +0.000 NA
ATOM     18  N   UNL     1       1.117   9.225  19.959  0.00  0.00    +0.000 NA
BRANCH  16  19
ATOM     19  C   UNL     1       3.070   6.634  18.550  0.00  0.00    +0.000 C 
BRANCH  19  20
ATOM     20  C   UNL     1       2.315   5.399  18.981  0.00  0.00    +0.000 A 
ATOM     21  C   UNL     1       2.112   5.120  20.341  0.00  0.00    +0.000 A 
ATOM     22  C   UNL     1       1.374   4.001  20.734  0.00  0.00    +0.000 A 
ATOM     23  C   UNL     1       0.830   3.148  19.776  0.00  0.00    +0.000 A 
ATOM     24  C   UNL     1       1.028   3.409  18.423  0.00  0.00    +0.000 A 
ATOM     25  C   UNL     1       1.764   4.527  18.027  0.00  0.00    +0.000 A 
ENDBRANCH  19  20
ENDBRANCH  16  19
ENDBRANCH   1  14
BRANCH   1  26
ATOM     26  O   UNL     1       1.098  12.152  19.297  0.00  0.00    +0.000 OA
ATOM     27  H   UNL     1       1.312  11.696  20.130  0.00  0.00    +0.000 HD
ENDBRANCH   1  26
TORSDOF 5
ENDMDL
MODEL 4
REMARK VINA RESULT:      -8.0      0.856      1.584
REMARK  Name = 
REMARK  7 active torsions:
REMARK  status: ('A' for Active; 'I' for Inactive)
REMARK    1  A    between atoms: C_1  and  C_2
REMARK    2  A    between atoms: C_2  and  C_3
REMARK    3  A    between atoms: C_8  and  C_9
REMARK    4  A    between atoms: C_9  and  O_10
REMARK    5  A    between atoms: C_9  and  C_11
REMARK    6  A    between atoms: N_13  and  C_14
REMARK    7  A    between atoms: C_14  and  C_15
REMARK                            x       y       z     vdW  Elec       q    Type
REMARK                         _______ _______ _______ _____ _____    ______ ____
ROOT
ATOM      1  C   UNL     1       7.140   5.820  16.817  0.00  0.00    +0.000 C 
ENDROOT
BRANCH   1   9
ATOM      2  C   UNL     1       1.883   1.802  18.916  0.00  0.00    +0.000 C 
ATOM      3  C   UNL     1       1.758   3.251  19.404  0.00  0.00    +0.000 C 
ATOM      4  C   UNL     1       0.686   3.331  20.499  0.00  0.00    +0.000 C 
ATOM      5  C   UNL     1       1.374   4.147  18.246  0.00  0.00    +0.000 C 
ATOM      6  C   UNL     1       2.279   4.872  17.578  0.00  0.00    +0.000 C 
ATOM      7  C   UNL     1       3.665   4.781  18.020  0.00  0.00    +0.000 A 
ATOM      8  C   UNL     1       4.703   5.309  17.243  0.00  0.00    +0.000 A 
ATOM      9  C   UNL     1       6.033   5.260  17.693  0.00  0.00    +0.000 A 
ATOM     10  C   UNL     1       6.296   4.703  18.957  0.00  0.00    +0.000 A 
ATOM     11  C   UNL     1       5.262   4.168  19.728  0.00  0.00    +0.000 A 
ATOM     12  C   UNL     1       3.956   4.185  19.249  0.00  0.00    +0.000 A 
ATOM     13  O   UNL     1       2.998   3.620  20.048  0.00  0.00    +0.000 OA
ENDBRANCH   1   9
BRANCH   1  14
ATOM     14  C   UNL     1       7.582   7.098  17.451  0.00  0.00    +0.000 A 
ATOM     15  C   UNL     1       7.297   8.405  17.110  0.00  0.00    +0.000 A 
ATOM     16  N   UNL     1       8.015   9.145  18.001  0.00  0.00    +0.000 N 
ATOM     17  N   UNL     1       8.626   8.356  18.906  0.00  0.00    +0.000 NA
ATOM     18  N   UNL     1       8.383   7.098  18.569  0.00  0.00    +0.000 NA
BRANCH  16  19
ATOM     19  C   UNL     1       8.113  10.592  18.089  0.00  0.00    +0.000 C 
BRANCH  19  20
ATOM     20  C   UNL     1       9.447  11.043  18.635  0.00  0.00    +0.000 A 
ATOM     21  C   UNL     1      10.526  11.297  17.775  0.00  0.00    +0.000 A 
ATOM     22  C   UNL     1      11.744  11.758  18.280  0.00  0.00    +0.000 A 
ATOM     23  C   UNL     1      11.899  11.972  19.648  0.00  0.00    +0.000 A 
ATOM     24  C   UNL     1      10.839  11.719  20.514  0.00  0.00    +0.000 A 
ATOM     25  C   UNL     1       9.620  11.260  20.013  0.00  0.00    +0.000 A 
ENDBRANCH  19  20
ENDBRANCH  16  19
ENDBRANCH   1  14
BRANCH   1  26
ATOM     26  O   UNL     1       6.662   5.976  15.483  0.00  0.00    +0.000 OA
ATOM     27  H   UNL     1       6.066   5.222  15.327  0.00  0.00    +0.000 HD
ENDBRANCH   1  26
TORSDOF 5
ENDMDL
MODEL 5
REMARK VINA RESULT:      -7.9      3.451      5.781
REMARK  Name = 
REMARK  7 active torsions:
REMARK  status: ('A' for Active; 'I' for Inactive)
REMARK    1  A    between atoms: C_1  and  C_2
REMARK    2  A    between atoms: C_2  and  C_3
REMARK    3  A    between atoms: C_8  and  C_9
REMARK    4  A    between atoms: C_9  and  O_10
REMARK    5  A    between atoms: C_9  and  C_11
REMARK    6  A    between atoms: N_13  and  C_14
REMARK    7  A    between atoms: C_14  and  C_15
REMARK                            x       y       z     vdW  Elec       q    Type
REMARK                         _______ _______ _______ _____ _____    ______ ____
ROOT
ATOM      1  C   UNL     1       2.332   4.008  18.770  0.00  0.00    +0.000 C 
ENDROOT
BRANCH   1   9
ATOM      2  C   UNL     1      -0.594  10.288  19.212  0.00  0.00    +0.000 C 
ATOM      3  C   UNL     1       0.923  10.319  19.446  0.00  0.00    +0.000 C 
ATOM      4  C   UNL     1       1.320  11.674  20.045  0.00  0.00    +0.000 C 
ATOM      5  C   UNL     1       1.645  10.108  18.132  0.00  0.00    +0.000 C 
ATOM      6  C   UNL     1       2.128   8.914  17.770  0.00  0.00    +0.000 C 
ATOM      7  C   UNL     1       1.947   7.810  18.705  0.00  0.00    +0.000 A 
ATOM      8  C   UNL     1       2.203   6.490  18.315  0.00  0.00    +0.000 A 
ATOM      9  C   UNL     1       2.071   5.432  19.230  0.00  0.00    +0.000 A 
ATOM     10  C   UNL     1       1.713   5.731  20.556  0.00  0.00    +0.000 A 
ATOM     11  C   UNL     1       1.449   7.047  20.944  0.00  0.00    +0.000 A 
ATOM     12  C   UNL     1       1.542   8.077  20.013  0.00  0.00    +0.000 A 
ATOM     13  O   UNL     1       1.244   9.338  20.458  0.00  0.00    +0.000 OA
ENDBRANCH   1   9
BRANCH   1  14
ATOM     14  C   UNL     1       3.667   4.014  18.100  0.00  0.00    +0.000 A 
ATOM     15  C   UNL     1       4.922   4.263  18.619  0.00  0.00    +0.000 A 
ATOM     16  N   UNL     1       5.749   4.185  17.540  0.00  0.00    +0.000 N 
ATOM     17  N   UNL     1       5.074   3.809  16.436  0.00  0.00    +0.000 NA
ATOM     18  N   UNL     1       3.793   3.718  16.763  0.00  0.00    +0.000 NA
BRANCH  16  19
ATOM     19  C   UNL     1       7.187   4.391  17.497  0.00  0.00    +0.000 C 
BRANCH  19  20
ATOM     20  C   UNL     1       7.568   5.828  17.761  0.00  0.00    +0.000 A 
ATOM     21  C   UNL     1       7.252   6.835  16.837  0.00  0.00    +0.000 A 
ATOM     22  C   UNL     1       7.565   8.169  17.105  0.00  0.00    +0.000 A 
ATOM     23  C   UNL     1       8.197   8.515  18.299  0.00  0.00    +0.000 A 
ATOM     24  C   UNL     1       8.522   7.525  19.222  0.00  0.00    +0.000 A 
ATOM     25  C   UNL     1       8.209   6.191  18.957  0.00  0.00    +0.000 A 
ENDBRANCH  19  20
ENDBRANCH  16  19
ENDBRANCH   1  14
BRANCH   1  26
ATOM     26  O   UNL     1       1.267   3.575  17.927  0.00  0.00    +0.000 OA
ATOM     27  H   UNL     1       0.885   2.795  18.367  0.00  0.00    +0.000 HD
ENDBRANCH   1  26
TORSDOF 5
ENDMDL
MODEL 6
REMARK VINA RESULT:      -7.8      0.997      1.519
REMARK  Name = 
REMARK  7 active torsions:
REMARK  status: ('A' for Active; 'I' for Inactive)
REMARK    1  A    between atoms: C_1  and  C_2
REMARK    2  A    between atoms: C_2  and  C_3
REMARK    3  A    between atoms: C_8  and  C_9
REMARK    4  A    between atoms: C_9  and  O_10
REMARK    5  A    between atoms: C_9  and  C_11
REMARK    6  A    between atoms: N_13  and  C_14
REMARK    7  A    between atoms: C_14  and  C_15
REMARK                            x       y       z     vdW  Elec       q    Type
REMARK                         _______ _______ _______ _____ _____    ______ ____
ROOT
ATOM      1  C   UNL     1       7.431   5.945  17.084  0.00  0.00    +0.000 C 
ENDROOT
BRANCH   1   9
ATOM      2  C   UNL     1       2.231   4.458  21.435  0.00  0.00    +0.000 C 
ATOM      3  C   UNL     1       2.082   3.770  20.071  0.00  0.00    +0.000 C 
ATOM      4  C   UNL     1       0.658   3.218  19.930  0.00  0.00    +0.000 C 
ATOM      5  C   UNL     1       3.084   2.640  19.959  0.00  0.00    +0.000 C 
ATOM      6  C   UNL     1       4.247   2.783  19.312  0.00  0.00    +0.000 C 
ATOM      7  C   UNL     1       4.513   4.077  18.697  0.00  0.00    +0.000 A 
ATOM      8  C   UNL     1       5.788   4.392  18.211  0.00  0.00    +0.000 A 
ATOM      9  C   UNL     1       6.032   5.622  17.578  0.00  0.00    +0.000 A 
ATOM     10  C   UNL     1       4.959   6.516  17.409  0.00  0.00    +0.000 A 
ATOM     11  C   UNL     1       3.689   6.206  17.901  0.00  0.00    +0.000 A 
ATOM     12  C   UNL     1       3.476   5.001  18.564  0.00  0.00    +0.000 A 
ATOM     13  O   UNL     1       2.212   4.776  19.041  0.00  0.00    +0.000 OA
ENDBRANCH   1   9
BRANCH   1  14
ATOM     14  C   UNL     1       7.746   7.323  17.566  0.00  0.00    +0.000 A 
ATOM     15  C   UNL     1       8.578   7.740  18.586  0.00  0.00    +0.000 A 
ATOM     16  N   UNL     1       8.428   9.094  18.604  0.00  0.00    +0.000 N 
ATOM     17  N   UNL     1       7.637   9.509  17.596  0.00  0.00    +0.000 NA
ATOM     18  N   UNL     1       7.198   8.432  16.963  0.00  0.00    +0.000 NA
BRANCH  16  19
ATOM     19  C   UNL     1       9.051  10.052  19.503  0.00  0.00    +0.000 C 
BRANCH  19  20
ATOM     20  C   UNL     1       9.555  11.276  18.776  0.00  0.00    +0.000 A 
ATOM     21  C   UNL     1       8.899  12.510  18.908  0.00  0.00    +0.000 A 
ATOM     22  C   UNL     1       9.395  13.649  18.271  0.00  0.00    +0.000 A 
ATOM     23  C   UNL     1      10.550  13.572  17.495  0.00  0.00    +0.000 A 
ATOM     24  C   UNL     1      11.207  12.353  17.349  0.00  0.00    +0.000 A 
ATOM     25  C   UNL     1      10.715  11.213  17.987  0.00  0.00    +0.000 A 
ENDBRANCH  19  20
ENDBRANCH  16  19
ENDBRANCH   1  14
BRANCH   1  26
ATOM     26  O   UNL     1       7.481   5.807  15.666  0.00  0.00    +0.000 OA
ATOM     27  H   UNL     1       7.352   6.704  15.310  0.00  0.00    +0.000 HD
ENDBRANCH   1  26
TORSDOF 5
ENDMDL
MODEL 7
REMARK VINA RESULT:      -7.7      6.930      8.826
REMARK  Name = 
REMARK  7 active torsions:
REMARK  status: ('A' for Active; 'I' for Inactive)
REMARK    1  A    between atoms: C_1  and  C_2
REMARK    2  A    between atoms: C_2  and  C_3
REMARK    3  A    between atoms: C_8  and  C_9
REMARK    4  A    between atoms: C_9  and  O_10
REMARK    5  A    between atoms: C_9  and  C_11
REMARK    6  A    between atoms: N_13  and  C_14
REMARK    7  A    between atoms: C_14  and  C_15
REMARK                            x       y       z     vdW  Elec       q    Type
REMARK                         _______ _______ _______ _____ _____    ______ ____
ROOT
ATOM      1  C   UNL     1       0.955  10.851  18.524  0.00  0.00    +0.000 C 
ENDROOT
BRANCH   1   9
ATOM      2  C   UNL     1      -5.602  12.587  17.050  0.00  0.00    +0.000 C 
ATOM      3  C   UNL     1      -5.491  11.652  18.263  0.00  0.00    +0.000 C 
ATOM      4  C   UNL     1      -6.877  11.091  18.605  0.00  0.00    +0.000 C 
ATOM      5  C   UNL     1      -4.942  12.419  19.447  0.00  0.00    +0.000 C 
ATOM      6  C   UNL     1      -3.650  12.365  19.791  0.00  0.00    +0.000 C 
ATOM      7  C   UNL     1      -2.779  11.519  18.985  0.00  0.00    +0.000 A 
ATOM      8  C   UNL     1      -1.387  11.586  19.119  0.00  0.00    +0.000 A 
ATOM      9  C   UNL     1      -0.552  10.738  18.374  0.00  0.00    +0.000 A 
ATOM     10  C   UNL     1      -1.144   9.794  17.516  0.00  0.00    +0.000 A 
ATOM     11  C   UNL     1      -2.533   9.733  17.375  0.00  0.00    +0.000 A 
ATOM     12  C   UNL     1      -3.343  10.610  18.088  0.00  0.00    +0.000 A 
ATOM     13  O   UNL     1      -4.694  10.509  17.881  0.00  0.00    +0.000 OA
ENDBRANCH   1   9
BRANCH   1  14
ATOM     14  C   UNL     1       1.472   9.460  18.698  0.00  0.00    +0.000 A 
ATOM     15  C   UNL     1       2.044   8.602  17.780  0.00  0.00    +0.000 A 
ATOM     16  N   UNL     1       2.266   7.459  18.487  0.00  0.00    +0.000 N 
ATOM     17  N   UNL     1       1.951   7.622  19.787  0.00  0.00    +0.000 NA
ATOM     18  N   UNL     1       1.446   8.839  19.926  0.00  0.00    +0.000 NA
BRANCH  16  19
ATOM     19  C   UNL     1       2.828   6.206  18.011  0.00  0.00    +0.000 C 
BRANCH  19  20
ATOM     20  C   UNL     1       4.333   6.171  18.131  0.00  0.00    +0.000 A 
ATOM     21  C   UNL     1       4.955   5.435  19.151  0.00  0.00    +0.000 A 
ATOM     22  C   UNL     1       6.347   5.368  19.232  0.00  0.00    +0.000 A 
ATOM     23  C   UNL     1       7.136   6.033  18.295  0.00  0.00    +0.000 A 
ATOM     24  C   UNL     1       6.533   6.772  17.280  0.00  0.00    +0.000 A 
ATOM     25  C   UNL     1       5.142   6.839  17.196  0.00  0.00    +0.000 A 
ENDBRANCH  19  20
ENDBRANCH  16  19
ENDBRANCH   1  14
BRANCH   1  26
ATOM     26  O   UNL     1       1.264  11.719  19.611  0.00  0.00    +0.000 OA
ATOM     27  H   UNL     1       0.406  11.992  19.981  0.00  0.00    +0.000 HD
ENDBRANCH   1  26
TORSDOF 5
ENDMDL
MODEL 8
REMARK VINA RESULT:      -7.6      3.840      6.516
REMARK  Name = 
REMARK  7 active torsions:
REMARK  status: ('A' for Active; 'I' for Inactive)
REMARK    1  A    between atoms: C_1  and  C_2
REMARK    2  A    between atoms: C_2  and  C_3
REMARK    3  A    between atoms: C_8  and  C_9
REMARK    4  A    between atoms: C_9  and  O_10
REMARK    5  A    between atoms: C_9  and  C_11
REMARK    6  A    between atoms: N_13  and  C_14
REMARK    7  A    between atoms: C_14  and  C_15
REMARK                            x       y       z     vdW  Elec       q    Type
REMARK                         _______ _______ _______ _____ _____    ______ ____
ROOT
ATOM      1  C   UNL     1       1.923   4.707  20.520  0.00  0.00    +0.000 C 
ENDROOT
BRANCH   1   9
ATOM      2  C   UNL     1      -0.541  10.796  18.273  0.00  0.00    +0.000 C 
ATOM      3  C   UNL     1       0.907  10.887  18.774  0.00  0.00    +0.000 C 
ATOM      4  C   UNL     1       1.294  12.360  18.954  0.00  0.00    +0.000 C 
ATOM      5  C   UNL     1       1.834  10.232  17.772  0.00  0.00    +0.000 C 
ATOM      6  C   UNL     1       2.281   8.981  17.928  0.00  0.00    +0.000 C 
ATOM      7  C   UNL     1       1.851   8.263  19.122  0.00  0.00    +0.000 A 
ATOM      8  C   UNL     1       2.069   6.886  19.250  0.00  0.00    +0.000 A 
ATOM      9  C   UNL     1       1.695   6.205  20.420  0.00  0.00    +0.000 A 
ATOM     10  C   UNL     1       1.129   6.942  21.476  0.00  0.00    +0.000 A 
ATOM     11  C   UNL     1       0.902   8.315  21.345  0.00  0.00    +0.000 A 
ATOM     12  C   UNL     1       1.239   8.965  20.162  0.00  0.00    +0.000 A 
ATOM     13  O   UNL     1       0.965  10.306  20.096  0.00  0.00    +0.000 OA
ENDBRANCH   1   9
BRANCH   1  14
ATOM     14  C   UNL     1       2.910   4.354  19.456  0.00  0.00    +0.000 A 
ATOM     15  C   UNL     1       4.258   4.638  19.364  0.00  0.00    +0.000 A 
ATOM     16  N   UNL     1       4.625   4.119  18.159  0.00  0.00    +0.000 N 
ATOM     17  N   UNL     1       3.601   3.462  17.580  0.00  0.00    +0.000 NA
ATOM     18  N   UNL     1       2.539   3.614  18.358  0.00  0.00    +0.000 NA
BRANCH  16  19
ATOM     19  C   UNL     1       5.935   4.155  17.530  0.00  0.00    +0.000 C 
BRANCH  19  20
ATOM     20  C   UNL     1       6.645   5.467  17.759  0.00  0.00    +0.000 A 
ATOM     21  C   UNL     1       7.641   5.582  18.741  0.00  0.00    +0.000 A 
ATOM     22  C   UNL     1       8.328   6.785  18.919  0.00  0.00    +0.000 A 
ATOM     23  C   UNL     1       8.029   7.888  18.120  0.00  0.00    +0.000 A 
ATOM     24  C   UNL     1       7.038   7.790  17.147  0.00  0.00    +0.000 A 
ATOM     25  C   UNL     1       6.352   6.589  16.965  0.00  0.00    +0.000 A 
ENDBRANCH  19  20
ENDBRANCH  16  19
ENDBRANCH   1  14
BRANCH   1  26
ATOM     26  O   UNL     1       0.677   4.025  20.398  0.00  0.00    +0.000 OA
ATOM     27  H   UNL     1       0.682   3.627  19.509  0.00  0.00    +0.000 HD
ENDBRANCH   1  26
TORSDOF 5
ENDMDL
MODEL 9
REMARK VINA RESULT:      -7.6      7.269     10.309
REMARK  Name = 
REMARK  7 active torsions:
REMARK  status: ('A' for Active; 'I' for Inactive)
REMARK    1  A    between atoms: C_1  and  C_2
REMARK    2  A    between atoms: C_2  and  C_3
REMARK    3  A    between atoms: C_8  and  C_9
REMARK    4  A    between atoms: C_9  and  O_10
REMARK    5  A    between atoms: C_9  and  C_11
REMARK    6  A    between atoms: N_13  and  C_14
REMARK    7  A    between atoms: C_14  and  C_15
REMARK                            x       y       z     vdW  Elec       q    Type
REMARK                         _______ _______ _______ _____ _____    ______ ____
ROOT
ATOM      1  C   UNL     1       0.252  10.337  20.699  0.00  0.00    +0.000 C 
ENDROOT
BRANCH   1   9
ATOM      2  C   UNL     1       1.643   4.258  17.649  0.00  0.00    +0.000 C 
ATOM      3  C   UNL     1       2.847   4.833  18.409  0.00  0.00    +0.000 C 
ATOM      4  C   UNL     1       4.117   4.075  18.004  0.00  0.00    +0.000 C 
ATOM      5  C   UNL     1       2.620   4.694  19.900  0.00  0.00    +0.000 C 
ATOM      6  C   UNL     1       2.170   5.708  20.648  0.00  0.00    +0.000 C 
ATOM      7  C   UNL     1       1.917   6.975  19.972  0.00  0.00    +0.000 A 
ATOM      8  C   UNL     1       1.228   8.008  20.618  0.00  0.00    +0.000 A 
ATOM      9  C   UNL     1       1.025   9.244  19.982  0.00  0.00    +0.000 A 
ATOM     10  C   UNL     1       1.561   9.434  18.696  0.00  0.00    +0.000 A 
ATOM     11  C   UNL     1       2.241   8.401  18.047  0.00  0.00    +0.000 A 
ATOM     12  C   UNL     1       2.395   7.169  18.675  0.00  0.00    +0.000 A 
ATOM     13  O   UNL     1       3.051   6.195  17.969  0.00  0.00    +0.000 OA
ENDBRANCH   1   9
BRANCH   1  14
ATOM     14  C   UNL     1      -0.775  10.835  19.736  0.00  0.00    +0.000 A 
ATOM     15  C   UNL     1      -1.502  10.154  18.780  0.00  0.00    +0.000 A 
ATOM     16  N   UNL     1      -2.237  11.124  18.168  0.00  0.00    +0.000 N 
ATOM     17  N   UNL     1      -2.062  12.318  18.768  0.00  0.00    +0.000 NA
ATOM     18  N   UNL     1      -1.155  12.157  19.720  0.00  0.00    +0.000 NA
BRANCH  16  19
ATOM     19  C   UNL     1      -3.165  10.979  17.059  0.00  0.00    +0.000 C 
BRANCH  19  20
ATOM     20  C   UNL     1      -4.595  11.236  17.471  0.00  0.00    +0.000 A 
ATOM     21  C   UNL     1      -5.221  10.426  18.431  0.00  0.00    +0.000 A 
ATOM     22  C   UNL     1      -6.528  10.694  18.843  0.00  0.00    +0.000 A 
ATOM     23  C   UNL     1      -7.226  11.773  18.303  0.00  0.00    +0.000 A 
ATOM     24  C   UNL     1      -6.620  12.582  17.345  0.00  0.00    +0.000 A 
ATOM     25  C   UNL     1      -5.313  12.317  16.933  0.00  0.00    +0.000 A 
ENDBRANCH  19  20
ENDBRANCH  16  19
ENDBRANCH   1  14
BRANCH   1  26
ATOM     26  O   UNL     1       1.155  11.345  21.149  0.00  0.00    +0.000 OA
ATOM     27  H   UNL     1       0.705  12.192  20.983  0.00  0.00    +0.000 HD
ENDBRANCH   1  26
TORSDOF 5
ENDMDL
