MODEL 1
REMARK VINA RESULT:      -8.8      0.000      0.000
REMARK  Name = 
REMARK  10 active torsions:
REMARK  status: ('A' for Active; 'I' for Inactive)
REMARK    1  A    between atoms: C_1  and  C_2
REMARK    2  A    between atoms: N_4  and  C_5
REMARK    3  A    between atoms: C_6  and  C_7
REMARK    4  A    between atoms: C_8  and  S_9
REMARK    5  A    between atoms: S_9  and  N_12
REMARK    6  A    between atoms: C_16  and  C_17
REMARK    7  A    between atoms: C_20  and  C_21
REMARK    8  A    between atoms: C_21  and  O_22
REMARK    9  A    between atoms: O_22  and  C_23
REMARK   10  A    between atoms: C_23  and  C_24
REMARK                            x       y       z     vdW  Elec       q    Type
REMARK                         _______ _______ _______ _____ _____    ______ ____
ROOT
ATOM      1  N   UNL     1       3.862   5.392  19.268  0.00  0.00    +0.000 NA
ATOM      2  C   UNL     1       2.874   4.610  20.024  0.00  0.00    +0.000 C 
ATOM      3  C   UNL     1       2.030   3.975  18.938  0.00  0.00    +0.000 C 
ATOM      4  C   UNL     1       1.940   5.051  17.867  0.00  0.00    +0.000 C 
ATOM      5  C   UNL     1       3.179   5.949  18.067  0.00  0.00    +0.000 C 
ENDROOT
BRANCH   5   6
ATOM      6  C   UNL     1       2.710   7.363  18.317  0.00  0.00    +0.000 A 
ATOM      7  N   UNL     1       2.639   8.276  17.335  0.00  0.00    +0.000 NA
ATOM      8  O   UNL     1       1.904   9.315  17.909  0.00  0.00    +0.000 OA
ATOM      9  C   UNL     1       1.581   8.915  19.174  0.00  0.00    +0.000 A 
ATOM     10  N   UNL     1       2.049   7.725  19.475  0.00  0.00    +0.000 NA
BRANCH   9  11
ATOM     11  C   UNL     1       0.785   9.866  19.991  0.00  0.00    +0.000 C 
BRANCH  11  12
ATOM     12  O   UNL     1       0.268  10.914  19.167  0.00  0.00    +0.000 OA
BRANCH  12  13
ATOM     13  C   UNL     1      -1.031  11.343  19.566  0.00  0.00    +0.000 C 
BRANCH  13  14
ATOM     14  C   UNL     1      -1.985  11.047  18.445  0.00  0.00    +0.000 A 
ATOM     15  C   UNL     1      -1.597  10.202  17.393  0.00  0.00    +0.000 A 
ATOM     16  C   UNL     1      -2.478   9.926  16.348  0.00  0.00    +0.000 A 
ATOM     17  C   UNL     1      -3.750  10.498  16.340  0.00  0.00    +0.000 A 
ATOM     18  C   UNL     1      -4.136  11.353  17.367  0.00  0.00    +0.000 A 
ATOM     19  C   UNL     1      -3.257  11.631  18.417  0.00  0.00    +0.000 A 
ENDBRANCH  13  14
ENDBRANCH  12  13
ENDBRANCH  11  12
ENDBRANCH   9  11
ENDBRANCH   5   6
BRANCH   1  20
ATOM     20  S   UNL     1       5.439   4.813  19.109  0.00  0.00    +0.000 S 
ATOM     21  O   UNL     1       5.374   3.367  19.128  0.00  0.00    +0.000 OA
ATOM     22  O   UNL     1       6.263   5.533  20.047  0.00  0.00    +0.000 OA
BRANCH  20  30
ATOM     23  C   UNL     1       7.936   7.023  18.135  0.00  0.00    +0.000 C 
ATOM     24  C   UNL     1       7.125   6.144  17.255  0.00  0.00    +0.000 A 
ATOM     25  N   UNL     1       7.390   6.183  15.942  0.00  0.00    +0.000 NA
ATOM     26  N   UNL     1       6.711   5.151  15.426  0.00  0.00    +0.000 N 
ATOM     27  C   UNL     1       6.956   4.795  14.045  0.00  0.00    +0.000 C 
ATOM     28  C   UNL     1       5.927   4.500  16.347  0.00  0.00    +0.000 A 
ATOM     29  C   UNL     1       5.169   3.261  16.028  0.00  0.00    +0.000 C 
ATOM     30  C   UNL     1       6.118   5.183  17.548  0.00  0.00    +0.000 A 
ENDBRANCH  20  30
ENDBRANCH   1  20
TORSDOF 7
ENDMDL
MODEL 2
REMARK VINA RESULT:      -8.6      0.562      1.038
REMARK  Name = 
REMARK  10 active torsions:
REMARK  status: ('A' for Active; 'I' for Inactive)
REMARK    1  A    between atoms: C_1  and  C_2
REMARK    2  A    between atoms: N_4  and  C_5
REMARK    3  A    between atoms: C_6  and  C_7
REMARK    4  A    between atoms: C_8  and  S_9
REMARK    5  A    between atoms: S_9  and  N_12
REMARK    6  A    between atoms: C_16  and  C_17
REMARK    7  A    between atoms: C_20  and  C_21
REMARK    8  A    between atoms: C_21  and  O_22
REMARK    9  A    between atoms: O_22  and  C_23
REMARK   10  A    between atoms: C_23  and  C_24
REMARK                            x       y       z     vdW  Elec       q    Type
REMARK                         _______ _______ _______ _____ _____    ______ ____
ROOT
ATOM      1  N   UNL     1       3.932   5.435  19.265  0.00  0.00    +0.000 NA
ATOM      2  C   UNL     1       2.963   4.798  20.169  0.00  0.00    +0.000 C 
ATOM      3  C   UNL     1       2.023   4.082  19.221  0.00  0.00    +0.000 C 
ATOM      4  C   UNL     1       1.909   5.026  18.034  0.00  0.00    +0.000 C 
ATOM      5  C   UNL     1       3.196   5.880  18.049  0.00  0.00    +0.000 C 
ENDROOT
BRANCH   5   6
ATOM      6  C   UNL     1       2.804   7.335  18.153  0.00  0.00    +0.000 A 
ATOM      7  N   UNL     1       2.984   8.196  17.140  0.00  0.00    +0.000 NA
ATOM      8  O   UNL     1       2.243   9.315  17.528  0.00  0.00    +0.000 OA
ATOM      9  C   UNL     1       1.667   9.007  18.726  0.00  0.00    +0.000 A 
ATOM     10  N   UNL     1       1.977   7.804  19.155  0.00  0.00    +0.000 NA
BRANCH   9  11
ATOM     11  C   UNL     1       0.816  10.054  19.345  0.00  0.00    +0.000 C 
BRANCH  11  12
ATOM     12  O   UNL     1      -0.434  10.147  18.657  0.00  0.00    +0.000 OA
BRANCH  12  13
ATOM     13  C   UNL     1      -0.868  11.491  18.476  0.00  0.00    +0.000 C 
BRANCH  13  14
ATOM     14  C   UNL     1      -2.270  11.460  17.936  0.00  0.00    +0.000 A 
ATOM     15  C   UNL     1      -3.351  11.801  18.762  0.00  0.00    +0.000 A 
ATOM     16  C   UNL     1      -4.655  11.770  18.267  0.00  0.00    +0.000 A 
ATOM     17  C   UNL     1      -4.889  11.390  16.945  0.00  0.00    +0.000 A 
ATOM     18  C   UNL     1      -3.825  11.031  16.124  0.00  0.00    +0.000 A 
ATOM     19  C   UNL     1      -2.518  11.062  16.617  0.00  0.00    +0.000 A 
ENDBRANCH  13  14
ENDBRANCH  12  13
ENDBRANCH  11  12
ENDBRANCH   9  11
ENDBRANCH   5   6
BRANCH   1  20
ATOM     20  S   UNL     1       5.469   4.763  19.084  0.00  0.00    +0.000 S 
ATOM     21  O   UNL     1       5.310   3.326  19.028  0.00  0.00    +0.000 OA
ATOM     22  O   UNL     1       6.331   5.379  20.062  0.00  0.00    +0.000 OA
BRANCH  20  30
ATOM     23  C   UNL     1       7.959   7.023  18.212  0.00  0.00    +0.000 C 
ATOM     24  C   UNL     1       7.184   6.148  17.297  0.00  0.00    +0.000 A 
ATOM     25  N   UNL     1       7.482   6.212  15.992  0.00  0.00    +0.000 NA
ATOM     26  N   UNL     1       6.832   5.179  15.442  0.00  0.00    +0.000 N 
ATOM     27  C   UNL     1       7.117   4.850  14.062  0.00  0.00    +0.000 C 
ATOM     28  C   UNL     1       6.033   4.503  16.331  0.00  0.00    +0.000 A 
ATOM     29  C   UNL     1       5.301   3.259  15.972  0.00  0.00    +0.000 C 
ATOM     30  C   UNL     1       6.183   5.168  17.548  0.00  0.00    +0.000 A 
ENDBRANCH  20  30
ENDBRANCH   1  20
TORSDOF 7
ENDMDL
MODEL 3
REMARK VINA RESULT:      -8.4      3.797      8.069
REMARK  Name = 
REMARK  10 active torsions:
REMARK  status: ('A' for Active; 'I' for Inactive)
REMARK    1  A    between atoms: C_1  and  C_2
REMARK    2  A    between atoms: N_4  and  C_5
REMARK    3  A    between atoms: C_6  and  C_7
REMARK    4  A    between atoms: C_8  and  S_9
REMARK    5  A    between atoms: S_9  and  N_12
REMARK    6  A    between atoms: C_16  and  C_17
REMARK    7  A    between atoms: C_20  and  C_21
REMARK    8  A    between atoms: C_21  and  O_22
REMARK    9  A    between atoms: O_22  and  C_23
REMARK   10  A    between atoms: C_23  and  C_24
REMARK                            x       y       z     vdW  Elec       q    Type
REMARK                         _______ _______ _______ _____ _____    ______ ____
ROOT
ATOM      1  N   UNL     1       5.036   4.952  17.219  0.00  0.00    +0.000 NA
ATOM      2  C   UNL     1       4.935   5.168  15.769  0.00  0.00    +0.000 C 
ATOM      3  C   UNL     1       6.015   4.266  15.208  0.00  0.00    +0.000 C 
ATOM      4  C   UNL     1       7.143   4.368  16.223  0.00  0.00    +0.000 C 
ATOM      5  C   UNL     1       6.476   4.775  17.555  0.00  0.00    +0.000 C 
ENDROOT
BRANCH   5   6
ATOM      6  C   UNL     1       7.089   6.075  18.019  0.00  0.00    +0.000 A 
ATOM      7  N   UNL     1       8.035   6.119  18.970  0.00  0.00    +0.000 NA
ATOM      8  O   UNL     1       8.520   7.426  18.887  0.00  0.00    +0.000 OA
ATOM      9  C   UNL     1       7.836   8.034  17.875  0.00  0.00    +0.000 A 
ATOM     10  N   UNL     1       6.948   7.251  17.307  0.00  0.00    +0.000 NA
BRANCH   9  11
ATOM     11  C   UNL     1       8.186   9.449  17.590  0.00  0.00    +0.000 C 
BRANCH  11  12
ATOM     12  O   UNL     1       8.936  10.001  18.675  0.00  0.00    +0.000 OA
BRANCH  12  13
ATOM     13  C   UNL     1       9.919  10.939  18.247  0.00  0.00    +0.000 C 
BRANCH  13  14
ATOM     14  C   UNL     1       9.775  12.179  19.083  0.00  0.00    +0.000 A 
ATOM     15  C   UNL     1       9.010  13.259  18.617  0.00  0.00    +0.000 A 
ATOM     16  C   UNL     1       8.875  14.414  19.387  0.00  0.00    +0.000 A 
ATOM     17  C   UNL     1       9.511  14.503  20.626  0.00  0.00    +0.000 A 
ATOM     18  C   UNL     1      10.289  13.446  21.087  0.00  0.00    +0.000 A 
ATOM     19  C   UNL     1      10.425  12.287  20.318  0.00  0.00    +0.000 A 
ENDBRANCH  13  14
ENDBRANCH  12  13
ENDBRANCH  11  12
ENDBRANCH   9  11
ENDBRANCH   5   6
BRANCH   1  20
ATOM     20  S   UNL     1       3.896   3.981  17.997  0.00  0.00    +0.000 S 
ATOM     21  O   UNL     1       4.620   3.049  18.835  0.00  0.00    +0.000 OA
ATOM     22  O   UNL     1       2.966   3.516  16.998  0.00  0.00    +0.000 OA
BRANCH  20  30
ATOM     23  C   UNL     1       2.547   3.150  21.089  0.00  0.00    +0.000 C 
ATOM     24  C   UNL     1       2.386   4.432  20.357  0.00  0.00    +0.000 A 
ATOM     25  N   UNL     1       1.661   5.388  20.953  0.00  0.00    +0.000 NA
ATOM     26  N   UNL     1       1.875   6.487  20.218  0.00  0.00    +0.000 N 
ATOM     27  C   UNL     1       1.389   7.752  20.725  0.00  0.00    +0.000 C 
ATOM     28  C   UNL     1       2.635   6.253  19.098  0.00  0.00    +0.000 A 
ATOM     29  C   UNL     1       3.090   7.340  18.192  0.00  0.00    +0.000 C 
ATOM     30  C   UNL     1       2.922   4.888  19.121  0.00  0.00    +0.000 A 
ENDBRANCH  20  30
ENDBRANCH   1  20
TORSDOF 7
ENDMDL
MODEL 4
REMARK VINA RESULT:      -8.4      0.631      1.856
REMARK  Name = 
REMARK  10 active torsions:
REMARK  status: ('A' for Active; 'I' for Inactive)
REMARK    1  A    between atoms: C_1  and  C_2
REMARK    2  A    between atoms: N_4  and  C_5
REMARK    3  A    between atoms: C_6  and  C_7
REMARK    4  A    between atoms: C_8  and  S_9
REMARK    5  A    between atoms: S_9  and  N_12
REMARK    6  A    between atoms: C_16  and  C_17
REMARK    7  A    between atoms: C_20  and  C_21
REMARK    8  A    between atoms: C_21  and  O_22
REMARK    9  A    between atoms: O_22  and  C_23
REMARK   10  A    between atoms: C_23  and  C_24
REMARK                            x       y       z     vdW  Elec       q    Type
REMARK                         _______ _______ _______ _____ _____    ______ ____
ROOT
ATOM      1  N   UNL     1       3.674   5.358  19.375  0.00  0.00    +0.000 NA
ATOM      2  C   UNL     1       2.645   4.621  20.122  0.00  0.00    +0.000 C 
ATOM      3  C   UNL     1       1.778   4.030  19.029  0.00  0.00    +0.000 C 
ATOM      4  C   UNL     1       1.746   5.112  17.961  0.00  0.00    +0.000 C 
ATOM      5  C   UNL     1       3.026   5.950  18.171  0.00  0.00    +0.000 C 
ENDROOT
BRANCH   5   6
ATOM      6  C   UNL     1       2.623   7.384  18.422  0.00  0.00    +0.000 A 
ATOM      7  N   UNL     1       2.573   8.294  17.437  0.00  0.00    +0.000 NA
ATOM      8  O   UNL     1       1.894   9.367  18.019  0.00  0.00    +0.000 OA
ATOM      9  C   UNL     1       1.578   8.987  19.292  0.00  0.00    +0.000 A 
ATOM     10  N   UNL     1       2.000   7.779  19.590  0.00  0.00    +0.000 NA
BRANCH   9  11
ATOM     11  C   UNL     1       0.839   9.975  20.119  0.00  0.00    +0.000 C 
BRANCH  11  12
ATOM     12  O   UNL     1      -0.558   9.923  19.821  0.00  0.00    +0.000 OA
BRANCH  12  13
ATOM     13  C   UNL     1      -1.087  11.183  19.420  0.00  0.00    +0.000 C 
BRANCH  13  14
ATOM     14  C   UNL     1      -2.026  10.951  18.271  0.00  0.00    +0.000 A 
ATOM     15  C   UNL     1      -3.266  11.607  18.229  0.00  0.00    +0.000 A 
ATOM     16  C   UNL     1      -4.144  11.392  17.167  0.00  0.00    +0.000 A 
ATOM     17  C   UNL     1      -3.794  10.514  16.142  0.00  0.00    +0.000 A 
ATOM     18  C   UNL     1      -2.576   9.843  16.184  0.00  0.00    +0.000 A 
ATOM     19  C   UNL     1      -1.694  10.056  17.247  0.00  0.00    +0.000 A 
ENDBRANCH  13  14
ENDBRANCH  12  13
ENDBRANCH  11  12
ENDBRANCH   9  11
ENDBRANCH   5   6
BRANCH   1  20
ATOM     20  S   UNL     1       5.222   4.704  19.224  0.00  0.00    +0.000 S 
ATOM     21  O   UNL     1       5.183   3.366  19.775  0.00  0.00    +0.000 OA
ATOM     22  O   UNL     1       6.157   5.685  19.717  0.00  0.00    +0.000 OA
BRANCH  20  30
ATOM     23  C   UNL     1       3.974   2.581  16.775  0.00  0.00    +0.000 C 
ATOM     24  C   UNL     1       5.110   3.528  16.644  0.00  0.00    +0.000 A 
ATOM     25  N   UNL     1       5.715   3.595  15.451  0.00  0.00    +0.000 NA
ATOM     26  N   UNL     1       6.514   4.667  15.533  0.00  0.00    +0.000 N 
ATOM     27  C   UNL     1       7.157   5.133  14.324  0.00  0.00    +0.000 C 
ATOM     28  C   UNL     1       6.528   5.241  16.781  0.00  0.00    +0.000 A 
ATOM     29  C   UNL     1       7.257   6.501  17.080  0.00  0.00    +0.000 C 
ATOM     30  C   UNL     1       5.671   4.462  17.559  0.00  0.00    +0.000 A 
ENDBRANCH  20  30
ENDBRANCH   1  20
TORSDOF 7
ENDMDL
MODEL 5
REMARK VINA RESULT:      -8.3      3.620      8.068
REMARK  Name = 
REMARK  10 active torsions:
REMARK  status: ('A' for Active; 'I' for Inactive)
REMARK    1  A    between atoms: C_1  and  C_2
REMARK    2  A    between atoms: N_4  and  C_5
REMARK    3  A    between atoms: C_6  and  C_7
REMARK    4  A    between atoms: C_8  and  S_9
REMARK    5  A    between atoms: S_9  and  N_12
REMARK    6  A    between atoms: C_16  and  C_17
REMARK    7  A    between atoms: C_20  and  C_21
REMARK    8  A    between atoms: C_21  and  O_22
REMARK    9  A    between atoms: O_22  and  C_23
REMARK   10  A    between atoms: C_23  and  C_24
REMARK                            x       y       z     vdW  Elec       q    Type
REMARK                         _______ _______ _______ _____ _____    ______ ____
ROOT
ATOM      1  N   UNL     1       5.209   4.789  17.269  0.00  0.00    +0.000 NA
ATOM      2  C   UNL     1       4.826   4.648  15.857  0.00  0.00    +0.000 C 
ATOM      3  C   UNL     1       5.873   3.703  15.306  0.00  0.00    +0.000 C 
ATOM      4  C   UNL     1       7.149   4.108  16.026  0.00  0.00    +0.000 C 
ATOM      5  C   UNL     1       6.697   4.780  17.340  0.00  0.00    +0.000 C 
ENDROOT
BRANCH   5   6
ATOM      6  C   UNL     1       7.247   6.187  17.373  0.00  0.00    +0.000 A 
ATOM      7  N   UNL     1       6.755   7.163  16.595  0.00  0.00    +0.000 NA
ATOM      8  O   UNL     1       7.319   8.323  17.131  0.00  0.00    +0.000 OA
ATOM      9  C   UNL     1       8.077   7.932  18.198  0.00  0.00    +0.000 A 
ATOM     10  N   UNL     1       8.066   6.633  18.392  0.00  0.00    +0.000 NA
BRANCH   9  11
ATOM     11  C   UNL     1       8.782   9.006  18.943  0.00  0.00    +0.000 C 
BRANCH  11  12
ATOM     12  O   UNL     1       8.599  10.264  18.290  0.00  0.00    +0.000 OA
BRANCH  12  13
ATOM     13  C   UNL     1       9.815  10.991  18.137  0.00  0.00    +0.000 C 
BRANCH  13  14
ATOM     14  C   UNL     1       9.880  12.025  19.225  0.00  0.00    +0.000 A 
ATOM     15  C   UNL     1      10.088  13.375  18.903  0.00  0.00    +0.000 A 
ATOM     16  C   UNL     1      10.153  14.339  19.909  0.00  0.00    +0.000 A 
ATOM     17  C   UNL     1      10.018  13.961  21.245  0.00  0.00    +0.000 A 
ATOM     18  C   UNL     1       9.832  12.623  21.575  0.00  0.00    +0.000 A 
ATOM     19  C   UNL     1       9.766  11.654  20.569  0.00  0.00    +0.000 A 
ENDBRANCH  13  14
ENDBRANCH  12  13
ENDBRANCH  11  12
ENDBRANCH   9  11
ENDBRANCH   5   6
BRANCH   1  20
ATOM     20  S   UNL     1       4.335   3.967  18.455  0.00  0.00    +0.000 S 
ATOM     21  O   UNL     1       5.270   3.565  19.484  0.00  0.00    +0.000 OA
ATOM     22  O   UNL     1       3.502   2.997  17.787  0.00  0.00    +0.000 OA
BRANCH  20  30
ATOM     23  C   UNL     1       2.461   3.521  21.346  0.00  0.00    +0.000 C 
ATOM     24  C   UNL     1       2.467   4.711  20.458  0.00  0.00    +0.000 A 
ATOM     25  N   UNL     1       1.685   5.740  20.810  0.00  0.00    +0.000 NA
ATOM     26  N   UNL     1       2.055   6.742  20.003  0.00  0.00    +0.000 N 
ATOM     27  C   UNL     1       1.534   8.065  20.274  0.00  0.00    +0.000 C 
ATOM     28  C   UNL     1       2.984   6.369  19.062  0.00  0.00    +0.000 A 
ATOM     29  C   UNL     1       3.620   7.337  18.129  0.00  0.00    +0.000 C 
ATOM     30  C   UNL     1       3.217   5.012  19.287  0.00  0.00    +0.000 A 
ENDBRANCH  20  30
ENDBRANCH   1  20
TORSDOF 7
ENDMDL
MODEL 6
REMARK VINA RESULT:      -8.2      3.578      8.171
REMARK  Name = 
REMARK  10 active torsions:
REMARK  status: ('A' for Active; 'I' for Inactive)
REMARK    1  A    between atoms: C_1  and  C_2
REMARK    2  A    between atoms: N_4  and  C_5
REMARK    3  A    between atoms: C_6  and  C_7
REMARK    4  A    between atoms: C_8  and  S_9
REMARK    5  A    between atoms: S_9  and  N_12
REMARK    6  A    between atoms: C_16  and  C_17
REMARK    7  A    between atoms: C_20  and  C_21
REMARK    8  A    between atoms: C_21  and  O_22
REMARK    9  A    between atoms: O_22  and  C_23
REMARK   10  A    between atoms: C_23  and  C_24
REMARK                            x       y       z     vdW  Elec       q    Type
REMARK                         _______ _______ _______ _____ _____    ______ ____
ROOT
ATOM      1  N   UNL     1       5.153   4.894  17.145  0.00  0.00    +0.000 NA
ATOM      2  C   UNL     1       4.785   4.921  15.722  0.00  0.00    +0.000 C 
ATOM      3  C   UNL     1       5.713   3.896  15.104  0.00  0.00    +0.000 C 
ATOM      4  C   UNL     1       7.015   4.071  15.868  0.00  0.00    +0.000 C 
ATOM      5  C   UNL     1       6.626   4.686  17.230  0.00  0.00    +0.000 C 
ENDROOT
BRANCH   5   6
ATOM      6  C   UNL     1       7.352   6.002  17.386  0.00  0.00    +0.000 A 
ATOM      7  N   UNL     1       7.280   6.971  16.460  0.00  0.00    +0.000 NA
ATOM      8  O   UNL     1       7.826   8.081  17.108  0.00  0.00    +0.000 OA
ATOM      9  C   UNL     1       8.150   7.677  18.371  0.00  0.00    +0.000 A 
ATOM     10  N   UNL     1       7.879   6.412  18.595  0.00  0.00    +0.000 NA
BRANCH   9  11
ATOM     11  C   UNL     1       8.753   8.700  19.264  0.00  0.00    +0.000 C 
BRANCH  11  12
ATOM     12  O   UNL     1       8.874   9.947  18.576  0.00  0.00    +0.000 OA
BRANCH  12  13
ATOM     13  C   UNL     1       9.410  10.982  19.395  0.00  0.00    +0.000 C 
BRANCH  13  14
ATOM     14  C   UNL     1      10.069  11.992  18.500  0.00  0.00    +0.000 A 
ATOM     15  C   UNL     1      11.345  11.741  17.973  0.00  0.00    +0.000 A 
ATOM     16  C   UNL     1      11.964  12.676  17.144  0.00  0.00    +0.000 A 
ATOM     17  C   UNL     1      11.316  13.874  16.841  0.00  0.00    +0.000 A 
ATOM     18  C   UNL     1      10.060  14.141  17.374  0.00  0.00    +0.000 A 
ATOM     19  C   UNL     1       9.437  13.206  18.205  0.00  0.00    +0.000 A 
ENDBRANCH  13  14
ENDBRANCH  12  13
ENDBRANCH  11  12
ENDBRANCH   9  11
ENDBRANCH   5   6
BRANCH   1  20
ATOM     20  S   UNL     1       4.156   4.098  18.249  0.00  0.00    +0.000 S 
ATOM     21  O   UNL     1       5.007   3.536  19.276  0.00  0.00    +0.000 OA
ATOM     22  O   UNL     1       3.251   3.265  17.495  0.00  0.00    +0.000 OA
BRANCH  20  30
ATOM     23  C   UNL     1       2.455   3.799  21.263  0.00  0.00    +0.000 C 
ATOM     24  C   UNL     1       2.441   4.961  20.338  0.00  0.00    +0.000 A 
ATOM     25  N   UNL     1       1.713   6.024  20.705  0.00  0.00    +0.000 NA
ATOM     26  N   UNL     1       2.061   6.989  19.844  0.00  0.00    +0.000 N 
ATOM     27  C   UNL     1       1.598   8.335  20.104  0.00  0.00    +0.000 C 
ATOM     28  C   UNL     1       2.918   6.559  18.861  0.00  0.00    +0.000 A 
ATOM     29  C   UNL     1       3.523   7.477  17.860  0.00  0.00    +0.000 C 
ATOM     30  C   UNL     1       3.124   5.202  19.114  0.00  0.00    +0.000 A 
ENDBRANCH  20  30
ENDBRANCH   1  20
TORSDOF 7
ENDMDL
MODEL 7
REMARK VINA RESULT:      -8.2      3.738      8.209
REMARK  Name = 
REMARK  10 active torsions:
REMARK  status: ('A' for Active; 'I' for Inactive)
REMARK    1  A    between atoms: C_1  and  C_2
REMARK    2  A    between atoms: N_4  and  C_5
REMARK    3  A    between atoms: C_6  and  C_7
REMARK    4  A    between atoms: C_8  and  S_9
REMARK    5  A    between atoms: S_9  and  N_12
REMARK    6  A    between atoms: C_16  and  C_17
REMARK    7  A    between atoms: C_20  and  C_21
REMARK    8  A    between atoms: C_21  and  O_22
REMARK    9  A    between atoms: O_22  and  C_23
REMARK   10  A    between atoms: C_23  and  C_24
REMARK                            x       y       z     vdW  Elec       q    Type
REMARK                         _______ _______ _______ _____ _____    ______ ____
ROOT
ATOM      1  N   UNL     1       4.949   4.973  17.115  0.00  0.00    +0.000 NA
ATOM      2  C   UNL     1       4.857   5.226  15.670  0.00  0.00    +0.000 C 
ATOM      3  C   UNL     1       5.896   4.289  15.088  0.00  0.00    +0.000 C 
ATOM      4  C   UNL     1       7.027   4.319  16.103  0.00  0.00    +0.000 C 
ATOM      5  C   UNL     1       6.380   4.726  17.444  0.00  0.00    +0.000 C 
ENDROOT
BRANCH   5   6
ATOM      6  C   UNL     1       7.051   5.987  17.936  0.00  0.00    +0.000 A 
ATOM      7  N   UNL     1       7.812   6.006  19.041  0.00  0.00    +0.000 NA
ATOM      8  O   UNL     1       8.455   7.245  18.972  0.00  0.00    +0.000 OA
ATOM      9  C   UNL     1       8.036   7.839  17.816  0.00  0.00    +0.000 A 
ATOM     10  N   UNL     1       7.176   7.111  17.143  0.00  0.00    +0.000 NA
BRANCH   9  11
ATOM     11  C   UNL     1       8.595   9.183  17.518  0.00  0.00    +0.000 C 
BRANCH  11  12
ATOM     12  O   UNL     1       7.688  10.202  17.947  0.00  0.00    +0.000 OA
BRANCH  12  13
ATOM     13  C   UNL     1       8.192  11.517  17.733  0.00  0.00    +0.000 C 
BRANCH  13  14
ATOM     14  C   UNL     1       9.490  11.646  18.479  0.00  0.00    +0.000 A 
ATOM     15  C   UNL     1      10.700  11.739  17.776  0.00  0.00    +0.000 A 
ATOM     16  C   UNL     1      11.909  11.855  18.462  0.00  0.00    +0.000 A 
ATOM     17  C   UNL     1      11.918  11.870  19.857  0.00  0.00    +0.000 A 
ATOM     18  C   UNL     1      10.725  11.758  20.563  0.00  0.00    +0.000 A 
ATOM     19  C   UNL     1       9.512  11.643  19.878  0.00  0.00    +0.000 A 
ENDBRANCH  13  14
ENDBRANCH  12  13
ENDBRANCH  11  12
ENDBRANCH   9  11
ENDBRANCH   5   6
BRANCH   1  20
ATOM     20  S   UNL     1       3.768   4.037  17.874  0.00  0.00    +0.000 S 
ATOM     21  O   UNL     1       4.451   3.038  18.669  0.00  0.00    +0.000 OA
ATOM     22  O   UNL     1       2.803   3.658  16.871  0.00  0.00    +0.000 OA
BRANCH  20  30
ATOM     23  C   UNL     1       2.504   3.198  20.999  0.00  0.00    +0.000 C 
ATOM     24  C   UNL     1       2.352   4.494  20.290  0.00  0.00    +0.000 A 
ATOM     25  N   UNL     1       1.673   5.460  20.923  0.00  0.00    +0.000 NA
ATOM     26  N   UNL     1       1.891   6.563  20.196  0.00  0.00    +0.000 N 
ATOM     27  C   UNL     1       1.456   7.833  20.735  0.00  0.00    +0.000 C 
ATOM     28  C   UNL     1       2.606   6.325  19.048  0.00  0.00    +0.000 A 
ATOM     29  C   UNL     1       3.059   7.413  18.140  0.00  0.00    +0.000 C 
ATOM     30  C   UNL     1       2.857   4.953  19.042  0.00  0.00    +0.000 A 
ENDBRANCH  20  30
ENDBRANCH   1  20
TORSDOF 7
ENDMDL
MODEL 8
REMARK VINA RESULT:      -8.2      3.978      8.152
REMARK  Name = 
REMARK  10 active torsions:
REMARK  status: ('A' for Active; 'I' for Inactive)
REMARK    1  A    between atoms: C_1  and  C_2
REMARK    2  A    between atoms: N_4  and  C_5
REMARK    3  A    between atoms: C_6  and  C_7
REMARK    4  A    between atoms: C_8  and  S_9
REMARK    5  A    between atoms: S_9  and  N_12
REMARK    6  A    between atoms: C_16  and  C_17
REMARK    7  A    between atoms: C_20  and  C_21
REMARK    8  A    between atoms: C_21  and  O_22
REMARK    9  A    between atoms: O_22  and  C_23
REMARK   10  A    between atoms: C_23  and  C_24
REMARK                            x       y       z     vdW  Elec       q    Type
REMARK                         _______ _______ _______ _____ _____    ______ ____
ROOT
ATOM      1  N   UNL     1       5.235   5.282  17.187  0.00  0.00    +0.000 NA
ATOM      2  C   UNL     1       5.198   4.915  15.764  0.00  0.00    +0.000 C 
ATOM      3  C   UNL     1       6.297   3.879  15.645  0.00  0.00    +0.000 C 
ATOM      4  C   UNL     1       7.380   4.382  16.586  0.00  0.00    +0.000 C 
ATOM      5  C   UNL     1       6.658   5.267  17.625  0.00  0.00    +0.000 C 
ENDROOT
BRANCH   5   6
ATOM      6  C   UNL     1       7.257   6.653  17.570  0.00  0.00    +0.000 A 
ATOM      7  N   UNL     1       6.766   7.612  16.770  0.00  0.00    +0.000 NA
ATOM      8  O   UNL     1       7.392   8.773  17.230  0.00  0.00    +0.000 OA
ATOM      9  C   UNL     1       8.180   8.402  18.281  0.00  0.00    +0.000 A 
ATOM     10  N   UNL     1       8.134   7.114  18.534  0.00  0.00    +0.000 NA
BRANCH   9  11
ATOM     11  C   UNL     1       8.953   9.481  18.947  0.00  0.00    +0.000 C 
BRANCH  11  12
ATOM     12  O   UNL     1       8.989  10.647  18.120  0.00  0.00    +0.000 OA
BRANCH  12  13
ATOM     13  C   UNL     1      10.313  11.119  17.885  0.00  0.00    +0.000 C 
BRANCH  13  14
ATOM     14  C   UNL     1      10.265  12.618  17.795  0.00  0.00    +0.000 A 
ATOM     15  C   UNL     1       9.211  13.326  18.391  0.00  0.00    +0.000 A 
ATOM     16  C   UNL     1       9.159  14.718  18.308  0.00  0.00    +0.000 A 
ATOM     17  C   UNL     1      10.155  15.411  17.621  0.00  0.00    +0.000 A 
ATOM     18  C   UNL     1      11.193  14.716  17.009  0.00  0.00    +0.000 A 
ATOM     19  C   UNL     1      11.248  13.322  17.092  0.00  0.00    +0.000 A 
ENDBRANCH  13  14
ENDBRANCH  12  13
ENDBRANCH  11  12
ENDBRANCH   9  11
ENDBRANCH   5   6
BRANCH   1  20
ATOM     20  S   UNL     1       4.058   4.678  18.234  0.00  0.00    +0.000 S 
ATOM     21  O   UNL     1       4.744   4.024  19.328  0.00  0.00    +0.000 OA
ATOM     22  O   UNL     1       3.088   3.970  17.435  0.00  0.00    +0.000 OA
BRANCH  20  30
ATOM     23  C   UNL     1       3.196   7.873  17.179  0.00  0.00    +0.000 C 
ATOM     24  C   UNL     1       2.886   7.249  18.491  0.00  0.00    +0.000 A 
ATOM     25  N   UNL     1       2.180   7.981  19.364  0.00  0.00    +0.000 NA
ATOM     26  N   UNL     1       1.839   7.121  20.332  0.00  0.00    +0.000 N 
ATOM     27  C   UNL     1       0.889   7.561  21.330  0.00  0.00    +0.000 C 
ATOM     28  C   UNL     1       2.390   5.873  20.171  0.00  0.00    +0.000 A 
ATOM     29  C   UNL     1       2.066   4.728  21.062  0.00  0.00    +0.000 C 
ATOM     30  C   UNL     1       3.152   5.950  19.005  0.00  0.00    +0.000 A 
ENDBRANCH  20  30
ENDBRANCH   1  20
TORSDOF 7
ENDMDL
MODEL 9
REMARK VINA RESULT:      -8.2      1.804      2.405
REMARK  Name = 
REMARK  10 active torsions:
REMARK  status: ('A' for Active; 'I' for Inactive)
REMARK    1  A    between atoms: C_1  and  C_2
REMARK    2  A    between atoms: N_4  and  C_5
REMARK    3  A    between atoms: C_6  and  C_7
REMARK    4  A    between atoms: C_8  and  S_9
REMARK    5  A    between atoms: S_9  and  N_12
REMARK    6  A    between atoms: C_16  and  C_17
REMARK    7  A    between atoms: C_20  and  C_21
REMARK    8  A    between atoms: C_21  and  O_22
REMARK    9  A    between atoms: O_22  and  C_23
REMARK   10  A    between atoms: C_23  and  C_24
REMARK                            x       y       z     vdW  Elec       q    Type
REMARK                         _______ _______ _______ _____ _____    ______ ____
ROOT
ATOM      1  N   UNL     1       3.920   5.479  19.278  0.00  0.00    +0.000 NA
ATOM      2  C   UNL     1       2.965   4.912  20.241  0.00  0.00    +0.000 C 
ATOM      3  C   UNL     1       1.980   4.174  19.357  0.00  0.00    +0.000 C 
ATOM      4  C   UNL     1       1.852   5.061  18.129  0.00  0.00    +0.000 C 
ATOM      5  C   UNL     1       3.158   5.881  18.063  0.00  0.00    +0.000 C 
ENDROOT
BRANCH   5   6
ATOM      6  C   UNL     1       2.804   7.349  18.106  0.00  0.00    +0.000 A 
ATOM      7  N   UNL     1       2.871   8.131  17.017  0.00  0.00    +0.000 NA
ATOM      8  O   UNL     1       2.201   9.292  17.409  0.00  0.00    +0.000 OA
ATOM      9  C   UNL     1       1.773   9.085  18.688  0.00  0.00    +0.000 A 
ATOM     10  N   UNL     1       2.115   7.909  19.164  0.00  0.00    +0.000 NA
BRANCH   9  11
ATOM     11  C   UNL     1       1.020  10.195  19.327  0.00  0.00    +0.000 C 
BRANCH  11  12
ATOM     12  O   UNL     1       0.113   9.679  20.304  0.00  0.00    +0.000 OA
BRANCH  12  13
ATOM     13  C   UNL     1       0.266  10.292  21.581  0.00  0.00    +0.000 C 
BRANCH  13  14
ATOM     14  C   UNL     1      -0.943  11.145  21.837  0.00  0.00    +0.000 A 
ATOM     15  C   UNL     1      -1.524  11.877  20.791  0.00  0.00    +0.000 A 
ATOM     16  C   UNL     1      -2.645  12.674  21.023  0.00  0.00    +0.000 A 
ATOM     17  C   UNL     1      -3.189  12.753  22.305  0.00  0.00    +0.000 A 
ATOM     18  C   UNL     1      -2.607  12.047  23.353  0.00  0.00    +0.000 A 
ATOM     19  C   UNL     1      -1.485  11.247  23.124  0.00  0.00    +0.000 A 
ENDBRANCH  13  14
ENDBRANCH  12  13
ENDBRANCH  11  12
ENDBRANCH   9  11
ENDBRANCH   5   6
BRANCH   1  20
ATOM     20  S   UNL     1       5.434   4.760  19.086  0.00  0.00    +0.000 S 
ATOM     21  O   UNL     1       5.229   3.330  19.000  0.00  0.00    +0.000 OA
ATOM     22  O   UNL     1       6.314   5.327  20.079  0.00  0.00    +0.000 OA
BRANCH  20  30
ATOM     23  C   UNL     1       7.960   6.997  18.258  0.00  0.00    +0.000 C 
ATOM     24  C   UNL     1       7.181   6.142  17.327  0.00  0.00    +0.000 A 
ATOM     25  N   UNL     1       7.490   6.218  16.025  0.00  0.00    +0.000 NA
ATOM     26  N   UNL     1       6.831   5.199  15.459  0.00  0.00    +0.000 N 
ATOM     27  C   UNL     1       7.123   4.881  14.078  0.00  0.00    +0.000 C 
ATOM     28  C   UNL     1       6.017   4.523  16.335  0.00  0.00    +0.000 A 
ATOM     29  C   UNL     1       5.272   3.292  15.957  0.00  0.00    +0.000 C 
ATOM     30  C   UNL     1       6.166   5.173  17.560  0.00  0.00    +0.000 A 
ENDBRANCH  20  30
ENDBRANCH   1  20
TORSDOF 7
ENDMDL
