MODEL 1
REMARK VINA RESULT:      -7.5      0.000      0.000
REMARK  Name = 
REMARK  7 active torsions:
REMARK  status: ('A' for Active; 'I' for Inactive)
REMARK    1  A    between atoms: C_1  and  N_2
REMARK    2  A    between atoms: N_2  and  C_3
REMARK    3  A    between atoms: N_2  and  C_4
REMARK    4  A    between atoms: C_4  and  C_5
REMARK    5  A    between atoms: C_5  and  C_6
REMARK    6  A    between atoms: C_6  and  N_7
REMARK    7  A    between atoms: N_7  and  C_8
REMARK                            x       y       z     vdW  Elec       q    Type
REMARK                         _______ _______ _______ _____ _____    ______ ____
ROOT
ATOM      1  C   UNL     1       2.116   6.519  19.949  0.00  0.00    +0.000 A 
ATOM      2  C   UNL     1       1.486   5.554  20.796  0.00  0.00    +0.000 A 
ATOM      3  C   UNL     1       1.693   4.174  20.734  0.00  0.00    +0.000 A 
ATOM      4  C   UNL     1       2.533   3.703  19.747  0.00  0.00    +0.000 A 
ATOM      5  N   UNL     1       2.858   2.415  19.449  0.00  0.00    +0.000 NA
ATOM      6  C   UNL     1       3.640   2.506  18.400  0.00  0.00    +0.000 A 
ATOM      7  N   UNL     1       3.823   3.812  18.024  0.00  0.00    +0.000 N 
ATOM      8  C   UNL     1       4.536   4.320  16.942  0.00  0.00    +0.000 A 
ATOM      9  C   UNL     1       5.096   3.431  16.013  0.00  0.00    +0.000 A 
ATOM     10  C   UNL     1       5.815   3.965  14.979  0.00  0.00    +0.000 A 
ATOM     11  C   UNL     1       6.028   5.320  14.883  0.00  0.00    +0.000 A 
ATOM     12  C   UNL     1       5.481   6.225  15.806  0.00  0.00    +0.000 A 
ATOM     13  C   UNL     1       4.667   5.732  16.857  0.00  0.00    +0.000 A 
ATOM     14  C   UNL     1       3.914   6.663  17.862  0.00  0.00    +0.000 A 
ATOM     15  O   UNL     1       4.047   7.878  17.770  0.00  0.00    +0.000 OA
ATOM     16  C   UNL     1       3.023   6.012  18.934  0.00  0.00    +0.000 A 
ATOM     17  C   UNL     1       3.139   4.609  18.898  0.00  0.00    +0.000 A 
ATOM     18  O   UNL     1       6.797   5.602  13.788  0.00  0.00    +0.000 OA
ATOM     19  C   UNL     1       6.928   4.286  13.178  0.00  0.00    +0.000 C 
ATOM     20  O   UNL     1       6.375   3.240  13.981  0.00  0.00    +0.000 OA
ENDROOT
BRANCH   1  21
ATOM     21  N   UNL     1       1.736   7.910  20.151  0.00  0.00    +0.000 N 
ATOM     22  H   UNL     1       1.123   8.179  19.380  0.00  0.00    +0.000 HD
BRANCH  21  23
ATOM     23  C   UNL     1       1.094   8.219  21.483  0.00  0.00    +0.000 C 
BRANCH  23  24
ATOM     24  C   UNL     1      -0.255   8.947  21.551  0.00  0.00    +0.000 C 
BRANCH  24  25
ATOM     25  C   UNL     1      -0.425  10.290  20.803  0.00  0.00    +0.000 C 
BRANCH  25  27
ATOM     26  C   UNL     1      -1.545  10.839  18.665  0.00  0.00    +0.000 C 
ATOM     27  N   UNL     1      -0.341  10.314  19.324  0.00  0.00    +0.000 NA
ATOM     28  C   UNL     1       0.790  11.180  18.924  0.00  0.00    +0.000 C 
ENDBRANCH  25  27
ENDBRANCH  24  25
ENDBRANCH  23  24
ENDBRANCH  21  23
ENDBRANCH   1  21
TORSDOF 5
ENDMDL
MODEL 2
REMARK VINA RESULT:      -7.4      2.496      7.825
REMARK  Name = 
REMARK  7 active torsions:
REMARK  status: ('A' for Active; 'I' for Inactive)
REMARK    1  A    between atoms: C_1  and  N_2
REMARK    2  A    between atoms: N_2  and  C_3
REMARK    3  A    between atoms: N_2  and  C_4
REMARK    4  A    between atoms: C_4  and  C_5
REMARK    5  A    between atoms: C_5  and  C_6
REMARK    6  A    between atoms: C_6  and  N_7
REMARK    7  A    between atoms: N_7  and  C_8
REMARK                            x       y       z     vdW  Elec       q    Type
REMARK                         _______ _______ _______ _____ _____    ______ ____
ROOT
ATOM      1  C   UNL     1       4.525   5.451  17.074  0.00  0.00    +0.000 A 
ATOM      2  C   UNL     1       4.851   4.122  17.491  0.00  0.00    +0.000 A 
ATOM      3  C   UNL     1       4.319   3.479  18.610  0.00  0.00    +0.000 A 
ATOM      4  C   UNL     1       3.448   4.199  19.401  0.00  0.00    +0.000 A 
ATOM      5  N   UNL     1       2.837   3.821  20.557  0.00  0.00    +0.000 NA
ATOM      6  C   UNL     1       2.163   4.881  20.936  0.00  0.00    +0.000 A 
ATOM      7  N   UNL     1       2.325   5.919  20.055  0.00  0.00    +0.000 N 
ATOM      8  C   UNL     1       1.821   7.215  20.125  0.00  0.00    +0.000 A 
ATOM      9  C   UNL     1       1.117   7.613  21.270  0.00  0.00    +0.000 A 
ATOM     10  C   UNL     1       0.611   8.884  21.292  0.00  0.00    +0.000 A 
ATOM     11  C   UNL     1       0.740   9.722  20.210  0.00  0.00    +0.000 A 
ATOM     12  C   UNL     1       1.437   9.339  19.053  0.00  0.00    +0.000 A 
ATOM     13  C   UNL     1       2.043   8.058  19.005  0.00  0.00    +0.000 A 
ATOM     14  C   UNL     1       2.941   7.583  17.816  0.00  0.00    +0.000 A 
ATOM     15  O   UNL     1       3.113   8.329  16.859  0.00  0.00    +0.000 OA
ATOM     16  C   UNL     1       3.582   6.188  17.898  0.00  0.00    +0.000 A 
ATOM     17  C   UNL     1       3.131   5.493  19.037  0.00  0.00    +0.000 A 
ATOM     18  O   UNL     1       0.128  10.918  20.462  0.00  0.00    +0.000 OA
ATOM     19  C   UNL     1      -0.285  10.748  21.848  0.00  0.00    +0.000 C 
ATOM     20  O   UNL     1      -0.050   9.427  22.342  0.00  0.00    +0.000 OA
ENDROOT
BRANCH   1  21
ATOM     21  N   UNL     1       5.220   5.953  15.897  0.00  0.00    +0.000 N 
ATOM     22  H   UNL     1       5.319   6.964  16.003  0.00  0.00    +0.000 HD
BRANCH  21  23
ATOM     23  C   UNL     1       6.555   5.308  15.608  0.00  0.00    +0.000 C 
BRANCH  23  24
ATOM     24  C   UNL     1       6.886   4.788  14.203  0.00  0.00    +0.000 C 
BRANCH  24  25
ATOM     25  C   UNL     1       6.020   3.661  13.594  0.00  0.00    +0.000 C 
BRANCH  25  27
ATOM     26  C   UNL     1       6.748   2.368  11.613  0.00  0.00    +0.000 C 
ATOM     27  N   UNL     1       5.964   3.502  12.123  0.00  0.00    +0.000 NA
ATOM     28  C   UNL     1       4.558   3.278  11.720  0.00  0.00    +0.000 C 
ENDBRANCH  25  27
ENDBRANCH  24  25
ENDBRANCH  23  24
ENDBRANCH  21  23
ENDBRANCH   1  21
TORSDOF 5
ENDMDL
MODEL 3
REMARK VINA RESULT:      -7.3      1.108      1.445
REMARK  Name = 
REMARK  7 active torsions:
REMARK  status: ('A' for Active; 'I' for Inactive)
REMARK    1  A    between atoms: C_1  and  N_2
REMARK    2  A    between atoms: N_2  and  C_3
REMARK    3  A    between atoms: N_2  and  C_4
REMARK    4  A    between atoms: C_4  and  C_5
REMARK    5  A    between atoms: C_5  and  C_6
REMARK    6  A    between atoms: C_6  and  N_7
REMARK    7  A    between atoms: N_7  and  C_8
REMARK                            x       y       z     vdW  Elec       q    Type
REMARK                         _______ _______ _______ _____ _____    ______ ____
ROOT
ATOM      1  C   UNL     1       2.283   6.158  19.994  0.00  0.00    +0.000 A 
ATOM      2  C   UNL     1       1.465   5.174  20.632  0.00  0.00    +0.000 A 
ATOM      3  C   UNL     1       1.462   3.811  20.326  0.00  0.00    +0.000 A 
ATOM      4  C   UNL     1       2.278   3.391  19.296  0.00  0.00    +0.000 A 
ATOM      5  N   UNL     1       2.420   2.140  18.779  0.00  0.00    +0.000 NA
ATOM      6  C   UNL     1       3.266   2.287  17.788  0.00  0.00    +0.000 A 
ATOM      7  N   UNL     1       3.668   3.592  17.662  0.00  0.00    +0.000 N 
ATOM      8  C   UNL     1       4.513   4.161  16.712  0.00  0.00    +0.000 A 
ATOM      9  C   UNL     1       4.984   3.370  15.655  0.00  0.00    +0.000 A 
ATOM     10  C   UNL     1       5.836   3.954  14.757  0.00  0.00    +0.000 A 
ATOM     11  C   UNL     1       6.257   5.253  14.916  0.00  0.00    +0.000 A 
ATOM     12  C   UNL     1       5.801   6.059  15.971  0.00  0.00    +0.000 A 
ATOM     13  C   UNL     1       4.862   5.525  16.890  0.00  0.00    +0.000 A 
ATOM     14  C   UNL     1       4.201   6.375  18.025  0.00  0.00    +0.000 A 
ATOM     15  O   UNL     1       4.523   7.550  18.158  0.00  0.00    +0.000 OA
ATOM     16  C   UNL     1       3.161   5.698  18.932  0.00  0.00    +0.000 A 
ATOM     17  C   UNL     1       3.063   4.322  18.645  0.00  0.00    +0.000 A 
ATOM     18  O   UNL     1       7.123   5.595  13.915  0.00  0.00    +0.000 OA
ATOM     19  C   UNL     1       7.089   4.403  13.080  0.00  0.00    +0.000 C 
ATOM     20  O   UNL     1       6.337   3.335  13.662  0.00  0.00    +0.000 OA
ENDROOT
BRANCH   1  21
ATOM     21  N   UNL     1       2.108   7.535  20.434  0.00  0.00    +0.000 N 
ATOM     22  H   UNL     1       3.031   7.908  20.662  0.00  0.00    +0.000 HD
BRANCH  21  23
ATOM     23  C   UNL     1       1.387   8.439  19.462  0.00  0.00    +0.000 C 
BRANCH  23  24
ATOM     24  C   UNL     1       0.520   9.600  19.968  0.00  0.00    +0.000 C 
BRANCH  24  25
ATOM     25  C   UNL     1       1.025  10.456  21.152  0.00  0.00    +0.000 C 
BRANCH  25  27
ATOM     26  C   UNL     1      -0.962  11.548  22.145  0.00  0.00    +0.000 C 
ATOM     27  N   UNL     1       0.164  10.626  22.345  0.00  0.00    +0.000 NA
ATOM     28  C   UNL     1      -0.407   9.312  22.713  0.00  0.00    +0.000 C 
ENDBRANCH  25  27
ENDBRANCH  24  25
ENDBRANCH  23  24
ENDBRANCH  21  23
ENDBRANCH   1  21
TORSDOF 5
ENDMDL
MODEL 4
REMARK VINA RESULT:      -7.3      1.018      1.196
REMARK  Name = 
REMARK  7 active torsions:
REMARK  status: ('A' for Active; 'I' for Inactive)
REMARK    1  A    between atoms: C_1  and  N_2
REMARK    2  A    between atoms: N_2  and  C_3
REMARK    3  A    between atoms: N_2  and  C_4
REMARK    4  A    between atoms: C_4  and  C_5
REMARK    5  A    between atoms: C_5  and  C_6
REMARK    6  A    between atoms: C_6  and  N_7
REMARK    7  A    between atoms: N_7  and  C_8
REMARK                            x       y       z     vdW  Elec       q    Type
REMARK                         _______ _______ _______ _____ _____    ______ ____
ROOT
ATOM      1  C   UNL     1       2.313   6.294  19.922  0.00  0.00    +0.000 A 
ATOM      2  C   UNL     1       1.521   5.322  20.611  0.00  0.00    +0.000 A 
ATOM      3  C   UNL     1       1.542   3.948  20.363  0.00  0.00    +0.000 A 
ATOM      4  C   UNL     1       2.355   3.500  19.343  0.00  0.00    +0.000 A 
ATOM      5  N   UNL     1       2.517   2.231  18.878  0.00  0.00    +0.000 NA
ATOM      6  C   UNL     1       3.350   2.351  17.872  0.00  0.00    +0.000 A 
ATOM      7  N   UNL     1       3.725   3.657  17.686  0.00  0.00    +0.000 N 
ATOM      8  C   UNL     1       4.548   4.201  16.704  0.00  0.00    +0.000 A 
ATOM      9  C   UNL     1       5.024   3.374  15.676  0.00  0.00    +0.000 A 
ATOM     10  C   UNL     1       5.855   3.936  14.745  0.00  0.00    +0.000 A 
ATOM     11  C   UNL     1       6.253   5.248  14.844  0.00  0.00    +0.000 A 
ATOM     12  C   UNL     1       5.791   6.090  15.869  0.00  0.00    +0.000 A 
ATOM     13  C   UNL     1       4.872   5.578  16.819  0.00  0.00    +0.000 A 
ATOM     14  C   UNL     1       4.207   6.463  17.924  0.00  0.00    +0.000 A 
ATOM     15  O   UNL     1       4.506   7.649  18.004  0.00  0.00    +0.000 OA
ATOM     16  C   UNL     1       3.189   5.805  18.871  0.00  0.00    +0.000 A 
ATOM     17  C   UNL     1       3.115   4.417  18.644  0.00  0.00    +0.000 A 
ATOM     18  O   UNL     1       7.101   5.564  13.819  0.00  0.00    +0.000 OA
ATOM     19  C   UNL     1       7.082   4.336  13.036  0.00  0.00    +0.000 C 
ATOM     20  O   UNL     1       6.357   3.280  13.672  0.00  0.00    +0.000 OA
ENDROOT
BRANCH   1  21
ATOM     21  N   UNL     1       2.116   7.685  20.305  0.00  0.00    +0.000 N 
ATOM     22  H   UNL     1       2.118   8.245  19.451  0.00  0.00    +0.000 HD
BRANCH  21  23
ATOM     23  C   UNL     1       0.878   7.961  21.126  0.00  0.00    +0.000 C 
BRANCH  23  24
ATOM     24  C   UNL     1       0.897   9.017  22.239  0.00  0.00    +0.000 C 
BRANCH  24  25
ATOM     25  C   UNL     1      -0.052  10.233  22.141  0.00  0.00    +0.000 C 
BRANCH  25  27
ATOM     26  C   UNL     1       0.973  11.663  20.400  0.00  0.00    +0.000 C 
ATOM     27  N   UNL     1       0.501  11.561  21.789  0.00  0.00    +0.000 NA
ATOM     28  C   UNL     1      -0.555  12.581  21.968  0.00  0.00    +0.000 C 
ENDBRANCH  25  27
ENDBRANCH  24  25
ENDBRANCH  23  24
ENDBRANCH  21  23
ENDBRANCH   1  21
TORSDOF 5
ENDMDL
MODEL 5
REMARK VINA RESULT:      -7.3      2.371      7.060
REMARK  Name = 
REMARK  7 active torsions:
REMARK  status: ('A' for Active; 'I' for Inactive)
REMARK    1  A    between atoms: C_1  and  N_2
REMARK    2  A    between atoms: N_2  and  C_3
REMARK    3  A    between atoms: N_2  and  C_4
REMARK    4  A    between atoms: C_4  and  C_5
REMARK    5  A    between atoms: C_5  and  C_6
REMARK    6  A    between atoms: C_6  and  N_7
REMARK    7  A    between atoms: N_7  and  C_8
REMARK                            x       y       z     vdW  Elec       q    Type
REMARK                         _______ _______ _______ _____ _____    ______ ____
ROOT
ATOM      1  C   UNL     1       4.070   4.622  17.129  0.00  0.00    +0.000 A 
ATOM      2  C   UNL     1       4.170   3.318  17.708  0.00  0.00    +0.000 A 
ATOM      3  C   UNL     1       3.578   2.926  18.911  0.00  0.00    +0.000 A 
ATOM      4  C   UNL     1       2.884   3.885  19.618  0.00  0.00    +0.000 A 
ATOM      5  N   UNL     1       2.264   3.771  20.824  0.00  0.00    +0.000 NA
ATOM      6  C   UNL     1       1.807   4.975  21.076  0.00  0.00    +0.000 A 
ATOM      7  N   UNL     1       2.116   5.849  20.066  0.00  0.00    +0.000 N 
ATOM      8  C   UNL     1       1.855   7.214  19.977  0.00  0.00    +0.000 A 
ATOM      9  C   UNL     1       1.282   7.872  21.074  0.00  0.00    +0.000 A 
ATOM     10  C   UNL     1       1.013   9.208  20.941  0.00  0.00    +0.000 A 
ATOM     11  C   UNL     1       1.245   9.867  19.758  0.00  0.00    +0.000 A 
ATOM     12  C   UNL     1       1.813   9.224  18.647  0.00  0.00    +0.000 A 
ATOM     13  C   UNL     1       2.178   7.858  18.753  0.00  0.00    +0.000 A 
ATOM     14  C   UNL     1       2.926   7.083  17.619  0.00  0.00    +0.000 A 
ATOM     15  O   UNL     1       3.189   7.661  16.571  0.00  0.00    +0.000 OA
ATOM     16  C   UNL     1       3.309   5.615  17.869  0.00  0.00    +0.000 A 
ATOM     17  C   UNL     1       2.789   5.161  19.096  0.00  0.00    +0.000 A 
ATOM     18  O   UNL     1       0.868  11.177  19.864  0.00  0.00    +0.000 OA
ATOM     19  C   UNL     1       0.490  11.258  21.268  0.00  0.00    +0.000 C 
ATOM     20  O   UNL     1       0.504   9.988  21.924  0.00  0.00    +0.000 OA
ENDROOT
BRANCH   1  21
ATOM     21  N   UNL     1       4.794   4.839  15.885  0.00  0.00    +0.000 N 
ATOM     22  H   UNL     1       4.982   5.840  15.806  0.00  0.00    +0.000 HD
BRANCH  21  23
ATOM     23  C   UNL     1       6.066   4.039  15.727  0.00  0.00    +0.000 C 
BRANCH  23  24
ATOM     24  C   UNL     1       7.415   4.618  16.172  0.00  0.00    +0.000 C 
BRANCH  24  25
ATOM     25  C   UNL     1       7.819   4.528  17.662  0.00  0.00    +0.000 C 
BRANCH  25  27
ATOM     26  C   UNL     1       7.397   6.964  17.782  0.00  0.00    +0.000 C 
ATOM     27  N   UNL     1       7.706   5.730  18.519  0.00  0.00    +0.000 NA
ATOM     28  C   UNL     1       6.615   5.520  19.496  0.00  0.00    +0.000 C 
ENDBRANCH  25  27
ENDBRANCH  24  25
ENDBRANCH  23  24
ENDBRANCH  21  23
ENDBRANCH   1  21
TORSDOF 5
ENDMDL
MODEL 6
REMARK VINA RESULT:      -7.2      0.852      1.018
REMARK  Name = 
REMARK  7 active torsions:
REMARK  status: ('A' for Active; 'I' for Inactive)
REMARK    1  A    between atoms: C_1  and  N_2
REMARK    2  A    between atoms: N_2  and  C_3
REMARK    3  A    between atoms: N_2  and  C_4
REMARK    4  A    between atoms: C_4  and  C_5
REMARK    5  A    between atoms: C_5  and  C_6
REMARK    6  A    between atoms: C_6  and  N_7
REMARK    7  A    between atoms: N_7  and  C_8
REMARK                            x       y       z     vdW  Elec       q    Type
REMARK                         _______ _______ _______ _____ _____    ______ ____
ROOT
ATOM      1  C   UNL     1       2.280   6.093  20.007  0.00  0.00    +0.000 A 
ATOM      2  C   UNL     1       1.470   5.097  20.639  0.00  0.00    +0.000 A 
ATOM      3  C   UNL     1       1.479   3.737  20.325  0.00  0.00    +0.000 A 
ATOM      4  C   UNL     1       2.298   3.330  19.292  0.00  0.00    +0.000 A 
ATOM      5  N   UNL     1       2.450   2.083  18.768  0.00  0.00    +0.000 NA
ATOM      6  C   UNL     1       3.295   2.243  17.777  0.00  0.00    +0.000 A 
ATOM      7  N   UNL     1       3.686   3.551  17.659  0.00  0.00    +0.000 N 
ATOM      8  C   UNL     1       4.526   4.133  16.713  0.00  0.00    +0.000 A 
ATOM      9  C   UNL     1       5.003   3.352  15.651  0.00  0.00    +0.000 A 
ATOM     10  C   UNL     1       5.850   3.950  14.756  0.00  0.00    +0.000 A 
ATOM     11  C   UNL     1       6.260   5.250  14.923  0.00  0.00    +0.000 A 
ATOM     12  C   UNL     1       5.798   6.046  15.983  0.00  0.00    +0.000 A 
ATOM     13  C   UNL     1       4.863   5.500  16.898  0.00  0.00    +0.000 A 
ATOM     14  C   UNL     1       4.196   6.337  18.038  0.00  0.00    +0.000 A 
ATOM     15  O   UNL     1       4.507   7.514  18.179  0.00  0.00    +0.000 OA
ATOM     16  C   UNL     1       3.161   5.646  18.942  0.00  0.00    +0.000 A 
ATOM     17  C   UNL     1       3.075   4.271  18.647  0.00  0.00    +0.000 A 
ATOM     18  O   UNL     1       7.123   5.606  13.923  0.00  0.00    +0.000 OA
ATOM     19  C   UNL     1       7.098   4.418  13.081  0.00  0.00    +0.000 C 
ATOM     20  O   UNL     1       6.355   3.341  13.657  0.00  0.00    +0.000 OA
ENDROOT
BRANCH   1  21
ATOM     21  N   UNL     1       2.093   7.465  20.455  0.00  0.00    +0.000 N 
ATOM     22  H   UNL     1       2.992   7.803  20.803  0.00  0.00    +0.000 HD
BRANCH  21  23
ATOM     23  C   UNL     1       1.525   8.412  19.424  0.00  0.00    +0.000 C 
BRANCH  23  24
ATOM     24  C   UNL     1       0.647   9.596  19.849  0.00  0.00    +0.000 C 
BRANCH  24  25
ATOM     25  C   UNL     1       0.575  10.845  18.940  0.00  0.00    +0.000 C 
BRANCH  25  27
ATOM     26  C   UNL     1      -1.498  10.250  17.727  0.00  0.00    +0.000 C 
ATOM     27  N   UNL     1      -0.739  11.296  18.426  0.00  0.00    +0.000 NA
ATOM     28  C   UNL     1      -1.567  11.750  19.565  0.00  0.00    +0.000 C 
ENDBRANCH  25  27
ENDBRANCH  24  25
ENDBRANCH  23  24
ENDBRANCH  21  23
ENDBRANCH   1  21
TORSDOF 5
ENDMDL
MODEL 7
REMARK VINA RESULT:      -7.2      2.348      7.417
REMARK  Name = 
REMARK  7 active torsions:
REMARK  status: ('A' for Active; 'I' for Inactive)
REMARK    1  A    between atoms: C_1  and  N_2
REMARK    2  A    between atoms: N_2  and  C_3
REMARK    3  A    between atoms: N_2  and  C_4
REMARK    4  A    between atoms: C_4  and  C_5
REMARK    5  A    between atoms: C_5  and  C_6
REMARK    6  A    between atoms: C_6  and  N_7
REMARK    7  A    between atoms: N_7  and  C_8
REMARK                            x       y       z     vdW  Elec       q    Type
REMARK                         _______ _______ _______ _____ _____    ______ ____
ROOT
ATOM      1  C   UNL     1       4.981   4.089  17.965  0.00  0.00    +0.000 A 
ATOM      2  C   UNL     1       4.898   2.931  18.800  0.00  0.00    +0.000 A 
ATOM      3  C   UNL     1       4.004   2.770  19.861  0.00  0.00    +0.000 A 
ATOM      4  C   UNL     1       3.171   3.829  20.156  0.00  0.00    +0.000 A 
ATOM      5  N   UNL     1       2.256   3.940  21.157  0.00  0.00    +0.000 NA
ATOM      6  C   UNL     1       1.777   5.155  21.034  0.00  0.00    +0.000 A 
ATOM      7  N   UNL     1       2.358   5.818  19.984  0.00  0.00    +0.000 N 
ATOM      8  C   UNL     1       2.160   7.128  19.558  0.00  0.00    +0.000 A 
ATOM      9  C   UNL     1       1.336   7.975  20.312  0.00  0.00    +0.000 A 
ATOM     10  C   UNL     1       1.141   9.248  19.848  0.00  0.00    +0.000 A 
ATOM     11  C   UNL     1       1.688   9.664  18.658  0.00  0.00    +0.000 A 
ATOM     12  C   UNL     1       2.511   8.829  17.886  0.00  0.00    +0.000 A 
ATOM     13  C   UNL     1       2.804   7.524  18.356  0.00  0.00    +0.000 A 
ATOM     14  C   UNL     1       3.804   6.562  17.635  0.00  0.00    +0.000 A 
ATOM     15  O   UNL     1       4.344   6.926  16.597  0.00  0.00    +0.000 OA
ATOM     16  C   UNL     1       4.077   5.186  18.266  0.00  0.00    +0.000 A 
ATOM     17  C   UNL     1       3.245   4.971  19.381  0.00  0.00    +0.000 A 
ATOM     18  O   UNL     1       1.326  10.956  18.396  0.00  0.00    +0.000 OA
ATOM     19  C   UNL     1       0.597  11.305  19.608  0.00  0.00    +0.000 C 
ATOM     20  O   UNL     1       0.412  10.193  20.487  0.00  0.00    +0.000 OA
ENDROOT
BRANCH   1  21
ATOM     21  N   UNL     1       6.009   4.075  16.933  0.00  0.00    +0.000 N 
ATOM     22  H   UNL     1       6.828   3.603  17.319  0.00  0.00    +0.000 HD
BRANCH  21  23
ATOM     23  C   UNL     1       5.599   3.455  15.618  0.00  0.00    +0.000 C 
BRANCH  23  24
ATOM     24  C   UNL     1       5.635   4.275  14.322  0.00  0.00    +0.000 C 
BRANCH  24  25
ATOM     25  C   UNL     1       6.575   3.833  13.177  0.00  0.00    +0.000 C 
BRANCH  25  27
ATOM     26  C   UNL     1       6.266   1.928  11.628  0.00  0.00    +0.000 C 
ATOM     27  N   UNL     1       5.993   3.345  11.905  0.00  0.00    +0.000 NA
ATOM     28  C   UNL     1       4.524   3.505  11.960  0.00  0.00    +0.000 C 
ENDBRANCH  25  27
ENDBRANCH  24  25
ENDBRANCH  23  24
ENDBRANCH  21  23
ENDBRANCH   1  21
TORSDOF 5
ENDMDL
MODEL 8
REMARK VINA RESULT:      -7.1      1.055      1.368
REMARK  Name = 
REMARK  7 active torsions:
REMARK  status: ('A' for Active; 'I' for Inactive)
REMARK    1  A    between atoms: C_1  and  N_2
REMARK    2  A    between atoms: N_2  and  C_3
REMARK    3  A    between atoms: N_2  and  C_4
REMARK    4  A    between atoms: C_4  and  C_5
REMARK    5  A    between atoms: C_5  and  C_6
REMARK    6  A    between atoms: C_6  and  N_7
REMARK    7  A    between atoms: N_7  and  C_8
REMARK                            x       y       z     vdW  Elec       q    Type
REMARK                         _______ _______ _______ _____ _____    ______ ____
ROOT
ATOM      1  C   UNL     1       2.282   6.072  19.981  0.00  0.00    +0.000 A 
ATOM      2  C   UNL     1       1.451   5.081  20.594  0.00  0.00    +0.000 A 
ATOM      3  C   UNL     1       1.441   3.725  20.261  0.00  0.00    +0.000 A 
ATOM      4  C   UNL     1       2.262   3.319  19.229  0.00  0.00    +0.000 A 
ATOM      5  N   UNL     1       2.399   2.077  18.689  0.00  0.00    +0.000 NA
ATOM      6  C   UNL     1       3.254   2.237  17.707  0.00  0.00    +0.000 A 
ATOM      7  N   UNL     1       3.666   3.541  17.609  0.00  0.00    +0.000 N 
ATOM      8  C   UNL     1       4.522   4.122  16.678  0.00  0.00    +0.000 A 
ATOM      9  C   UNL     1       4.996   3.348  15.609  0.00  0.00    +0.000 A 
ATOM     10  C   UNL     1       5.859   3.944  14.730  0.00  0.00    +0.000 A 
ATOM     11  C   UNL     1       6.288   5.235  14.917  0.00  0.00    +0.000 A 
ATOM     12  C   UNL     1       5.830   6.024  15.984  0.00  0.00    +0.000 A 
ATOM     13  C   UNL     1       4.880   5.480  16.885  0.00  0.00    +0.000 A 
ATOM     14  C   UNL     1       4.216   6.313  18.031  0.00  0.00    +0.000 A 
ATOM     15  O   UNL     1       4.545   7.482  18.190  0.00  0.00    +0.000 OA
ATOM     16  C   UNL     1       3.164   5.625  18.917  0.00  0.00    +0.000 A 
ATOM     17  C   UNL     1       3.059   4.257  18.603  0.00  0.00    +0.000 A 
ATOM     18  O   UNL     1       7.164   5.591  13.929  0.00  0.00    +0.000 OA
ATOM     19  C   UNL     1       7.128   4.415  13.071  0.00  0.00    +0.000 C 
ATOM     20  O   UNL     1       6.364   3.342  13.626  0.00  0.00    +0.000 OA
ENDROOT
BRANCH   1  21
ATOM     21  N   UNL     1       2.113   7.441  20.446  0.00  0.00    +0.000 N 
ATOM     22  H   UNL     1       3.001   7.743  20.850  0.00  0.00    +0.000 HD
BRANCH  21  23
ATOM     23  C   UNL     1       1.632   8.425  19.405  0.00  0.00    +0.000 C 
BRANCH  23  24
ATOM     24  C   UNL     1       0.793   9.644  19.809  0.00  0.00    +0.000 C 
BRANCH  24  25
ATOM     25  C   UNL     1       0.729  10.863  18.860  0.00  0.00    +0.000 C 
BRANCH  25  27
ATOM     26  C   UNL     1       2.428  12.532  18.185  0.00  0.00    +0.000 C 
ATOM     27  N   UNL     1       1.470  12.097  19.212  0.00  0.00    +0.000 NA
ATOM     28  C   UNL     1       0.501  13.198  19.401  0.00  0.00    +0.000 C 
ENDBRANCH  25  27
ENDBRANCH  24  25
ENDBRANCH  23  24
ENDBRANCH  21  23
ENDBRANCH   1  21
TORSDOF 5
ENDMDL
MODEL 9
REMARK VINA RESULT:      -6.9      1.834      2.702
REMARK  Name = 
REMARK  7 active torsions:
REMARK  status: ('A' for Active; 'I' for Inactive)
REMARK    1  A    between atoms: C_1  and  N_2
REMARK    2  A    between atoms: N_2  and  C_3
REMARK    3  A    between atoms: N_2  and  C_4
REMARK    4  A    between atoms: C_4  and  C_5
REMARK    5  A    between atoms: C_5  and  C_6
REMARK    6  A    between atoms: C_6  and  N_7
REMARK    7  A    between atoms: N_7  and  C_8
REMARK                            x       y       z     vdW  Elec       q    Type
REMARK                         _______ _______ _______ _____ _____    ______ ____
ROOT
ATOM      1  C   UNL     1       1.298   8.800  19.668  0.00  0.00    +0.000 A 
ATOM      2  C   UNL     1       0.661   8.274  20.836  0.00  0.00    +0.000 A 
ATOM      3  C   UNL     1       0.902   7.012  21.383  0.00  0.00    +0.000 A 
ATOM      4  C   UNL     1       1.789   6.191  20.716  0.00  0.00    +0.000 A 
ATOM      5  N   UNL     1       2.154   4.914  21.013  0.00  0.00    +0.000 NA
ATOM      6  C   UNL     1       2.970   4.571  20.045  0.00  0.00    +0.000 A 
ATOM      7  N   UNL     1       3.136   5.591  19.145  0.00  0.00    +0.000 N 
ATOM      8  C   UNL     1       3.876   5.608  17.965  0.00  0.00    +0.000 A 
ATOM      9  C   UNL     1       4.489   4.426  17.526  0.00  0.00    +0.000 A 
ATOM     10  C   UNL     1       5.232   4.487  16.379  0.00  0.00    +0.000 A 
ATOM     11  C   UNL     1       5.416   5.673  15.710  0.00  0.00    +0.000 A 
ATOM     12  C   UNL     1       4.815   6.868  16.137  0.00  0.00    +0.000 A 
ATOM     13  C   UNL     1       3.976   6.848  17.280  0.00  0.00    +0.000 A 
ATOM     14  C   UNL     1       3.166   8.094  17.766  0.00  0.00    +0.000 A 
ATOM     15  O   UNL     1       3.273   9.153  17.159  0.00  0.00    +0.000 OA
ATOM     16  C   UNL     1       2.253   7.938  18.994  0.00  0.00    +0.000 A 
ATOM     17  C   UNL     1       2.403   6.663  19.572  0.00  0.00    +0.000 A 
ATOM     18  O   UNL     1       6.217   5.482  14.618  0.00  0.00    +0.000 OA
ATOM     19  C   UNL     1       6.401   4.038  14.642  0.00  0.00    +0.000 C 
ATOM     20  O   UNL     1       5.844   3.423  15.806  0.00  0.00    +0.000 OA
ENDROOT
BRANCH   1  21
ATOM     21  N   UNL     1       0.879  10.127  19.239  0.00  0.00    +0.000 N 
ATOM     22  H   UNL     1       1.225  10.269  18.289  0.00  0.00    +0.000 HD
BRANCH  21  23
ATOM     23  C   UNL     1      -0.607  10.393  19.317  0.00  0.00    +0.000 C 
BRANCH  23  24
ATOM     24  C   UNL     1      -1.517  10.106  18.115  0.00  0.00    +0.000 C 
BRANCH  24  25
ATOM     25  C   UNL     1      -2.520  11.188  17.655  0.00  0.00    +0.000 C 
BRANCH  25  27
ATOM     26  C   UNL     1      -4.815  11.679  16.868  0.00  0.00    +0.000 C 
ATOM     27  N   UNL     1      -3.635  10.810  16.755  0.00  0.00    +0.000 NA
ATOM     28  C   UNL     1      -3.166  10.888  15.355  0.00  0.00    +0.000 C 
ENDBRANCH  25  27
ENDBRANCH  24  25
ENDBRANCH  23  24
ENDBRANCH  21  23
ENDBRANCH   1  21
TORSDOF 5
ENDMDL
