MODEL 1
REMARK VINA RESULT:      -7.3      0.000      0.000
REMARK  Name = 
REMARK  14 active torsions:
REMARK  status: ('A' for Active; 'I' for Inactive)
REMARK    1  A    between atoms: C_1  and  O_2
REMARK    2  A    between atoms: O_2  and  C_3
REMARK    3  A    between atoms: C_3  and  C_5
REMARK    4  A    between atoms: C_5  and  C_6
REMARK    5  A    between atoms: C_5  and  N_8
REMARK    6  A    between atoms: C_6  and  O_7
REMARK    7  A    between atoms: C_9  and  C_11
REMARK    8  A    between atoms: C_11  and  N_12
REMARK    9  A    between atoms: C_13  and  C_15
REMARK   10  A    between atoms: C_15  and  C_16
REMARK   11  A    between atoms: C_15  and  N_23
REMARK   12  A    between atoms: C_16  and  C_17
REMARK   13  A    between atoms: C_24  and  C_26
REMARK   14  A    between atoms: C_29  and  C_30
REMARK                            x       y       z     vdW  Elec       q    Type
REMARK                         _______ _______ _______ _____ _____    ______ ____
ROOT
ATOM      1  C   UNK     1      -1.487  11.159  18.735  0.00  0.00    +0.000 C 
ENDROOT
BRANCH   1   3
ATOM      2  N   UNK     1      -3.560  11.883  17.569  0.00  0.00    +0.000 N 
ATOM      3  C   UNK     1      -2.776  10.810  17.940  0.00  0.00    +0.000 C 
ATOM      4  O   UNK     1      -3.044   9.670  17.566  0.00  0.00    +0.000 OA
ATOM      5  H   UNK     1      -3.195  12.825  17.702  0.00  0.00    +0.000 HD
BRANCH   2   6
ATOM      6  C   UNK     1      -4.781  11.721  16.788  0.00  0.00    +0.000 C 
BRANCH   6   8
ATOM      7  N   UNK     1      -5.960  11.279  18.894  0.00  0.00    +0.000 N 
ATOM      8  C   UNK     1      -6.046  11.860  17.645  0.00  0.00    +0.000 C 
ATOM      9  O   UNK     1      -7.039  12.482  17.264  0.00  0.00    +0.000 OA
ATOM     10  H   UNK     1      -5.014  11.128  19.253  0.00  0.00    +0.000 HD
BRANCH   7  11
ATOM     11  C   UNK     1      -7.071  11.373  19.849  0.00  0.00    +0.000 C 
BRANCH  11  12
ATOM     12  C   UNK     1      -6.722  12.245  21.057  0.00  0.00    +0.000 C 
ATOM     13  O   UNK     1      -5.719  12.104  21.753  0.00  0.00    +0.000 OA
BRANCH  12  15
ATOM     14  C   UNK     1      -7.909  14.128  20.284  0.00  0.00    +0.000 C 
ATOM     15  O   UNK     1      -7.719  13.145  21.302  0.00  0.00    +0.000 OA
ENDBRANCH  12  15
ENDBRANCH  11  12
BRANCH  11  16
ATOM     16  C   UNK     1      -7.455   9.981  20.360  0.00  0.00    +0.000 C 
BRANCH  16  17
ATOM     17  O   UNK     1      -7.689   9.985  21.769  0.00  0.00    +0.000 OA
ATOM     18  H   UNK     1      -7.570  10.905  22.068  0.00  0.00    +0.000 HD
ENDBRANCH  16  17
ENDBRANCH  11  16
ENDBRANCH   7  11
ENDBRANCH   6   8
ENDBRANCH   2   6
ENDBRANCH   1   3
BRANCH   1  19
ATOM     19  N   UNK     1      -0.551  10.036  18.705  0.00  0.00    +0.000 N 
ATOM     20  C   UNK     1       0.512   9.965  19.569  0.00  0.00    +0.000 C 
ATOM     21  O   UNK     1       0.712  10.809  20.439  0.00  0.00    +0.000 OA
ATOM     22  H   UNK     1      -0.666   9.280  18.035  0.00  0.00    +0.000 HD
BRANCH  20  23
ATOM     23  C   UNK     1       1.352   8.794  19.399  0.00  0.00    +0.000 A 
ATOM     24  C   UNK     1       1.706   7.926  20.403  0.00  0.00    +0.000 A 
ATOM     25  O   UNK     1       2.505   6.968  19.873  0.00  0.00    +0.000 OA
ATOM     26  C   UNK     1       2.612   7.302  18.547  0.00  0.00    +0.000 A 
ATOM     27  N   UNK     1       1.921   8.377  18.204  0.00  0.00    +0.000 NA
BRANCH  26  28
ATOM     28  C   UNK     1       3.479   6.446  17.744  0.00  0.00    +0.000 A 
ATOM     29  C   UNK     1       3.338   5.048  17.758  0.00  0.00    +0.000 A 
ATOM     30  C   UNK     1       4.174   4.235  16.992  0.00  0.00    +0.000 A 
ATOM     31  C   UNK     1       5.167   4.810  16.202  0.00  0.00    +0.000 A 
ATOM     32  C   UNK     1       5.326   6.194  16.183  0.00  0.00    +0.000 A 
ATOM     33  C   UNK     1       4.488   7.008  16.950  0.00  0.00    +0.000 A 
ENDBRANCH  26  28
ENDBRANCH  20  23
ENDBRANCH   1  19
BRANCH   1  34
ATOM     34  C   UNK     1      -0.859  12.463  18.198  0.00  0.00    +0.000 C 
BRANCH  34  35
ATOM     35  C   UNK     1      -0.898  13.626  19.170  0.00  0.00    +0.000 A 
ATOM     36  C   UNK     1      -1.598  13.530  20.382  0.00  0.00    +0.000 A 
ATOM     37  C   UNK     1      -1.674  14.626  21.248  0.00  0.00    +0.000 A 
ATOM     38  C   UNK     1      -1.030  15.819  20.926  0.00  0.00    +0.000 A 
ATOM     39  C   UNK     1      -0.291  15.909  19.749  0.00  0.00    +0.000 A 
ATOM     40  C   UNK     1      -0.220  14.819  18.879  0.00  0.00    +0.000 A 
ENDBRANCH  34  35
ENDBRANCH   1  34
TORSDOF 13
ENDMDL
MODEL 2
REMARK VINA RESULT:      -7.2      4.101      7.679
REMARK  Name = 
REMARK  14 active torsions:
REMARK  status: ('A' for Active; 'I' for Inactive)
REMARK    1  A    between atoms: C_1  and  O_2
REMARK    2  A    between atoms: O_2  and  C_3
REMARK    3  A    between atoms: C_3  and  C_5
REMARK    4  A    between atoms: C_5  and  C_6
REMARK    5  A    between atoms: C_5  and  N_8
REMARK    6  A    between atoms: C_6  and  O_7
REMARK    7  A    between atoms: C_9  and  C_11
REMARK    8  A    between atoms: C_11  and  N_12
REMARK    9  A    between atoms: C_13  and  C_15
REMARK   10  A    between atoms: C_15  and  C_16
REMARK   11  A    between atoms: C_15  and  N_23
REMARK   12  A    between atoms: C_16  and  C_17
REMARK   13  A    between atoms: C_24  and  C_26
REMARK   14  A    between atoms: C_29  and  C_30
REMARK                            x       y       z     vdW  Elec       q    Type
REMARK                         _______ _______ _______ _____ _____    ______ ____
ROOT
ATOM      1  C   UNK     1       0.187  11.098  19.244  0.00  0.00    +0.000 C 
ENDROOT
BRANCH   1   3
ATOM      2  N   UNK     1       0.796  13.408  19.932  0.00  0.00    +0.000 N 
ATOM      3  C   UNK     1       0.856  12.068  20.257  0.00  0.00    +0.000 C 
ATOM      4  O   UNK     1       1.319  11.698  21.333  0.00  0.00    +0.000 OA
ATOM      5  H   UNK     1       0.213  13.696  19.148  0.00  0.00    +0.000 HD
BRANCH   2   6
ATOM      6  C   UNK     1       1.346  14.445  20.799  0.00  0.00    +0.000 C 
BRANCH   6   8
ATOM      7  N   UNK     1       3.271  15.240  19.501  0.00  0.00    +0.000 N 
ATOM      8  C   UNK     1       2.866  14.587  20.648  0.00  0.00    +0.000 C 
ATOM      9  O   UNK     1       3.656  14.194  21.507  0.00  0.00    +0.000 OA
ATOM     10  H   UNK     1       2.572  15.841  19.058  0.00  0.00    +0.000 HD
BRANCH   7  11
ATOM     11  C   UNK     1       4.693  15.498  19.241  0.00  0.00    +0.000 C 
BRANCH  11  12
ATOM     12  C   UNK     1       5.022  16.992  19.265  0.00  0.00    +0.000 C 
ATOM     13  O   UNK     1       5.989  17.503  18.704  0.00  0.00    +0.000 OA
BRANCH  12  15
ATOM     14  C   UNK     1       4.736  18.557  21.004  0.00  0.00    +0.000 C 
ATOM     15  O   UNK     1       4.140  17.664  20.062  0.00  0.00    +0.000 OA
ENDBRANCH  12  15
ENDBRANCH  11  12
BRANCH  11  16
ATOM     16  C   UNK     1       5.095  14.942  17.871  0.00  0.00    +0.000 C 
BRANCH  16  17
ATOM     17  O   UNK     1       6.486  14.620  17.824  0.00  0.00    +0.000 OA
ATOM     18  H   UNK     1       6.969  15.460  17.917  0.00  0.00    +0.000 HD
ENDBRANCH  16  17
ENDBRANCH  11  16
ENDBRANCH   7  11
ENDBRANCH   6   8
ENDBRANCH   2   6
ENDBRANCH   1   3
BRANCH   1  19
ATOM     19  N   UNK     1       0.846   9.794  19.277  0.00  0.00    +0.000 N 
ATOM     20  C   UNK     1       1.744   9.419  18.311  0.00  0.00    +0.000 C 
ATOM     21  O   UNK     1       2.078  10.167  17.395  0.00  0.00    +0.000 OA
ATOM     22  H   UNK     1       0.648   9.130  20.020  0.00  0.00    +0.000 HD
BRANCH  20  23
ATOM     23  C   UNK     1       2.297   8.089  18.483  0.00  0.00    +0.000 A 
ATOM     24  C   UNK     1       3.179   7.485  17.620  0.00  0.00    +0.000 A 
ATOM     25  O   UNK     1       3.460   6.248  18.097  0.00  0.00    +0.000 OA
ATOM     26  C   UNK     1       2.719   6.146  19.248  0.00  0.00    +0.000 A 
ATOM     27  N   UNK     1       2.021   7.231  19.538  0.00  0.00    +0.000 NA
BRANCH  26  28
ATOM     28  C   UNK     1       2.800   4.865  19.943  0.00  0.00    +0.000 A 
ATOM     29  C   UNK     1       3.775   3.912  19.603  0.00  0.00    +0.000 A 
ATOM     30  C   UNK     1       3.842   2.688  20.269  0.00  0.00    +0.000 A 
ATOM     31  C   UNK     1       2.933   2.397  21.284  0.00  0.00    +0.000 A 
ATOM     32  C   UNK     1       1.954   3.329  21.627  0.00  0.00    +0.000 A 
ATOM     33  C   UNK     1       1.887   4.555  20.960  0.00  0.00    +0.000 A 
ENDBRANCH  26  28
ENDBRANCH  20  23
ENDBRANCH   1  19
BRANCH   1  34
ATOM     34  C   UNK     1      -1.330  10.999  19.514  0.00  0.00    +0.000 C 
BRANCH  34  35
ATOM     35  C   UNK     1      -2.188  10.921  18.266  0.00  0.00    +0.000 A 
ATOM     36  C   UNK     1      -3.407  11.611  18.185  0.00  0.00    +0.000 A 
ATOM     37  C   UNK     1      -4.218  11.492  17.052  0.00  0.00    +0.000 A 
ATOM     38  C   UNK     1      -3.809  10.704  15.979  0.00  0.00    +0.000 A 
ATOM     39  C   UNK     1      -2.579  10.053  16.028  0.00  0.00    +0.000 A 
ATOM     40  C   UNK     1      -1.771  10.165  17.162  0.00  0.00    +0.000 A 
ENDBRANCH  34  35
ENDBRANCH   1  34
TORSDOF 13
ENDMDL
MODEL 3
REMARK VINA RESULT:      -7.2      4.343      8.346
REMARK  Name = 
REMARK  14 active torsions:
REMARK  status: ('A' for Active; 'I' for Inactive)
REMARK    1  A    between atoms: C_1  and  O_2
REMARK    2  A    between atoms: O_2  and  C_3
REMARK    3  A    between atoms: C_3  and  C_5
REMARK    4  A    between atoms: C_5  and  C_6
REMARK    5  A    between atoms: C_5  and  N_8
REMARK    6  A    between atoms: C_6  and  O_7
REMARK    7  A    between atoms: C_9  and  C_11
REMARK    8  A    between atoms: C_11  and  N_12
REMARK    9  A    between atoms: C_13  and  C_15
REMARK   10  A    between atoms: C_15  and  C_16
REMARK   11  A    between atoms: C_15  and  N_23
REMARK   12  A    between atoms: C_16  and  C_17
REMARK   13  A    between atoms: C_24  and  C_26
REMARK   14  A    between atoms: C_29  and  C_30
REMARK                            x       y       z     vdW  Elec       q    Type
REMARK                         _______ _______ _______ _____ _____    ______ ____
ROOT
ATOM      1  C   UNK     1       0.276  11.062  19.163  0.00  0.00    +0.000 C 
ENDROOT
BRANCH   1   3
ATOM      2  N   UNK     1       1.888  12.936  19.434  0.00  0.00    +0.000 N 
ATOM      3  C   UNK     1       1.057  12.044  20.080  0.00  0.00    +0.000 C 
ATOM      4  O   UNK     1       0.880  12.108  21.295  0.00  0.00    +0.000 OA
ATOM      5  H   UNK     1       1.840  13.001  18.418  0.00  0.00    +0.000 HD
BRANCH   2   6
ATOM      6  C   UNK     1       2.659  13.943  20.154  0.00  0.00    +0.000 C 
BRANCH   6   8
ATOM      7  N   UNK     1       4.830  15.075  19.991  0.00  0.00    +0.000 N 
ATOM      8  C   UNK     1       3.756  14.571  19.286  0.00  0.00    +0.000 C 
ATOM      9  O   UNK     1       3.703  14.578  18.055  0.00  0.00    +0.000 OA
ATOM     10  H   UNK     1       4.962  14.700  20.934  0.00  0.00    +0.000 HD
BRANCH   7  11
ATOM     11  C   UNK     1       5.983  15.662  19.296  0.00  0.00    +0.000 C 
BRANCH  11  12
ATOM     12  C   UNK     1       7.312  15.237  19.923  0.00  0.00    +0.000 C 
ATOM     13  O   UNK     1       7.841  15.794  20.882  0.00  0.00    +0.000 OA
BRANCH  12  15
ATOM     14  C   UNK     1       7.477  14.134  17.847  0.00  0.00    +0.000 C 
ATOM     15  O   UNK     1       7.866  14.206  19.219  0.00  0.00    +0.000 OA
ENDBRANCH  12  15
ENDBRANCH  11  12
BRANCH  11  16
ATOM     16  C   UNK     1       5.906  17.191  19.331  0.00  0.00    +0.000 C 
BRANCH  16  17
ATOM     17  O   UNK     1       7.092  17.788  18.804  0.00  0.00    +0.000 OA
ATOM     18  H   UNK     1       7.591  18.134  19.566  0.00  0.00    +0.000 HD
ENDBRANCH  16  17
ENDBRANCH  11  16
ENDBRANCH   7  11
ENDBRANCH   6   8
ENDBRANCH   2   6
ENDBRANCH   1   3
BRANCH   1  19
ATOM     19  N   UNK     1       0.891   9.737  19.194  0.00  0.00    +0.000 N 
ATOM     20  C   UNK     1       1.908   9.397  18.338  0.00  0.00    +0.000 C 
ATOM     21  O   UNK     1       2.386  10.194  17.533  0.00  0.00    +0.000 OA
ATOM     22  H   UNK     1       0.574   9.031  19.853  0.00  0.00    +0.000 HD
BRANCH  20  23
ATOM     23  C   UNK     1       2.398   8.041  18.489  0.00  0.00    +0.000 A 
ATOM     24  C   UNK     1       3.192   7.384  17.581  0.00  0.00    +0.000 A 
ATOM     25  O   UNK     1       3.436   6.137  18.053  0.00  0.00    +0.000 OA
ATOM     26  C   UNK     1       2.761   6.083  19.247  0.00  0.00    +0.000 A 
ATOM     27  N   UNK     1       2.141   7.207  19.568  0.00  0.00    +0.000 NA
BRANCH  26  28
ATOM     28  C   UNK     1       2.816   4.804  19.949  0.00  0.00    +0.000 A 
ATOM     29  C   UNK     1       3.807   3.853  19.654  0.00  0.00    +0.000 A 
ATOM     30  C   UNK     1       3.849   2.631  20.326  0.00  0.00    +0.000 A 
ATOM     31  C   UNK     1       2.898   2.341  21.301  0.00  0.00    +0.000 A 
ATOM     32  C   UNK     1       1.902   3.271  21.599  0.00  0.00    +0.000 A 
ATOM     33  C   UNK     1       1.861   4.495  20.927  0.00  0.00    +0.000 A 
ENDBRANCH  26  28
ENDBRANCH  20  23
ENDBRANCH   1  19
BRANCH   1  34
ATOM     34  C   UNK     1      -1.217  11.028  19.556  0.00  0.00    +0.000 C 
BRANCH  34  35
ATOM     35  C   UNK     1      -2.174  10.919  18.386  0.00  0.00    +0.000 A 
ATOM     36  C   UNK     1      -3.406  11.589  18.397  0.00  0.00    +0.000 A 
ATOM     37  C   UNK     1      -4.307  11.440  17.337  0.00  0.00    +0.000 A 
ATOM     38  C   UNK     1      -3.977  10.641  16.245  0.00  0.00    +0.000 A 
ATOM     39  C   UNK     1      -2.736  10.010  16.201  0.00  0.00    +0.000 A 
ATOM     40  C   UNK     1      -1.838  10.152  17.261  0.00  0.00    +0.000 A 
ENDBRANCH  34  35
ENDBRANCH   1  34
TORSDOF 13
ENDMDL
MODEL 4
REMARK VINA RESULT:      -7.1      3.898      6.873
REMARK  Name = 
REMARK  14 active torsions:
REMARK  status: ('A' for Active; 'I' for Inactive)
REMARK    1  A    between atoms: C_1  and  O_2
REMARK    2  A    between atoms: O_2  and  C_3
REMARK    3  A    between atoms: C_3  and  C_5
REMARK    4  A    between atoms: C_5  and  C_6
REMARK    5  A    between atoms: C_5  and  N_8
REMARK    6  A    between atoms: C_6  and  O_7
REMARK    7  A    between atoms: C_9  and  C_11
REMARK    8  A    between atoms: C_11  and  N_12
REMARK    9  A    between atoms: C_13  and  C_15
REMARK   10  A    between atoms: C_15  and  C_16
REMARK   11  A    between atoms: C_15  and  N_23
REMARK   12  A    between atoms: C_16  and  C_17
REMARK   13  A    between atoms: C_24  and  C_26
REMARK   14  A    between atoms: C_29  and  C_30
REMARK                            x       y       z     vdW  Elec       q    Type
REMARK                         _______ _______ _______ _____ _____    ______ ____
ROOT
ATOM      1  C   UNK     1       0.059  10.640  19.410  0.00  0.00    +0.000 C 
ENDROOT
BRANCH   1   3
ATOM      2  N   UNK     1       0.244  12.861  20.511  0.00  0.00    +0.000 N 
ATOM      3  C   UNK     1       0.483  11.507  20.628  0.00  0.00    +0.000 C 
ATOM      4  O   UNK     1       0.906  11.027  21.677  0.00  0.00    +0.000 OA
ATOM      5  H   UNK     1      -0.309  13.195  19.723  0.00  0.00    +0.000 HD
BRANCH   2   6
ATOM      6  C   UNK     1       0.553  13.801  21.583  0.00  0.00    +0.000 C 
BRANCH   6   8
ATOM      7  N   UNK     1       2.309  14.658  20.098  0.00  0.00    +0.000 N 
ATOM      8  C   UNK     1       1.930  14.454  21.410  0.00  0.00    +0.000 C 
ATOM      9  O   UNK     1       2.618  14.812  22.367  0.00  0.00    +0.000 OA
ATOM     10  H   UNK     1       1.550  14.682  19.412  0.00  0.00    +0.000 HD
BRANCH   7  11
ATOM     11  C   UNK     1       3.578  15.319  19.771  0.00  0.00    +0.000 C 
BRANCH  11  12
ATOM     12  C   UNK     1       3.390  16.806  19.459  0.00  0.00    +0.000 C 
ATOM     13  O   UNK     1       4.263  17.661  19.588  0.00  0.00    +0.000 OA
BRANCH  12  15
ATOM     14  C   UNK     1       1.917  17.448  17.736  0.00  0.00    +0.000 C 
ATOM     15  O   UNK     1       2.098  17.060  19.098  0.00  0.00    +0.000 OA
ENDBRANCH  12  15
ENDBRANCH  11  12
BRANCH  11  16
ATOM     16  C   UNK     1       4.230  14.654  18.555  0.00  0.00    +0.000 C 
BRANCH  16  17
ATOM     17  O   UNK     1       5.345  15.410  18.079  0.00  0.00    +0.000 OA
ATOM     18  H   UNK     1       5.699  14.929  17.310  0.00  0.00    +0.000 HD
ENDBRANCH  16  17
ENDBRANCH  11  16
ENDBRANCH   7  11
ENDBRANCH   6   8
ENDBRANCH   2   6
ENDBRANCH   1   3
BRANCH   1  19
ATOM     19  N   UNK     1       0.931   9.473  19.288  0.00  0.00    +0.000 N 
ATOM     20  C   UNK     1       1.791   9.328  18.230  0.00  0.00    +0.000 C 
ATOM     21  O   UNK     1       1.910  10.182  17.355  0.00  0.00    +0.000 OA
ATOM     22  H   UNK     1       0.915   8.736  19.988  0.00  0.00    +0.000 HD
BRANCH  20  23
ATOM     23  C   UNK     1       2.575   8.108  18.251  0.00  0.00    +0.000 A 
ATOM     24  C   UNK     1       2.406   7.078  19.145  0.00  0.00    +0.000 A 
ATOM     25  O   UNK     1       3.325   6.120  18.868  0.00  0.00    +0.000 OA
ATOM     26  C   UNK     1       4.032   6.618  17.803  0.00  0.00    +0.000 A 
ATOM     27  N   UNK     1       3.608   7.798  17.378  0.00  0.00    +0.000 NA
BRANCH  26  28
ATOM     28  C   UNK     1       5.138   5.791  17.332  0.00  0.00    +0.000 A 
ATOM     29  C   UNK     1       4.993   4.944  16.220  0.00  0.00    +0.000 A 
ATOM     30  C   UNK     1       6.053   4.152  15.779  0.00  0.00    +0.000 A 
ATOM     31  C   UNK     1       7.275   4.193  16.447  0.00  0.00    +0.000 A 
ATOM     32  C   UNK     1       7.433   5.020  17.558  0.00  0.00    +0.000 A 
ATOM     33  C   UNK     1       6.371   5.814  17.999  0.00  0.00    +0.000 A 
ENDBRANCH  26  28
ENDBRANCH  20  23
ENDBRANCH   1  19
BRANCH   1  34
ATOM     34  C   UNK     1      -1.432  10.253  19.517  0.00  0.00    +0.000 C 
BRANCH  34  35
ATOM     35  C   UNK     1      -2.232  10.474  18.249  0.00  0.00    +0.000 A 
ATOM     36  C   UNK     1      -1.856   9.863  17.043  0.00  0.00    +0.000 A 
ATOM     37  C   UNK     1      -2.568  10.115  15.865  0.00  0.00    +0.000 A 
ATOM     38  C   UNK     1      -3.677  10.958  15.885  0.00  0.00    +0.000 A 
ATOM     39  C   UNK     1      -4.089  11.532  17.086  0.00  0.00    +0.000 A 
ATOM     40  C   UNK     1      -3.375  11.287  18.261  0.00  0.00    +0.000 A 
ENDBRANCH  34  35
ENDBRANCH   1  34
TORSDOF 13
ENDMDL
MODEL 5
REMARK VINA RESULT:      -7.1      5.588     12.248
REMARK  Name = 
REMARK  14 active torsions:
REMARK  status: ('A' for Active; 'I' for Inactive)
REMARK    1  A    between atoms: C_1  and  O_2
REMARK    2  A    between atoms: O_2  and  C_3
REMARK    3  A    between atoms: C_3  and  C_5
REMARK    4  A    between atoms: C_5  and  C_6
REMARK    5  A    between atoms: C_5  and  N_8
REMARK    6  A    between atoms: C_6  and  O_7
REMARK    7  A    between atoms: C_9  and  C_11
REMARK    8  A    between atoms: C_11  and  N_12
REMARK    9  A    between atoms: C_13  and  C_15
REMARK   10  A    between atoms: C_15  and  C_16
REMARK   11  A    between atoms: C_15  and  N_23
REMARK   12  A    between atoms: C_16  and  C_17
REMARK   13  A    between atoms: C_24  and  C_26
REMARK   14  A    between atoms: C_29  and  C_30
REMARK                            x       y       z     vdW  Elec       q    Type
REMARK                         _______ _______ _______ _____ _____    ______ ____
ROOT
ATOM      1  C   UNK     1       5.452   5.523  16.732  0.00  0.00    +0.000 C 
ENDROOT
BRANCH   1   3
ATOM      2  N   UNK     1       7.035   7.155  17.739  0.00  0.00    +0.000 N 
ATOM      3  C   UNK     1       6.885   5.889  17.210  0.00  0.00    +0.000 C 
ATOM      4  O   UNK     1       7.813   5.083  17.223  0.00  0.00    +0.000 OA
ATOM      5  H   UNK     1       6.201   7.713  17.918  0.00  0.00    +0.000 HD
BRANCH   2   6
ATOM      6  C   UNK     1       8.309   7.633  18.264  0.00  0.00    +0.000 C 
BRANCH   6   8
ATOM      7  N   UNK     1       9.275   9.675  19.223  0.00  0.00    +0.000 N 
ATOM      8  C   UNK     1       8.393   9.164  18.292  0.00  0.00    +0.000 C 
ATOM      9  O   UNK     1       7.759   9.876  17.512  0.00  0.00    +0.000 OA
ATOM     10  H   UNK     1      10.005   9.035  19.546  0.00  0.00    +0.000 HD
BRANCH   7  11
ATOM     11  C   UNK     1       9.502  11.121  19.335  0.00  0.00    +0.000 C 
BRANCH  11  12
ATOM     12  C   UNK     1      10.614  11.604  18.402  0.00  0.00    +0.000 C 
ATOM     13  O   UNK     1      11.778  11.213  18.444  0.00  0.00    +0.000 OA
BRANCH  12  15
ATOM     14  C   UNK     1      11.031  13.699  17.406  0.00  0.00    +0.000 C 
ATOM     15  O   UNK     1      10.152  12.586  17.573  0.00  0.00    +0.000 OA
ENDBRANCH  12  15
ENDBRANCH  11  12
BRANCH  11  16
ATOM     16  C   UNK     1       9.889  11.492  20.770  0.00  0.00    +0.000 C 
BRANCH  16  17
ATOM     17  O   UNK     1       9.222  10.663  21.724  0.00  0.00    +0.000 OA
ATOM     18  H   UNK     1       8.271  10.857  21.643  0.00  0.00    +0.000 HD
ENDBRANCH  16  17
ENDBRANCH  11  16
ENDBRANCH   7  11
ENDBRANCH   6   8
ENDBRANCH   2   6
ENDBRANCH   1   3
BRANCH   1  19
ATOM     19  N   UNK     1       4.457   6.028  17.676  0.00  0.00    +0.000 N 
ATOM     20  C   UNK     1       3.941   5.233  18.668  0.00  0.00    +0.000 C 
ATOM     21  O   UNK     1       4.316   4.077  18.848  0.00  0.00    +0.000 OA
ATOM     22  H   UNK     1       4.119   6.984  17.614  0.00  0.00    +0.000 HD
BRANCH  20  23
ATOM     23  C   UNK     1       2.955   5.882  19.510  0.00  0.00    +0.000 A 
ATOM     24  C   UNK     1       2.141   5.237  20.411  0.00  0.00    +0.000 A 
ATOM     25  O   UNK     1       1.343   6.161  21.000  0.00  0.00    +0.000 OA
ATOM     26  C   UNK     1       1.705   7.350  20.419  0.00  0.00    +0.000 A 
ATOM     27  N   UNK     1       2.684   7.242  19.534  0.00  0.00    +0.000 NA
BRANCH  26  28
ATOM     28  C   UNK     1       0.946   8.521  20.844  0.00  0.00    +0.000 A 
ATOM     29  C   UNK     1       0.488   8.651  22.166  0.00  0.00    +0.000 A 
ATOM     30  C   UNK     1      -0.241   9.772  22.565  0.00  0.00    +0.000 A 
ATOM     31  C   UNK     1      -0.525  10.779  21.645  0.00  0.00    +0.000 A 
ATOM     32  C   UNK     1      -0.086  10.661  20.327  0.00  0.00    +0.000 A 
ATOM     33  C   UNK     1       0.645   9.539  19.929  0.00  0.00    +0.000 A 
ENDBRANCH  26  28
ENDBRANCH  20  23
ENDBRANCH   1  19
BRANCH   1  34
ATOM     34  C   UNK     1       5.215   6.037  15.296  0.00  0.00    +0.000 C 
BRANCH  34  35
ATOM     35  C   UNK     1       5.791   5.152  14.208  0.00  0.00    +0.000 A 
ATOM     36  C   UNK     1       5.029   4.122  13.637  0.00  0.00    +0.000 A 
ATOM     37  C   UNK     1       5.585   3.276  12.671  0.00  0.00    +0.000 A 
ATOM     38  C   UNK     1       6.899   3.465  12.249  0.00  0.00    +0.000 A 
ATOM     39  C   UNK     1       7.650   4.515  12.774  0.00  0.00    +0.000 A 
ATOM     40  C   UNK     1       7.098   5.356  13.743  0.00  0.00    +0.000 A 
ENDBRANCH  34  35
ENDBRANCH   1  34
TORSDOF 13
ENDMDL
MODEL 6
REMARK VINA RESULT:      -7.1      3.699      9.079
REMARK  Name = 
REMARK  14 active torsions:
REMARK  status: ('A' for Active; 'I' for Inactive)
REMARK    1  A    between atoms: C_1  and  O_2
REMARK    2  A    between atoms: O_2  and  C_3
REMARK    3  A    between atoms: C_3  and  C_5
REMARK    4  A    between atoms: C_5  and  C_6
REMARK    5  A    between atoms: C_5  and  N_8
REMARK    6  A    between atoms: C_6  and  O_7
REMARK    7  A    between atoms: C_9  and  C_11
REMARK    8  A    between atoms: C_11  and  N_12
REMARK    9  A    between atoms: C_13  and  C_15
REMARK   10  A    between atoms: C_15  and  C_16
REMARK   11  A    between atoms: C_15  and  N_23
REMARK   12  A    between atoms: C_16  and  C_17
REMARK   13  A    between atoms: C_24  and  C_26
REMARK   14  A    between atoms: C_29  and  C_30
REMARK                            x       y       z     vdW  Elec       q    Type
REMARK                         _______ _______ _______ _____ _____    ______ ____
ROOT
ATOM      1  C   UNK     1      -0.281  11.092  19.159  0.00  0.00    +0.000 C 
ENDROOT
BRANCH   1   3
ATOM      2  N   UNK     1       1.244   9.154  19.478  0.00  0.00    +0.000 N 
ATOM      3  C   UNK     1       0.264   9.940  20.049  0.00  0.00    +0.000 C 
ATOM      4  O   UNK     1      -0.065   9.789  21.224  0.00  0.00    +0.000 OA
ATOM      5  H   UNK     1       1.649   9.445  18.589  0.00  0.00    +0.000 HD
BRANCH   2   6
ATOM      6  C   UNK     1       1.880   8.057  20.199  0.00  0.00    +0.000 C 
BRANCH   6   8
ATOM      7  N   UNK     1       3.125   5.967  19.877  0.00  0.00    +0.000 N 
ATOM      8  C   UNK     1       2.380   6.953  19.260  0.00  0.00    +0.000 C 
ATOM      9  O   UNK     1       2.097   6.924  18.062  0.00  0.00    +0.000 OA
ATOM     10  H   UNK     1       2.992   5.872  20.887  0.00  0.00    +0.000 HD
BRANCH   7  11
ATOM     11  C   UNK     1       3.631   4.816  19.119  0.00  0.00    +0.000 C 
BRANCH  11  12
ATOM     12  C   UNK     1       2.972   3.505  19.554  0.00  0.00    +0.000 C 
ATOM     13  O   UNK     1       2.609   2.618  18.785  0.00  0.00    +0.000 OA
BRANCH  12  15
ATOM     14  C   UNK     1       1.591   2.816  21.334  0.00  0.00    +0.000 C 
ATOM     15  O   UNK     1       2.771   3.495  20.905  0.00  0.00    +0.000 OA
ENDBRANCH  12  15
ENDBRANCH  11  12
BRANCH  11  16
ATOM     16  C   UNK     1       5.145   4.676  19.307  0.00  0.00    +0.000 C 
BRANCH  16  17
ATOM     17  O   UNK     1       5.543   3.305  19.348  0.00  0.00    +0.000 OA
ATOM     18  H   UNK     1       5.229   2.899  18.520  0.00  0.00    +0.000 HD
ENDBRANCH  16  17
ENDBRANCH  11  16
ENDBRANCH   7  11
ENDBRANCH   6   8
ENDBRANCH   2   6
ENDBRANCH   1   3
BRANCH   1  19
ATOM     19  N   UNK     1       0.717  12.152  19.031  0.00  0.00    +0.000 N 
ATOM     20  C   UNK     1       0.362  13.477  19.035  0.00  0.00    +0.000 C 
ATOM     21  O   UNK     1      -0.799  13.848  19.191  0.00  0.00    +0.000 OA
ATOM     22  H   UNK     1       1.704  11.928  18.930  0.00  0.00    +0.000 HD
BRANCH  20  23
ATOM     23  C   UNK     1       1.470  14.400  18.885  0.00  0.00    +0.000 A 
ATOM     24  C   UNK     1       1.349  15.762  18.747  0.00  0.00    +0.000 A 
ATOM     25  O   UNK     1       2.591  16.289  18.616  0.00  0.00    +0.000 OA
ATOM     26  C   UNK     1       3.432  15.206  18.673  0.00  0.00    +0.000 A 
ATOM     27  N   UNK     1       2.813  14.051  18.857  0.00  0.00    +0.000 NA
BRANCH  26  28
ATOM     28  C   UNK     1       4.852  15.496  18.499  0.00  0.00    +0.000 A 
ATOM     29  C   UNK     1       5.717  14.564  17.902  0.00  0.00    +0.000 A 
ATOM     30  C   UNK     1       7.074  14.847  17.743  0.00  0.00    +0.000 A 
ATOM     31  C   UNK     1       7.586  16.065  18.183  0.00  0.00    +0.000 A 
ATOM     32  C   UNK     1       6.743  16.996  18.787  0.00  0.00    +0.000 A 
ATOM     33  C   UNK     1       5.383  16.714  18.944  0.00  0.00    +0.000 A 
ENDBRANCH  26  28
ENDBRANCH  20  23
ENDBRANCH   1  19
BRANCH   1  34
ATOM     34  C   UNK     1      -0.739  10.545  17.790  0.00  0.00    +0.000 C 
BRANCH  34  35
ATOM     35  C   UNK     1      -2.179  10.860  17.436  0.00  0.00    +0.000 A 
ATOM     36  C   UNK     1      -3.064  11.367  18.399  0.00  0.00    +0.000 A 
ATOM     37  C   UNK     1      -4.404  11.605  18.079  0.00  0.00    +0.000 A 
ATOM     38  C   UNK     1      -4.869  11.363  16.788  0.00  0.00    +0.000 A 
ATOM     39  C   UNK     1      -3.988  10.906  15.811  0.00  0.00    +0.000 A 
ATOM     40  C   UNK     1      -2.651  10.661  16.131  0.00  0.00    +0.000 A 
ENDBRANCH  34  35
ENDBRANCH   1  34
TORSDOF 13
ENDMDL
MODEL 7
REMARK VINA RESULT:      -7.1      2.657      4.481
REMARK  Name = 
REMARK  14 active torsions:
REMARK  status: ('A' for Active; 'I' for Inactive)
REMARK    1  A    between atoms: C_1  and  O_2
REMARK    2  A    between atoms: O_2  and  C_3
REMARK    3  A    between atoms: C_3  and  C_5
REMARK    4  A    between atoms: C_5  and  C_6
REMARK    5  A    between atoms: C_5  and  N_8
REMARK    6  A    between atoms: C_6  and  O_7
REMARK    7  A    between atoms: C_9  and  C_11
REMARK    8  A    between atoms: C_11  and  N_12
REMARK    9  A    between atoms: C_13  and  C_15
REMARK   10  A    between atoms: C_15  and  C_16
REMARK   11  A    between atoms: C_15  and  N_23
REMARK   12  A    between atoms: C_16  and  C_17
REMARK   13  A    between atoms: C_24  and  C_26
REMARK   14  A    between atoms: C_29  and  C_30
REMARK                            x       y       z     vdW  Elec       q    Type
REMARK                         _______ _______ _______ _____ _____    ______ ____
ROOT
ATOM      1  C   UNK     1      -0.159  10.875  19.190  0.00  0.00    +0.000 C 
ENDROOT
BRANCH   1   3
ATOM      2  N   UNK     1      -0.146  13.005  20.472  0.00  0.00    +0.000 N 
ATOM      3  C   UNK     1       0.291  11.697  20.430  0.00  0.00    +0.000 C 
ATOM      4  O   UNK     1       0.906  11.204  21.374  0.00  0.00    +0.000 OA
ATOM      5  H   UNK     1      -0.835  13.314  19.788  0.00  0.00    +0.000 HD
BRANCH   2   6
ATOM      6  C   UNK     1       0.163  13.893  21.588  0.00  0.00    +0.000 C 
BRANCH   6   8
ATOM      7  N   UNK     1      -2.238  13.984  22.085  0.00  0.00    +0.000 N 
ATOM      8  C   UNK     1      -0.967  13.946  22.623  0.00  0.00    +0.000 C 
ATOM      9  O   UNK     1      -0.756  13.907  23.836  0.00  0.00    +0.000 OA
ATOM     10  H   UNK     1      -2.329  13.642  21.125  0.00  0.00    +0.000 HD
BRANCH   7  11
ATOM     11  C   UNK     1      -3.425  13.985  22.950  0.00  0.00    +0.000 C 
BRANCH  11  12
ATOM     12  C   UNK     1      -4.487  12.992  22.473  0.00  0.00    +0.000 C 
ATOM     13  O   UNK     1      -4.812  12.830  21.299  0.00  0.00    +0.000 OA
BRANCH  12  15
ATOM     14  C   UNK     1      -6.438  12.745  23.772  0.00  0.00    +0.000 C 
ATOM     15  O   UNK     1      -5.079  12.375  23.538  0.00  0.00    +0.000 OA
ENDBRANCH  12  15
ENDBRANCH  11  12
BRANCH  11  16
ATOM     16  C   UNK     1      -4.058  15.380  22.987  0.00  0.00    +0.000 C 
BRANCH  16  17
ATOM     17  O   UNK     1      -5.039  15.539  21.961  0.00  0.00    +0.000 OA
ATOM     18  H   UNK     1      -4.668  15.134  21.157  0.00  0.00    +0.000 HD
ENDBRANCH  16  17
ENDBRANCH  11  16
ENDBRANCH   7  11
ENDBRANCH   6   8
ENDBRANCH   2   6
ENDBRANCH   1   3
BRANCH   1  19
ATOM     19  N   UNK     1       0.675   9.684  19.039  0.00  0.00    +0.000 N 
ATOM     20  C   UNK     1       1.772   9.677  18.215  0.00  0.00    +0.000 C 
ATOM     21  O   UNK     1       2.139  10.674  17.597  0.00  0.00    +0.000 OA
ATOM     22  H   UNK     1       0.457   8.828  19.541  0.00  0.00    +0.000 HD
BRANCH  20  23
ATOM     23  C   UNK     1       2.483   8.414  18.167  0.00  0.00    +0.000 A 
ATOM     24  C   UNK     1       2.298   7.371  19.042  0.00  0.00    +0.000 A 
ATOM     25  O   UNK     1       3.144   6.370  18.695  0.00  0.00    +0.000 OA
ATOM     26  C   UNK     1       3.826   6.857  17.609  0.00  0.00    +0.000 A 
ATOM     27  N   UNK     1       3.452   8.070  17.235  0.00  0.00    +0.000 NA
BRANCH  26  28
ATOM     28  C   UNK     1       4.858   5.980  17.062  0.00  0.00    +0.000 A 
ATOM     29  C   UNK     1       4.537   4.717  16.537  0.00  0.00    +0.000 A 
ATOM     30  C   UNK     1       5.529   3.883  16.021  0.00  0.00    +0.000 A 
ATOM     31  C   UNK     1       6.858   4.299  16.026  0.00  0.00    +0.000 A 
ATOM     32  C   UNK     1       7.194   5.546  16.552  0.00  0.00    +0.000 A 
ATOM     33  C   UNK     1       6.200   6.381  17.067  0.00  0.00    +0.000 A 
ENDBRANCH  26  28
ENDBRANCH  20  23
ENDBRANCH   1  19
BRANCH   1  34
ATOM     34  C   UNK     1      -1.662  10.533  19.287  0.00  0.00    +0.000 C 
BRANCH  34  35
ATOM     35  C   UNK     1      -2.407  10.594  17.969  0.00  0.00    +0.000 A 
ATOM     36  C   UNK     1      -3.538  11.411  17.817  0.00  0.00    +0.000 A 
ATOM     37  C   UNK     1      -4.252  11.422  16.614  0.00  0.00    +0.000 A 
ATOM     38  C   UNK     1      -3.830  10.636  15.543  0.00  0.00    +0.000 A 
ATOM     39  C   UNK     1      -2.681   9.858  15.666  0.00  0.00    +0.000 A 
ATOM     40  C   UNK     1      -1.972   9.841  16.869  0.00  0.00    +0.000 A 
ENDBRANCH  34  35
ENDBRANCH   1  34
TORSDOF 13
ENDMDL
MODEL 8
REMARK VINA RESULT:      -7.0      4.312      8.702
REMARK  Name = 
REMARK  14 active torsions:
REMARK  status: ('A' for Active; 'I' for Inactive)
REMARK    1  A    between atoms: C_1  and  O_2
REMARK    2  A    between atoms: O_2  and  C_3
REMARK    3  A    between atoms: C_3  and  C_5
REMARK    4  A    between atoms: C_5  and  C_6
REMARK    5  A    between atoms: C_5  and  N_8
REMARK    6  A    between atoms: C_6  and  O_7
REMARK    7  A    between atoms: C_9  and  C_11
REMARK    8  A    between atoms: C_11  and  N_12
REMARK    9  A    between atoms: C_13  and  C_15
REMARK   10  A    between atoms: C_15  and  C_16
REMARK   11  A    between atoms: C_15  and  N_23
REMARK   12  A    between atoms: C_16  and  C_17
REMARK   13  A    between atoms: C_24  and  C_26
REMARK   14  A    between atoms: C_29  and  C_30
REMARK                            x       y       z     vdW  Elec       q    Type
REMARK                         _______ _______ _______ _____ _____    ______ ____
ROOT
ATOM      1  C   UNK     1       4.089   5.377  17.509  0.00  0.00    +0.000 C 
ENDROOT
BRANCH   1   3
ATOM      2  N   UNK     1       2.809   7.113  18.746  0.00  0.00    +0.000 N 
ATOM      3  C   UNK     1       2.730   5.981  17.961  0.00  0.00    +0.000 C 
ATOM      4  O   UNK     1       1.645   5.557  17.569  0.00  0.00    +0.000 OA
ATOM      5  H   UNK     1       3.716   7.563  18.866  0.00  0.00    +0.000 HD
BRANCH   2   6
ATOM      6  C   UNK     1       1.623   7.818  19.219  0.00  0.00    +0.000 C 
BRANCH   6   8
ATOM      7  N   UNK     1       1.077  10.161  19.700  0.00  0.00    +0.000 N 
ATOM      8  C   UNK     1       1.595   9.283  18.769  0.00  0.00    +0.000 C 
ATOM      9  O   UNK     1       2.044   9.651  17.682  0.00  0.00    +0.000 OA
ATOM     10  H   UNK     1       1.085   9.839  20.671  0.00  0.00    +0.000 HD
BRANCH   7  11
ATOM     11  C   UNK     1       1.031  11.604  19.435  0.00  0.00    +0.000 C 
BRANCH  11  12
ATOM     12  C   UNK     1       1.281  12.431  20.698  0.00  0.00    +0.000 C 
ATOM     13  O   UNK     1       2.304  13.075  20.918  0.00  0.00    +0.000 OA
BRANCH  12  15
ATOM     14  C   UNK     1      -0.230  13.503  22.154  0.00  0.00    +0.000 C 
ATOM     15  O   UNK     1       0.247  12.287  21.577  0.00  0.00    +0.000 OA
ENDBRANCH  12  15
ENDBRANCH  11  12
BRANCH  11  16
ATOM     16  C   UNK     1      -0.336  12.000  18.867  0.00  0.00    +0.000 C 
BRANCH  16  17
ATOM     17  O   UNK     1      -0.211  12.978  17.833  0.00  0.00    +0.000 OA
ATOM     18  H   UNK     1       0.645  13.421  17.972  0.00  0.00    +0.000 HD
ENDBRANCH  16  17
ENDBRANCH  11  16
ENDBRANCH   7  11
ENDBRANCH   6   8
ENDBRANCH   2   6
ENDBRANCH   1   3
BRANCH   1  19
ATOM     19  N   UNK     1       5.194   6.234  17.936  0.00  0.00    +0.000 N 
ATOM     20  C   UNK     1       6.086   6.755  17.035  0.00  0.00    +0.000 C 
ATOM     21  O   UNK     1       5.985   6.572  15.824  0.00  0.00    +0.000 OA
ATOM     22  H   UNK     1       5.328   6.459  18.917  0.00  0.00    +0.000 HD
BRANCH  20  23
ATOM     23  C   UNK     1       7.131   7.572  17.622  0.00  0.00    +0.000 A 
ATOM     24  C   UNK     1       8.080   7.122  18.508  0.00  0.00    +0.000 A 
ATOM     25  O   UNK     1       8.873   8.167  18.849  0.00  0.00    +0.000 OA
ATOM     26  C   UNK     1       8.360   9.231  18.150  0.00  0.00    +0.000 A 
ATOM     27  N   UNK     1       7.329   8.924  17.380  0.00  0.00    +0.000 NA
BRANCH  26  28
ATOM     28  C   UNK     1       9.011  10.516  18.384  0.00  0.00    +0.000 A 
ATOM     29  C   UNK     1      10.049  10.647  19.321  0.00  0.00    +0.000 A 
ATOM     30  C   UNK     1      10.662  11.881  19.543  0.00  0.00    +0.000 A 
ATOM     31  C   UNK     1      10.244  13.002  18.831  0.00  0.00    +0.000 A 
ATOM     32  C   UNK     1       9.209  12.891  17.904  0.00  0.00    +0.000 A 
ATOM     33  C   UNK     1       8.596  11.656  17.681  0.00  0.00    +0.000 A 
ENDBRANCH  26  28
ENDBRANCH  20  23
ENDBRANCH   1  19
BRANCH   1  34
ATOM     34  C   UNK     1       4.233   3.929  18.025  0.00  0.00    +0.000 C 
BRANCH  34  35
ATOM     35  C   UNK     1       3.184   3.514  19.037  0.00  0.00    +0.000 A 
ATOM     36  C   UNK     1       2.145   2.641  18.682  0.00  0.00    +0.000 A 
ATOM     37  C   UNK     1       1.150   2.305  19.607  0.00  0.00    +0.000 A 
ATOM     38  C   UNK     1       1.198   2.816  20.902  0.00  0.00    +0.000 A 
ATOM     39  C   UNK     1       2.252   3.645  21.280  0.00  0.00    +0.000 A 
ATOM     40  C   UNK     1       3.241   3.987  20.356  0.00  0.00    +0.000 A 
ENDBRANCH  34  35
ENDBRANCH   1  34
TORSDOF 13
ENDMDL
MODEL 9
REMARK VINA RESULT:      -7.0      2.726      4.910
REMARK  Name = 
REMARK  14 active torsions:
REMARK  status: ('A' for Active; 'I' for Inactive)
REMARK    1  A    between atoms: C_1  and  O_2
REMARK    2  A    between atoms: O_2  and  C_3
REMARK    3  A    between atoms: C_3  and  C_5
REMARK    4  A    between atoms: C_5  and  C_6
REMARK    5  A    between atoms: C_5  and  N_8
REMARK    6  A    between atoms: C_6  and  O_7
REMARK    7  A    between atoms: C_9  and  C_11
REMARK    8  A    between atoms: C_11  and  N_12
REMARK    9  A    between atoms: C_13  and  C_15
REMARK   10  A    between atoms: C_15  and  C_16
REMARK   11  A    between atoms: C_15  and  N_23
REMARK   12  A    between atoms: C_16  and  C_17
REMARK   13  A    between atoms: C_24  and  C_26
REMARK   14  A    between atoms: C_29  and  C_30
REMARK                            x       y       z     vdW  Elec       q    Type
REMARK                         _______ _______ _______ _____ _____    ______ ____
ROOT
ATOM      1  C   UNK     1       0.022  10.816  18.908  0.00  0.00    +0.000 C 
ENDROOT
BRANCH   1   3
ATOM      2  N   UNK     1      -0.216  12.283  20.902  0.00  0.00    +0.000 N 
ATOM      3  C   UNK     1       0.615  11.876  19.877  0.00  0.00    +0.000 C 
ATOM      4  O   UNK     1       1.780  12.262  19.816  0.00  0.00    +0.000 OA
ATOM      5  H   UNK     1      -1.090  11.780  21.052  0.00  0.00    +0.000 HD
BRANCH   2   6
ATOM      6  C   UNK     1       0.208  13.244  21.913  0.00  0.00    +0.000 C 
BRANCH   6   8
ATOM      7  N   UNK     1      -2.073  14.143  21.794  0.00  0.00    +0.000 N 
ATOM      8  C   UNK     1      -0.979  13.924  22.607  0.00  0.00    +0.000 C 
ATOM      9  O   UNK     1      -0.971  14.206  23.807  0.00  0.00    +0.000 OA
ATOM     10  H   UNK     1      -2.131  13.558  20.957  0.00  0.00    +0.000 HD
BRANCH   7  11
ATOM     11  C   UNK     1      -3.304  14.738  22.328  0.00  0.00    +0.000 C 
BRANCH  11  12
ATOM     12  C   UNK     1      -4.300  13.677  22.801  0.00  0.00    +0.000 C 
ATOM     13  O   UNK     1      -4.627  13.500  23.972  0.00  0.00    +0.000 OA
BRANCH  12  15
ATOM     14  C   UNK     1      -6.112  12.631  21.715  0.00  0.00    +0.000 C 
ATOM     15  O   UNK     1      -4.711  12.904  21.752  0.00  0.00    +0.000 OA
ENDBRANCH  12  15
ENDBRANCH  11  12
BRANCH  11  16
ATOM     16  C   UNK     1      -3.990  15.595  21.259  0.00  0.00    +0.000 C 
BRANCH  16  17
ATOM     17  O   UNK     1      -3.087  15.945  20.209  0.00  0.00    +0.000 OA
ATOM     18  H   UNK     1      -3.635  16.193  19.443  0.00  0.00    +0.000 HD
ENDBRANCH  16  17
ENDBRANCH  11  16
ENDBRANCH   7  11
ENDBRANCH   6   8
ENDBRANCH   2   6
ENDBRANCH   1   3
BRANCH   1  19
ATOM     19  N   UNK     1       0.751   9.554  19.028  0.00  0.00    +0.000 N 
ATOM     20  C   UNK     1       1.796   9.247  18.195  0.00  0.00    +0.000 C 
ATOM     21  O   UNK     1       2.206  10.026  17.337  0.00  0.00    +0.000 OA
ATOM     22  H   UNK     1       0.493   8.870  19.734  0.00  0.00    +0.000 HD
BRANCH  20  23
ATOM     23  C   UNK     1       2.402   7.952  18.437  0.00  0.00    +0.000 A 
ATOM     24  C   UNK     1       3.424   7.409  17.695  0.00  0.00    +0.000 A 
ATOM     25  O   UNK     1       3.716   6.187  18.205  0.00  0.00    +0.000 OA
ATOM     26  C   UNK     1       2.840   6.032  19.250  0.00  0.00    +0.000 A 
ATOM     27  N   UNK     1       2.045   7.071  19.447  0.00  0.00    +0.000 NA
BRANCH  26  28
ATOM     28  C   UNK     1       2.907   4.752  19.949  0.00  0.00    +0.000 A 
ATOM     29  C   UNK     1       2.065   4.472  21.038  0.00  0.00    +0.000 A 
ATOM     30  C   UNK     1       2.139   3.249  21.705  0.00  0.00    +0.000 A 
ATOM     31  C   UNK     1       3.060   2.288  21.294  0.00  0.00    +0.000 A 
ATOM     32  C   UNK     1       3.909   2.554  20.220  0.00  0.00    +0.000 A 
ATOM     33  C   UNK     1       3.834   3.779  19.552  0.00  0.00    +0.000 A 
ENDBRANCH  26  28
ENDBRANCH  20  23
ENDBRANCH   1  19
BRANCH   1  34
ATOM     34  C   UNK     1      -1.493  10.647  19.154  0.00  0.00    +0.000 C 
BRANCH  34  35
ATOM     35  C   UNK     1      -2.342  10.686  17.899  0.00  0.00    +0.000 A 
ATOM     36  C   UNK     1      -3.516  11.453  17.847  0.00  0.00    +0.000 A 
ATOM     37  C   UNK     1      -4.323  11.442  16.704  0.00  0.00    +0.000 A 
ATOM     38  C   UNK     1      -3.953  10.685  15.594  0.00  0.00    +0.000 A 
ATOM     39  C   UNK     1      -2.765   9.958  15.617  0.00  0.00    +0.000 A 
ATOM     40  C   UNK     1      -1.962   9.963  16.760  0.00  0.00    +0.000 A 
ENDBRANCH  34  35
ENDBRANCH   1  34
TORSDOF 13
ENDMDL
