MODEL 1
REMARK VINA RESULT:      -7.9      0.000      0.000
REMARK  Name = 
REMARK  8 active torsions:
REMARK  status: ('A' for Active; 'I' for Inactive)
REMARK    1  A    between atoms: C_1  and  C_2
REMARK    2  A    between atoms: C_5  and  C_6
REMARK    3  A    between atoms: C_6  and  C_8
REMARK    4  A    between atoms: C_11  and  C_12
REMARK    5  A    between atoms: N_14  and  C_15
REMARK    6  A    between atoms: C_15  and  C_16
REMARK    7  A    between atoms: C_16  and  C_17
REMARK    8  A    between atoms: C_17  and  N_18
REMARK                            x       y       z     vdW  Elec       q    Type
REMARK                         _______ _______ _______ _____ _____    ______ ____
ROOT
ATOM      1  C   UNL     1       7.341   6.808  17.445  0.00  0.00    +0.000 A 
ATOM      2  C   UNL     1       7.993   6.493  18.622  0.00  0.00    +0.000 A 
ATOM      3  N   UNL     1       8.578   7.630  19.111  0.00  0.00    +0.000 N 
ATOM      4  C   UNL     1       8.330   8.695  18.277  0.00  0.00    +0.000 A 
ATOM      5  C   UNL     1       7.609   8.190  17.205  0.00  0.00    +0.000 A 
ATOM      6  H   UNL     1       9.112   7.708  19.970  0.00  0.00    +0.000 HD
ENDROOT
BRANCH   4   7
ATOM      7  C   UNL     1       8.798  10.029  18.599  0.00  0.00    +0.000 C 
ATOM      8  O   UNL     1       8.619  10.986  17.856  0.00  0.00    +0.000 OA
ATOM      9  N   UNL     1       9.464  10.122  19.792  0.00  0.00    +0.000 N 
ATOM     10  H   UNL     1       9.531   9.293  20.359  0.00  0.00    +0.000 HD
BRANCH   9  11
ATOM     11  C   UNL     1       9.993  11.372  20.302  0.00  0.00    +0.000 C 
BRANCH  11  12
ATOM     12  C   UNL     1      11.453  11.575  19.885  0.00  0.00    +0.000 C 
BRANCH  12  13
ATOM     13  C   UNL     1      11.627  12.880  19.091  0.00  0.00    +0.000 C 
BRANCH  13  14
ATOM     14  N   UNL     1      10.509  13.831  19.185  0.00  0.00    +0.000 NA
ATOM     15  C   UNL     1      10.036  14.357  17.884  0.00  0.00    +0.000 C 
ATOM     16  C   UNL     1      11.022  15.320  17.199  0.00  0.00    +0.000 C 
ATOM     17  O   UNL     1      11.343  16.425  18.053  0.00  0.00    +0.000 OA
ATOM     18  C   UNL     1      11.880  15.967  19.300  0.00  0.00    +0.000 C 
ATOM     19  C   UNL     1      10.908  15.003  20.011  0.00  0.00    +0.000 C 
ENDBRANCH  13  14
ENDBRANCH  12  13
ENDBRANCH  11  12
ENDBRANCH   9  11
ENDBRANCH   4   7
BRANCH   1  20
ATOM     20  C   UNL     1       6.565   5.920  16.580  0.00  0.00    +0.000 C 
ATOM     21  O   UNL     1       6.963   5.619  15.457  0.00  0.00    +0.000 OA
BRANCH  20  26
ATOM     22  C   UNL     1       1.356   3.892  18.149  0.00  0.00    +0.000 C 
ATOM     23  C   UNL     1       2.710   4.407  17.760  0.00  0.00    +0.000 A 
ATOM     24  C   UNL     1       3.637   3.587  17.105  0.00  0.00    +0.000 A 
ATOM     25  C   UNL     1       4.891   4.085  16.742  0.00  0.00    +0.000 A 
ATOM     26  C   UNL     1       5.238   5.410  17.036  0.00  0.00    +0.000 A 
ATOM     27  C   UNL     1       4.307   6.236  17.676  0.00  0.00    +0.000 A 
ATOM     28  C   UNL     1       3.056   5.734  18.044  0.00  0.00    +0.000 A 
ENDBRANCH  20  26
ENDBRANCH   1  20
TORSDOF 7
ENDMDL
MODEL 2
REMARK VINA RESULT:      -7.7      5.365      8.869
REMARK  Name = 
REMARK  8 active torsions:
REMARK  status: ('A' for Active; 'I' for Inactive)
REMARK    1  A    between atoms: C_1  and  C_2
REMARK    2  A    between atoms: C_5  and  C_6
REMARK    3  A    between atoms: C_6  and  C_8
REMARK    4  A    between atoms: C_11  and  C_12
REMARK    5  A    between atoms: N_14  and  C_15
REMARK    6  A    between atoms: C_15  and  C_16
REMARK    7  A    between atoms: C_16  and  C_17
REMARK    8  A    between atoms: C_17  and  N_18
REMARK                            x       y       z     vdW  Elec       q    Type
REMARK                         _______ _______ _______ _____ _____    ______ ____
ROOT
ATOM      1  C   UNL     1       1.264   9.479  19.015  0.00  0.00    +0.000 A 
ATOM      2  C   UNL     1       2.072   9.111  17.955  0.00  0.00    +0.000 A 
ATOM      3  N   UNL     1       2.535   7.843  18.183  0.00  0.00    +0.000 N 
ATOM      4  C   UNL     1       2.053   7.363  19.378  0.00  0.00    +0.000 A 
ATOM      5  C   UNL     1       1.306   8.389  19.936  0.00  0.00    +0.000 A 
ATOM      6  H   UNL     1       3.138   7.307  17.569  0.00  0.00    +0.000 HD
ENDROOT
BRANCH   4   7
ATOM      7  C   UNL     1       2.357   6.018  19.826  0.00  0.00    +0.000 C 
ATOM      8  O   UNL     1       1.930   5.565  20.881  0.00  0.00    +0.000 OA
ATOM      9  N   UNL     1       3.167   5.309  18.980  0.00  0.00    +0.000 N 
ATOM     10  H   UNL     1       3.439   5.745  18.114  0.00  0.00    +0.000 HD
BRANCH   9  11
ATOM     11  C   UNL     1       3.570   3.940  19.239  0.00  0.00    +0.000 C 
BRANCH  11  12
ATOM     12  C   UNL     1       5.094   3.790  19.214  0.00  0.00    +0.000 C 
BRANCH  12  13
ATOM     13  C   UNL     1       5.786   5.160  19.136  0.00  0.00    +0.000 C 
BRANCH  13  14
ATOM     14  N   UNL     1       7.212   5.128  18.780  0.00  0.00    +0.000 NA
ATOM     15  C   UNL     1       7.854   6.460  18.686  0.00  0.00    +0.000 C 
ATOM     16  C   UNL     1       7.397   7.296  17.478  0.00  0.00    +0.000 C 
ATOM     17  O   UNL     1       7.616   6.592  16.249  0.00  0.00    +0.000 OA
ATOM     18  C   UNL     1       6.947   5.325  16.261  0.00  0.00    +0.000 C 
ATOM     19  C   UNL     1       7.392   4.464  17.461  0.00  0.00    +0.000 C 
ENDBRANCH  13  14
ENDBRANCH  12  13
ENDBRANCH  11  12
ENDBRANCH   9  11
ENDBRANCH   4   7
BRANCH   1  20
ATOM     20  C   UNL     1       0.538  10.734  19.200  0.00  0.00    +0.000 C 
ATOM     21  O   UNL     1       1.063  11.696  19.756  0.00  0.00    +0.000 OA
BRANCH  20  26
ATOM     22  C   UNL     1      -4.927  11.216  17.300  0.00  0.00    +0.000 C 
ATOM     23  C   UNL     1      -3.520  11.075  17.801  0.00  0.00    +0.000 A 
ATOM     24  C   UNL     1      -2.631  10.165  17.217  0.00  0.00    +0.000 A 
ATOM     25  C   UNL     1      -1.320  10.052  17.691  0.00  0.00    +0.000 A 
ATOM     26  C   UNL     1      -0.886  10.843  18.761  0.00  0.00    +0.000 A 
ATOM     27  C   UNL     1      -1.769  11.765  19.336  0.00  0.00    +0.000 A 
ATOM     28  C   UNL     1      -3.080  11.872  18.865  0.00  0.00    +0.000 A 
ENDBRANCH  20  26
ENDBRANCH   1  20
TORSDOF 7
ENDMDL
MODEL 3
REMARK VINA RESULT:      -7.5      2.736     10.362
REMARK  Name = 
REMARK  8 active torsions:
REMARK  status: ('A' for Active; 'I' for Inactive)
REMARK    1  A    between atoms: C_1  and  C_2
REMARK    2  A    between atoms: C_5  and  C_6
REMARK    3  A    between atoms: C_6  and  C_8
REMARK    4  A    between atoms: C_11  and  C_12
REMARK    5  A    between atoms: N_14  and  C_15
REMARK    6  A    between atoms: C_15  and  C_16
REMARK    7  A    between atoms: C_16  and  C_17
REMARK    8  A    between atoms: C_17  and  N_18
REMARK                            x       y       z     vdW  Elec       q    Type
REMARK                         _______ _______ _______ _____ _____    ______ ____
ROOT
ATOM      1  C   UNL     1       8.637   9.334  18.632  0.00  0.00    +0.000 A 
ATOM      2  C   UNL     1       7.919   9.430  17.454  0.00  0.00    +0.000 A 
ATOM      3  N   UNL     1       7.467   8.182  17.120  0.00  0.00    +0.000 N 
ATOM      4  C   UNL     1       7.876   7.256  18.052  0.00  0.00    +0.000 A 
ATOM      5  C   UNL     1       8.653   7.947  18.970  0.00  0.00    +0.000 A 
ATOM      6  H   UNL     1       6.899   7.947  16.313  0.00  0.00    +0.000 HD
ENDROOT
BRANCH   4   7
ATOM      7  C   UNL     1       7.483   5.865  17.953  0.00  0.00    +0.000 C 
ATOM      8  O   UNL     1       7.848   5.019  18.761  0.00  0.00    +0.000 OA
ATOM      9  N   UNL     1       6.684   5.576  16.879  0.00  0.00    +0.000 N 
ATOM     10  H   UNL     1       6.400   6.339  16.287  0.00  0.00    +0.000 HD
BRANCH   9  11
ATOM     11  C   UNL     1       6.170   4.246  16.615  0.00  0.00    +0.000 C 
BRANCH  11  12
ATOM     12  C   UNL     1       4.649   4.258  16.441  0.00  0.00    +0.000 C 
BRANCH  12  13
ATOM     13  C   UNL     1       3.934   4.044  17.785  0.00  0.00    +0.000 C 
BRANCH  13  14
ATOM     14  N   UNL     1       3.838   2.646  18.234  0.00  0.00    +0.000 NA
ATOM     15  C   UNL     1       2.536   1.998  17.956  0.00  0.00    +0.000 C 
ATOM     16  C   UNL     1       1.372   2.531  18.810  0.00  0.00    +0.000 C 
ATOM     17  O   UNL     1       1.659   2.408  20.209  0.00  0.00    +0.000 OA
ATOM     18  C   UNL     1       2.874   3.088  20.543  0.00  0.00    +0.000 C 
ATOM     19  C   UNL     1       4.059   2.568  19.703  0.00  0.00    +0.000 C 
ENDBRANCH  13  14
ENDBRANCH  12  13
ENDBRANCH  11  12
ENDBRANCH   9  11
ENDBRANCH   4   7
BRANCH   1  20
ATOM     20  C   UNL     1       9.291  10.408  19.377  0.00  0.00    +0.000 C 
ATOM     21  O   UNL     1       9.423  10.347  20.597  0.00  0.00    +0.000 OA
BRANCH  20  26
ATOM     22  C   UNL     1      11.291  15.168  16.721  0.00  0.00    +0.000 C 
ATOM     23  C   UNL     1      10.769  13.931  17.390  0.00  0.00    +0.000 A 
ATOM     24  C   UNL     1      11.507  12.742  17.392  0.00  0.00    +0.000 A 
ATOM     25  C   UNL     1      11.009  11.600  18.026  0.00  0.00    +0.000 A 
ATOM     26  C   UNL     1       9.762  11.631  18.661  0.00  0.00    +0.000 A 
ATOM     27  C   UNL     1       9.029  12.824  18.674  0.00  0.00    +0.000 A 
ATOM     28  C   UNL     1       9.526  13.963  18.034  0.00  0.00    +0.000 A 
ENDBRANCH  20  26
ENDBRANCH   1  20
TORSDOF 7
ENDMDL
MODEL 4
REMARK VINA RESULT:      -7.5      1.153      1.511
REMARK  Name = 
REMARK  8 active torsions:
REMARK  status: ('A' for Active; 'I' for Inactive)
REMARK    1  A    between atoms: C_1  and  C_2
REMARK    2  A    between atoms: C_5  and  C_6
REMARK    3  A    between atoms: C_6  and  C_8
REMARK    4  A    between atoms: C_11  and  C_12
REMARK    5  A    between atoms: N_14  and  C_15
REMARK    6  A    between atoms: C_15  and  C_16
REMARK    7  A    between atoms: C_16  and  C_17
REMARK    8  A    between atoms: C_17  and  N_18
REMARK                            x       y       z     vdW  Elec       q    Type
REMARK                         _______ _______ _______ _____ _____    ______ ____
ROOT
ATOM      1  C   UNL     1       7.138   6.911  17.462  0.00  0.00    +0.000 A 
ATOM      2  C   UNL     1       7.835   6.435  18.557  0.00  0.00    +0.000 A 
ATOM      3  N   UNL     1       8.542   7.471  19.105  0.00  0.00    +0.000 N 
ATOM      4  C   UNL     1       8.332   8.627  18.390  0.00  0.00    +0.000 A 
ATOM      5  C   UNL     1       7.506   8.285  17.330  0.00  0.00    +0.000 A 
ATOM      6  H   UNL     1       9.134   7.424  19.927  0.00  0.00    +0.000 HD
ENDROOT
BRANCH   4   7
ATOM      7  C   UNL     1       8.930   9.883  18.798  0.00  0.00    +0.000 C 
ATOM      8  O   UNL     1       9.395  10.056  19.919  0.00  0.00    +0.000 OA
ATOM      9  N   UNL     1       8.920  10.855  17.834  0.00  0.00    +0.000 N 
ATOM     10  H   UNL     1       8.554  10.614  16.928  0.00  0.00    +0.000 HD
BRANCH   9  11
ATOM     11  C   UNL     1       9.487  12.174  18.040  0.00  0.00    +0.000 C 
BRANCH  11  12
ATOM     12  C   UNL     1      10.931  12.248  17.536  0.00  0.00    +0.000 C 
BRANCH  12  13
ATOM     13  C   UNL     1      11.483  13.679  17.641  0.00  0.00    +0.000 C 
BRANCH  13  14
ATOM     14  N   UNL     1      10.574  14.664  18.248  0.00  0.00    +0.000 NA
ATOM     15  C   UNL     1      10.326  15.866  17.419  0.00  0.00    +0.000 C 
ATOM     16  C   UNL     1      11.537  16.806  17.295  0.00  0.00    +0.000 C 
ATOM     17  O   UNL     1      12.002  17.225  18.585  0.00  0.00    +0.000 OA
ATOM     18  C   UNL     1      12.330  16.094  19.400  0.00  0.00    +0.000 C 
ATOM     19  C   UNL     1      11.130  15.136  19.545  0.00  0.00    +0.000 C 
ENDBRANCH  13  14
ENDBRANCH  12  13
ENDBRANCH  11  12
ENDBRANCH   9  11
ENDBRANCH   4   7
BRANCH   1  20
ATOM     20  C   UNL     1       6.238   6.174  16.577  0.00  0.00    +0.000 C 
ATOM     21  O   UNL     1       6.467   6.078  15.374  0.00  0.00    +0.000 OA
BRANCH  20  26
ATOM     22  C   UNL     1       1.413   3.919  18.890  0.00  0.00    +0.000 C 
ATOM     23  C   UNL     1       2.650   4.505  18.276  0.00  0.00    +0.000 A 
ATOM     24  C   UNL     1       2.838   5.890  18.207  0.00  0.00    +0.000 A 
ATOM     25  C   UNL     1       4.000   6.420  17.638  0.00  0.00    +0.000 A 
ATOM     26  C   UNL     1       4.986   5.570  17.124  0.00  0.00    +0.000 A 
ATOM     27  C   UNL     1       4.807   4.184  17.207  0.00  0.00    +0.000 A 
ATOM     28  C   UNL     1       3.642   3.657  17.770  0.00  0.00    +0.000 A 
ENDBRANCH  20  26
ENDBRANCH   1  20
TORSDOF 7
ENDMDL
MODEL 5
REMARK VINA RESULT:      -7.5      6.587      9.349
REMARK  Name = 
REMARK  8 active torsions:
REMARK  status: ('A' for Active; 'I' for Inactive)
REMARK    1  A    between atoms: C_1  and  C_2
REMARK    2  A    between atoms: C_5  and  C_6
REMARK    3  A    between atoms: C_6  and  C_8
REMARK    4  A    between atoms: C_11  and  C_12
REMARK    5  A    between atoms: N_14  and  C_15
REMARK    6  A    between atoms: C_15  and  C_16
REMARK    7  A    between atoms: C_16  and  C_17
REMARK    8  A    between atoms: C_17  and  N_18
REMARK                            x       y       z     vdW  Elec       q    Type
REMARK                         _______ _______ _______ _____ _____    ______ ____
ROOT
ATOM      1  C   UNL     1       1.440   9.333  18.848  0.00  0.00    +0.000 A 
ATOM      2  C   UNL     1       2.249   8.943  17.797  0.00  0.00    +0.000 A 
ATOM      3  N   UNL     1       2.665   7.659  18.024  0.00  0.00    +0.000 N 
ATOM      4  C   UNL     1       2.152   7.190  19.211  0.00  0.00    +0.000 A 
ATOM      5  C   UNL     1       1.433   8.238  19.765  0.00  0.00    +0.000 A 
ATOM      6  H   UNL     1       3.257   7.105  17.415  0.00  0.00    +0.000 HD
ENDROOT
BRANCH   4   7
ATOM      7  C   UNL     1       2.403   5.833  19.655  0.00  0.00    +0.000 C 
ATOM      8  O   UNL     1       2.517   5.540  20.840  0.00  0.00    +0.000 OA
ATOM      9  N   UNL     1       2.515   4.917  18.644  0.00  0.00    +0.000 N 
ATOM     10  H   UNL     1       2.368   5.238  17.701  0.00  0.00    +0.000 HD
BRANCH   9  11
ATOM     11  C   UNL     1       2.747   3.505  18.883  0.00  0.00    +0.000 C 
BRANCH  11  12
ATOM     12  C   UNL     1       4.092   3.053  18.308  0.00  0.00    +0.000 C 
BRANCH  12  13
ATOM     13  C   UNL     1       4.372   3.727  16.954  0.00  0.00    +0.000 C 
BRANCH  13  14
ATOM     14  N   UNL     1       4.899   5.098  17.028  0.00  0.00    +0.000 NA
ATOM     15  C   UNL     1       5.310   5.671  15.725  0.00  0.00    +0.000 C 
ATOM     16  C   UNL     1       6.577   5.033  15.129  0.00  0.00    +0.000 C 
ATOM     17  O   UNL     1       7.680   5.123  16.039  0.00  0.00    +0.000 OA
ATOM     18  C   UNL     1       7.357   4.511  17.294  0.00  0.00    +0.000 C 
ATOM     19  C   UNL     1       6.092   5.136  17.917  0.00  0.00    +0.000 C 
ENDBRANCH  13  14
ENDBRANCH  12  13
ENDBRANCH  11  12
ENDBRANCH   9  11
ENDBRANCH   4   7
BRANCH   1  20
ATOM     20  C   UNL     1       0.756  10.612  19.031  0.00  0.00    +0.000 C 
ATOM     21  O   UNL     1       1.313  11.558  19.581  0.00  0.00    +0.000 OA
BRANCH  20  26
ATOM     22  C   UNL     1      -4.828  11.158  17.537  0.00  0.00    +0.000 C 
ATOM     23  C   UNL     1      -3.381  11.034  17.912  0.00  0.00    +0.000 A 
ATOM     24  C   UNL     1      -2.818  11.841  18.907  0.00  0.00    +0.000 A 
ATOM     25  C   UNL     1      -1.469  11.706  19.250  0.00  0.00    +0.000 A 
ATOM     26  C   UNL     1      -0.665  10.765  18.596  0.00  0.00    +0.000 A 
ATOM     27  C   UNL     1      -1.231   9.946  17.612  0.00  0.00    +0.000 A 
ATOM     28  C   UNL     1      -2.577  10.086  17.266  0.00  0.00    +0.000 A 
ENDBRANCH  20  26
ENDBRANCH   1  20
TORSDOF 7
ENDMDL
MODEL 6
REMARK VINA RESULT:      -7.4      6.127      9.139
REMARK  Name = 
REMARK  8 active torsions:
REMARK  status: ('A' for Active; 'I' for Inactive)
REMARK    1  A    between atoms: C_1  and  C_2
REMARK    2  A    between atoms: C_5  and  C_6
REMARK    3  A    between atoms: C_6  and  C_8
REMARK    4  A    between atoms: C_11  and  C_12
REMARK    5  A    between atoms: N_14  and  C_15
REMARK    6  A    between atoms: C_15  and  C_16
REMARK    7  A    between atoms: C_16  and  C_17
REMARK    8  A    between atoms: C_17  and  N_18
REMARK                            x       y       z     vdW  Elec       q    Type
REMARK                         _______ _______ _______ _____ _____    ______ ____
ROOT
ATOM      1  C   UNL     1       1.555   8.741  19.267  0.00  0.00    +0.000 A 
ATOM      2  C   UNL     1       1.456   8.483  20.622  0.00  0.00    +0.000 A 
ATOM      3  N   UNL     1       1.861   7.196  20.849  0.00  0.00    +0.000 N 
ATOM      4  C   UNL     1       2.222   6.590  19.668  0.00  0.00    +0.000 A 
ATOM      5  C   UNL     1       1.984   7.519  18.666  0.00  0.00    +0.000 A 
ATOM      6  H   UNL     1       1.910   6.733  21.750  0.00  0.00    +0.000 HD
ENDROOT
BRANCH   4   7
ATOM      7  C   UNL     1       2.738   5.236  19.644  0.00  0.00    +0.000 C 
ATOM      8  O   UNL     1       3.427   4.778  20.549  0.00  0.00    +0.000 OA
ATOM      9  N   UNL     1       2.402   4.521  18.526  0.00  0.00    +0.000 N 
ATOM     10  H   UNL     1       1.799   4.962  17.850  0.00  0.00    +0.000 HD
BRANCH   9  11
ATOM     11  C   UNL     1       2.805   3.143  18.322  0.00  0.00    +0.000 C 
BRANCH  11  12
ATOM     12  C   UNL     1       3.669   2.991  17.067  0.00  0.00    +0.000 C 
BRANCH  12  13
ATOM     13  C   UNL     1       4.922   3.878  17.145  0.00  0.00    +0.000 C 
BRANCH  13  14
ATOM     14  N   UNL     1       4.855   5.134  16.381  0.00  0.00    +0.000 NA
ATOM     15  C   UNL     1       5.481   5.073  15.040  0.00  0.00    +0.000 C 
ATOM     16  C   UNL     1       7.016   4.971  15.066  0.00  0.00    +0.000 C 
ATOM     17  O   UNL     1       7.595   6.060  15.795  0.00  0.00    +0.000 OA
ATOM     18  C   UNL     1       7.077   6.113  17.130  0.00  0.00    +0.000 C 
ATOM     19  C   UNL     1       5.539   6.221  17.132  0.00  0.00    +0.000 C 
ENDBRANCH  13  14
ENDBRANCH  12  13
ENDBRANCH  11  12
ENDBRANCH   9  11
ENDBRANCH   4   7
BRANCH   1  20
ATOM     20  C   UNL     1       1.248   9.984  18.562  0.00  0.00    +0.000 C 
ATOM     21  O   UNL     1       2.142  10.701  18.119  0.00  0.00    +0.000 OA
BRANCH  20  26
ATOM     22  C   UNL     1      -4.301  11.659  18.220  0.00  0.00    +0.000 C 
ATOM     23  C   UNL     1      -2.861  11.243  18.298  0.00  0.00    +0.000 A 
ATOM     24  C   UNL     1      -1.990  11.819  19.229  0.00  0.00    +0.000 A 
ATOM     25  C   UNL     1      -0.654  11.414  19.295  0.00  0.00    +0.000 A 
ATOM     26  C   UNL     1      -0.170  10.431  18.422  0.00  0.00    +0.000 A 
ATOM     27  C   UNL     1      -1.044   9.842  17.501  0.00  0.00    +0.000 A 
ATOM     28  C   UNL     1      -2.378  10.253  17.434  0.00  0.00    +0.000 A 
ENDBRANCH  20  26
ENDBRANCH   1  20
TORSDOF 7
ENDMDL
MODEL 7
REMARK VINA RESULT:      -7.2      1.308      1.711
REMARK  Name = 
REMARK  8 active torsions:
REMARK  status: ('A' for Active; 'I' for Inactive)
REMARK    1  A    between atoms: C_1  and  C_2
REMARK    2  A    between atoms: C_5  and  C_6
REMARK    3  A    between atoms: C_6  and  C_8
REMARK    4  A    between atoms: C_11  and  C_12
REMARK    5  A    between atoms: N_14  and  C_15
REMARK    6  A    between atoms: C_15  and  C_16
REMARK    7  A    between atoms: C_16  and  C_17
REMARK    8  A    between atoms: C_17  and  N_18
REMARK                            x       y       z     vdW  Elec       q    Type
REMARK                         _______ _______ _______ _____ _____    ______ ____
ROOT
ATOM      1  C   UNL     1       6.944   7.045  17.488  0.00  0.00    +0.000 A 
ATOM      2  C   UNL     1       7.728   6.459  18.464  0.00  0.00    +0.000 A 
ATOM      3  N   UNL     1       8.536   7.422  19.006  0.00  0.00    +0.000 N 
ATOM      4  C   UNL     1       8.307   8.637  18.404  0.00  0.00    +0.000 A 
ATOM      5  C   UNL     1       7.359   8.409  17.417  0.00  0.00    +0.000 A 
ATOM      6  H   UNL     1       9.207   7.289  19.755  0.00  0.00    +0.000 HD
ENDROOT
BRANCH   4   7
ATOM      7  C   UNL     1       9.002   9.834  18.835  0.00  0.00    +0.000 C 
ATOM      8  O   UNL     1       9.130  10.130  20.018  0.00  0.00    +0.000 OA
ATOM      9  N   UNL     1       9.488  10.606  17.814  0.00  0.00    +0.000 N 
ATOM     10  H   UNL     1       9.372  10.267  16.873  0.00  0.00    +0.000 HD
BRANCH   9  11
ATOM     11  C   UNL     1      10.229  11.832  18.039  0.00  0.00    +0.000 C 
BRANCH  11  12
ATOM     12  C   UNL     1       9.420  13.062  17.618  0.00  0.00    +0.000 C 
BRANCH  12  13
ATOM     13  C   UNL     1      10.058  14.355  18.150  0.00  0.00    +0.000 C 
BRANCH  13  14
ATOM     14  N   UNL     1      11.001  15.018  17.236  0.00  0.00    +0.000 NA
ATOM     15  C   UNL     1      12.331  15.302  17.822  0.00  0.00    +0.000 C 
ATOM     16  C   UNL     1      12.325  16.409  18.890  0.00  0.00    +0.000 C 
ATOM     17  O   UNL     1      11.781  17.628  18.369  0.00  0.00    +0.000 OA
ATOM     18  C   UNL     1      10.459  17.420  17.859  0.00  0.00    +0.000 C 
ATOM     19  C   UNL     1      10.438  16.318  16.780  0.00  0.00    +0.000 C 
ENDBRANCH  13  14
ENDBRANCH  12  13
ENDBRANCH  11  12
ENDBRANCH   9  11
ENDBRANCH   4   7
BRANCH   1  20
ATOM     20  C   UNL     1       5.924   6.413  16.654  0.00  0.00    +0.000 C 
ATOM     21  O   UNL     1       5.986   6.460  15.428  0.00  0.00    +0.000 OA
BRANCH  20  26
ATOM     22  C   UNL     1       1.317   3.721  18.945  0.00  0.00    +0.000 C 
ATOM     23  C   UNL     1       2.518   4.412  18.370  0.00  0.00    +0.000 A 
ATOM     24  C   UNL     1       3.578   3.685  17.816  0.00  0.00    +0.000 A 
ATOM     25  C   UNL     1       4.686   4.345  17.277  0.00  0.00    +0.000 A 
ATOM     26  C   UNL     1       4.750   5.744  17.291  0.00  0.00    +0.000 A 
ATOM     27  C   UNL     1       3.684   6.474  17.829  0.00  0.00    +0.000 A 
ATOM     28  C   UNL     1       2.580   5.811  18.373  0.00  0.00    +0.000 A 
ENDBRANCH  20  26
ENDBRANCH   1  20
TORSDOF 7
ENDMDL
MODEL 8
REMARK VINA RESULT:      -7.2      7.171     10.600
REMARK  Name = 
REMARK  8 active torsions:
REMARK  status: ('A' for Active; 'I' for Inactive)
REMARK    1  A    between atoms: C_1  and  C_2
REMARK    2  A    between atoms: C_5  and  C_6
REMARK    3  A    between atoms: C_6  and  C_8
REMARK    4  A    between atoms: C_11  and  C_12
REMARK    5  A    between atoms: N_14  and  C_15
REMARK    6  A    between atoms: C_15  and  C_16
REMARK    7  A    between atoms: C_16  and  C_17
REMARK    8  A    between atoms: C_17  and  N_18
REMARK                            x       y       z     vdW  Elec       q    Type
REMARK                         _______ _______ _______ _____ _____    ______ ____
ROOT
ATOM      1  C   UNL     1       1.193   9.050  19.924  0.00  0.00    +0.000 A 
ATOM      2  C   UNL     1       1.005   8.127  20.935  0.00  0.00    +0.000 A 
ATOM      3  N   UNL     1       1.794   7.038  20.679  0.00  0.00    +0.000 N 
ATOM      4  C   UNL     1       2.500   7.218  19.512  0.00  0.00    +0.000 A 
ATOM      5  C   UNL     1       2.094   8.442  18.999  0.00  0.00    +0.000 A 
ATOM      6  H   UNL     1       1.877   6.208  21.258  0.00  0.00    +0.000 HD
ENDROOT
BRANCH   4   7
ATOM      7  C   UNL     1       3.449   6.227  19.046  0.00  0.00    +0.000 C 
ATOM      8  O   UNL     1       4.208   5.636  19.804  0.00  0.00    +0.000 OA
ATOM      9  N   UNL     1       3.432   6.020  17.692  0.00  0.00    +0.000 N 
ATOM     10  H   UNL     1       2.748   6.521  17.149  0.00  0.00    +0.000 HD
BRANCH   9  11
ATOM     11  C   UNL     1       4.292   5.056  17.033  0.00  0.00    +0.000 C 
BRANCH  11  12
ATOM     12  C   UNL     1       3.540   3.761  16.714  0.00  0.00    +0.000 C 
BRANCH  12  13
ATOM     13  C   UNL     1       2.173   3.724  17.416  0.00  0.00    +0.000 C 
BRANCH  13  14
ATOM     14  N   UNL     1       1.790   2.423  17.985  0.00  0.00    +0.000 NA
ATOM     15  C   UNL     1       0.664   2.479  18.946  0.00  0.00    +0.000 C 
ATOM     16  C   UNL     1       1.011   3.154  20.284  0.00  0.00    +0.000 C 
ATOM     17  O   UNL     1       2.124   2.510  20.916  0.00  0.00    +0.000 OA
ATOM     18  C   UNL     1       3.266   2.500  20.052  0.00  0.00    +0.000 C 
ATOM     19  C   UNL     1       2.947   1.823  18.704  0.00  0.00    +0.000 C 
ENDBRANCH  13  14
ENDBRANCH  12  13
ENDBRANCH  11  12
ENDBRANCH   9  11
ENDBRANCH   4   7
BRANCH   1  20
ATOM     20  C   UNL     1       0.575  10.367  19.782  0.00  0.00    +0.000 C 
ATOM     21  O   UNL     1       0.992  11.336  20.412  0.00  0.00    +0.000 OA
BRANCH  20  26
ATOM     22  C   UNL     1      -4.192  10.976  16.523  0.00  0.00    +0.000 C 
ATOM     23  C   UNL     1      -2.952  10.835  17.357  0.00  0.00    +0.000 A 
ATOM     24  C   UNL     1      -2.772  11.592  18.521  0.00  0.00    +0.000 A 
ATOM     25  C   UNL     1      -1.615  11.443  19.291  0.00  0.00    +0.000 A 
ATOM     26  C   UNL     1      -0.619  10.539  18.902  0.00  0.00    +0.000 A 
ATOM     27  C   UNL     1      -0.805   9.770  17.747  0.00  0.00    +0.000 A 
ATOM     28  C   UNL     1      -1.959   9.925  16.975  0.00  0.00    +0.000 A 
ENDBRANCH  20  26
ENDBRANCH   1  20
TORSDOF 7
ENDMDL
MODEL 9
REMARK VINA RESULT:      -7.2      1.232      1.448
REMARK  Name = 
REMARK  8 active torsions:
REMARK  status: ('A' for Active; 'I' for Inactive)
REMARK    1  A    between atoms: C_1  and  C_2
REMARK    2  A    between atoms: C_5  and  C_6
REMARK    3  A    between atoms: C_6  and  C_8
REMARK    4  A    between atoms: C_11  and  C_12
REMARK    5  A    between atoms: N_14  and  C_15
REMARK    6  A    between atoms: C_15  and  C_16
REMARK    7  A    between atoms: C_16  and  C_17
REMARK    8  A    between atoms: C_17  and  N_18
REMARK                            x       y       z     vdW  Elec       q    Type
REMARK                         _______ _______ _______ _____ _____    ______ ____
ROOT
ATOM      1  C   UNL     1       7.199   6.854  17.437  0.00  0.00    +0.000 A 
ATOM      2  C   UNL     1       7.825   6.380  18.575  0.00  0.00    +0.000 A 
ATOM      3  N   UNL     1       8.534   7.406  19.139  0.00  0.00    +0.000 N 
ATOM      4  C   UNL     1       8.395   8.553  18.394  0.00  0.00    +0.000 A 
ATOM      5  C   UNL     1       7.613   8.213  17.300  0.00  0.00    +0.000 A 
ATOM      6  H   UNL     1       9.082   7.358  19.991  0.00  0.00    +0.000 HD
ENDROOT
BRANCH   4   7
ATOM      7  C   UNL     1       9.009   9.799  18.809  0.00  0.00    +0.000 C 
ATOM      8  O   UNL     1       9.227  10.065  19.985  0.00  0.00    +0.000 OA
ATOM      9  N   UNL     1       9.310  10.652  17.781  0.00  0.00    +0.000 N 
ATOM     10  H   UNL     1       9.133  10.337  16.841  0.00  0.00    +0.000 HD
BRANCH   9  11
ATOM     11  C   UNL     1       9.946  11.939  17.987  0.00  0.00    +0.000 C 
BRANCH  11  12
ATOM     12  C   UNL     1       8.912  13.045  18.216  0.00  0.00    +0.000 C 
BRANCH  12  13
ATOM     13  C   UNL     1       9.495  14.428  17.885  0.00  0.00    +0.000 C 
BRANCH  13  14
ATOM     14  N   UNL     1       9.512  15.390  18.997  0.00  0.00    +0.000 NA
ATOM     15  C   UNL     1      10.024  16.734  18.642  0.00  0.00    +0.000 C 
ATOM     16  C   UNL     1      11.535  16.777  18.357  0.00  0.00    +0.000 C 
ATOM     17  O   UNL     1      12.286  16.278  19.471  0.00  0.00    +0.000 OA
ATOM     18  C   UNL     1      11.880  14.946  19.804  0.00  0.00    +0.000 C 
ATOM     19  C   UNL     1      10.368  14.875  20.100  0.00  0.00    +0.000 C 
ENDBRANCH  13  14
ENDBRANCH  12  13
ENDBRANCH  11  12
ENDBRANCH   9  11
ENDBRANCH   4   7
BRANCH   1  20
ATOM     20  C   UNL     1       6.323   6.125  16.522  0.00  0.00    +0.000 C 
ATOM     21  O   UNL     1       6.598   6.018  15.329  0.00  0.00    +0.000 OA
BRANCH  20  26
ATOM     22  C   UNL     1       1.289   3.814  18.264  0.00  0.00    +0.000 C 
ATOM     23  C   UNL     1       2.599   4.404  17.830  0.00  0.00    +0.000 A 
ATOM     24  C   UNL     1       3.572   3.621  17.197  0.00  0.00    +0.000 A 
ATOM     25  C   UNL     1       4.784   4.188  16.792  0.00  0.00    +0.000 A 
ATOM     26  C   UNL     1       5.041   5.545  17.022  0.00  0.00    +0.000 A 
ATOM     27  C   UNL     1       4.062   6.333  17.640  0.00  0.00    +0.000 A 
ATOM     28  C   UNL     1       2.854   5.763  18.050  0.00  0.00    +0.000 A 
ENDBRANCH  20  26
ENDBRANCH   1  20
TORSDOF 7
ENDMDL
