MODEL 1
REMARK VINA RESULT:      -8.6      0.000      0.000
REMARK  Name = 
REMARK  9 active torsions:
REMARK  status: ('A' for Active; 'I' for Inactive)
REMARK    1  A    between atoms: C_2  and  C_3
REMARK    2  A    between atoms: C_3  and  C_4
REMARK    3  A    between atoms: C_14  and  C_15
REMARK    4  A    between atoms: C_15  and  C_16
REMARK    5  A    between atoms: C_16  and  C_17
REMARK    6  A    between atoms: C_17  and  C_18
REMARK    7  A    between atoms: C_18  and  C_19
REMARK    8  A    between atoms: C_24  and  C_26
REMARK    9  A    between atoms: C_26  and  C_27
REMARK                            x       y       z     vdW  Elec       q    Type
REMARK                         _______ _______ _______ _____ _____    ______ ____
ROOT
ATOM      1  C   UNL     1       5.045   3.972  15.865  0.00  0.00    +0.000 C 
ENDROOT
BRANCH   1   2
ATOM      2  C   UNL     1       6.575   4.052  15.829  0.00  0.00    +0.000 C 
BRANCH   2   9
ATOM      3  O   UNL     1       7.791   9.342  17.493  0.00  0.00    +0.000 OA
ATOM      4  C   UNL     1       8.406   8.989  18.498  0.00  0.00    +0.000 C 
ATOM      5  N   UNL     1       8.487   7.702  18.985  0.00  0.00    +0.000 N 
ATOM      6  C   UNL     1       7.989   6.578  18.368  0.00  0.00    +0.000 A 
ATOM      7  N   UNL     1       7.894   5.420  18.984  0.00  0.00    +0.000 NA
ATOM      8  N   UNL     1       7.363   4.441  18.169  0.00  0.00    +0.000 NA
ATOM      9  C   UNL     1       7.140   4.876  16.945  0.00  0.00    +0.000 A 
ATOM     10  S   UNL     1       7.555   6.527  16.719  0.00  0.00    +0.000 S 
ATOM     11  H   UNL     1       8.831   7.522  19.920  0.00  0.00    +0.000 HD
BRANCH   4  12
ATOM     12  C   UNL     1       9.190   9.989  19.328  0.00  0.00    +0.000 C 
BRANCH  12  13
ATOM     13  C   UNL     1       9.780  11.173  18.605  0.00  0.00    +0.000 A 
ATOM     14  C   UNL     1      11.103  11.281  18.173  0.00  0.00    +0.000 A 
ATOM     15  C   UNL     1      11.518  12.429  17.498  0.00  0.00    +0.000 A 
ATOM     16  C   UNL     1      10.591  13.436  17.273  0.00  0.00    +0.000 A 
ATOM     17  N   UNL     1       9.306  13.371  17.675  0.00  0.00    +0.000 NA
ATOM     18  C   UNL     1       8.937  12.252  18.333  0.00  0.00    +0.000 A 
ENDBRANCH  12  13
ENDBRANCH   4  12
ENDBRANCH   2   9
ENDBRANCH   1   2
BRANCH   1  19
ATOM     19  C   UNL     1       4.383   4.693  17.048  0.00  0.00    +0.000 C 
BRANCH  19  20
ATOM     20  C   UNL     1       3.696   3.769  18.054  0.00  0.00    +0.000 C 
BRANCH  20  21
ATOM     21  C   UNL     1       3.036   4.519  19.159  0.00  0.00    +0.000 A 
ATOM     22  N   UNL     1       2.431   3.983  20.205  0.00  0.00    +0.000 NA
ATOM     23  N   UNL     1       1.864   4.954  21.015  0.00  0.00    +0.000 NA
ATOM     24  C   UNL     1       2.017   6.163  20.520  0.00  0.00    +0.000 A 
ATOM     25  N   UNL     1       1.463   7.299  21.069  0.00  0.00    +0.000 N 
ATOM     26  C   UNL     1       1.340   8.501  20.407  0.00  0.00    +0.000 C 
ATOM     27  O   UNL     1       1.669   8.734  19.244  0.00  0.00    +0.000 OA
ATOM     28  S   UNL     1       3.027   6.226  19.148  0.00  0.00    +0.000 S 
ATOM     29  H   UNL     1       0.950   7.133  21.926  0.00  0.00    +0.000 HD
BRANCH  26  30
ATOM     30  C   UNL     1       0.683   9.595  21.222  0.00  0.00    +0.000 C 
BRANCH  30  31
ATOM     31  C   UNL     1       0.171  10.759  20.415  0.00  0.00    +0.000 A 
ATOM     32  C   UNL     1       0.894  11.956  20.391  0.00  0.00    +0.000 A 
ATOM     33  C   UNL     1       0.441  13.027  19.628  0.00  0.00    +0.000 A 
ATOM     34  C   UNL     1      -0.724  12.867  18.899  0.00  0.00    +0.000 A 
ATOM     35  N   UNL     1      -1.434  11.721  18.872  0.00  0.00    +0.000 NA
ATOM     36  C   UNL     1      -0.964  10.690  19.610  0.00  0.00    +0.000 A 
ENDBRANCH  30  31
ENDBRANCH  26  30
ENDBRANCH  20  21
ENDBRANCH  19  20
ENDBRANCH   1  19
TORSDOF 9
ENDMDL
MODEL 2
REMARK VINA RESULT:      -8.3      0.929      1.265
REMARK  Name = 
REMARK  9 active torsions:
REMARK  status: ('A' for Active; 'I' for Inactive)
REMARK    1  A    between atoms: C_2  and  C_3
REMARK    2  A    between atoms: C_3  and  C_4
REMARK    3  A    between atoms: C_14  and  C_15
REMARK    4  A    between atoms: C_15  and  C_16
REMARK    5  A    between atoms: C_16  and  C_17
REMARK    6  A    between atoms: C_17  and  C_18
REMARK    7  A    between atoms: C_18  and  C_19
REMARK    8  A    between atoms: C_24  and  C_26
REMARK    9  A    between atoms: C_26  and  C_27
REMARK                            x       y       z     vdW  Elec       q    Type
REMARK                         _______ _______ _______ _____ _____    ______ ____
ROOT
ATOM      1  C   UNL     1       4.864   4.126  16.014  0.00  0.00    +0.000 C 
ENDROOT
BRANCH   1   2
ATOM      2  C   UNL     1       6.389   4.193  15.892  0.00  0.00    +0.000 C 
BRANCH   2   9
ATOM      3  O   UNL     1       7.780   9.438  17.565  0.00  0.00    +0.000 OA
ATOM      4  C   UNL     1       8.439   9.059  18.532  0.00  0.00    +0.000 C 
ATOM      5  N   UNL     1       8.523   7.764  18.996  0.00  0.00    +0.000 N 
ATOM      6  C   UNL     1       7.975   6.658  18.390  0.00  0.00    +0.000 A 
ATOM      7  N   UNL     1       7.891   5.493  18.994  0.00  0.00    +0.000 NA
ATOM      8  N   UNL     1       7.302   4.534  18.193  0.00  0.00    +0.000 NA
ATOM      9  C   UNL     1       7.024   4.991  16.989  0.00  0.00    +0.000 A 
ATOM     10  S   UNL     1       7.456   6.639  16.764  0.00  0.00    +0.000 S 
ATOM     11  H   UNL     1       8.911   7.565  19.910  0.00  0.00    +0.000 HD
BRANCH   4  12
ATOM     12  C   UNL     1       9.282  10.034  19.335  0.00  0.00    +0.000 C 
BRANCH  12  13
ATOM     13  C   UNL     1       9.650  11.336  18.671  0.00  0.00    +0.000 A 
ATOM     14  C   UNL     1       8.948  12.537  18.797  0.00  0.00    +0.000 A 
ATOM     15  C   UNL     1       9.407  13.678  18.139  0.00  0.00    +0.000 A 
ATOM     16  C   UNL     1      10.561  13.583  17.376  0.00  0.00    +0.000 A 
ATOM     17  N   UNL     1      11.266  12.444  17.227  0.00  0.00    +0.000 NA
ATOM     18  C   UNL     1      10.792  11.355  17.868  0.00  0.00    +0.000 A 
ENDBRANCH  12  13
ENDBRANCH   4  12
ENDBRANCH   2   9
ENDBRANCH   1   2
BRANCH   1  19
ATOM     19  C   UNL     1       4.260   4.998  17.125  0.00  0.00    +0.000 C 
BRANCH  19  20
ATOM     20  C   UNL     1       3.693   4.216  18.311  0.00  0.00    +0.000 C 
BRANCH  20  21
ATOM     21  C   UNL     1       2.945   5.086  19.260  0.00  0.00    +0.000 A 
ATOM     22  N   UNL     1       2.214   4.669  20.281  0.00  0.00    +0.000 NA
ATOM     23  N   UNL     1       1.596   5.728  20.926  0.00  0.00    +0.000 NA
ATOM     24  C   UNL     1       1.839   6.879  20.338  0.00  0.00    +0.000 A 
ATOM     25  N   UNL     1       1.267   8.075  20.712  0.00  0.00    +0.000 N 
ATOM     26  C   UNL     1       1.254   9.208  19.928  0.00  0.00    +0.000 C 
ATOM     27  O   UNL     1       1.713   9.318  18.791  0.00  0.00    +0.000 OA
ATOM     28  S   UNL     1       2.992   6.784  19.085  0.00  0.00    +0.000 S 
ATOM     29  H   UNL     1       0.660   8.006  21.519  0.00  0.00    +0.000 HD
BRANCH  26  30
ATOM     30  C   UNL     1       0.550  10.391  20.558  0.00  0.00    +0.000 C 
BRANCH  30  31
ATOM     31  C   UNL     1      -0.713  10.817  19.858  0.00  0.00    +0.000 A 
ATOM     32  C   UNL     1      -1.314  12.034  20.194  0.00  0.00    +0.000 A 
ATOM     33  C   UNL     1      -2.468  12.446  19.534  0.00  0.00    +0.000 A 
ATOM     34  C   UNL     1      -2.983  11.631  18.543  0.00  0.00    +0.000 A 
ATOM     35  N   UNL     1      -2.417  10.466  18.167  0.00  0.00    +0.000 NA
ATOM     36  C   UNL     1      -1.289  10.094  18.814  0.00  0.00    +0.000 A 
ENDBRANCH  30  31
ENDBRANCH  26  30
ENDBRANCH  20  21
ENDBRANCH  19  20
ENDBRANCH   1  19
TORSDOF 9
ENDMDL
MODEL 3
REMARK VINA RESULT:      -8.2      1.492      7.692
REMARK  Name = 
REMARK  9 active torsions:
REMARK  status: ('A' for Active; 'I' for Inactive)
REMARK    1  A    between atoms: C_2  and  C_3
REMARK    2  A    between atoms: C_3  and  C_4
REMARK    3  A    between atoms: C_14  and  C_15
REMARK    4  A    between atoms: C_15  and  C_16
REMARK    5  A    between atoms: C_16  and  C_17
REMARK    6  A    between atoms: C_17  and  C_18
REMARK    7  A    between atoms: C_18  and  C_19
REMARK    8  A    between atoms: C_24  and  C_26
REMARK    9  A    between atoms: C_26  and  C_27
REMARK                            x       y       z     vdW  Elec       q    Type
REMARK                         _______ _______ _______ _____ _____    ______ ____
ROOT
ATOM      1  C   UNL     1       4.076   5.316  17.253  0.00  0.00    +0.000 C 
ENDROOT
BRANCH   1   2
ATOM      2  C   UNL     1       3.657   5.033  18.699  0.00  0.00    +0.000 C 
BRANCH   2   9
ATOM      3  O   UNL     1       0.807   9.802  17.527  0.00  0.00    +0.000 OA
ATOM      4  C   UNL     1       0.631  10.102  18.706  0.00  0.00    +0.000 C 
ATOM      5  N   UNL     1       0.930   9.312  19.795  0.00  0.00    +0.000 N 
ATOM      6  C   UNL     1       1.579   8.100  19.752  0.00  0.00    +0.000 A 
ATOM      7  N   UNL     1       1.630   7.291  20.788  0.00  0.00    +0.000 NA
ATOM      8  N   UNL     1       2.330   6.134  20.509  0.00  0.00    +0.000 NA
ATOM      9  C   UNL     1       2.841   6.140  19.294  0.00  0.00    +0.000 A 
ATOM     10  S   UNL     1       2.482   7.566  18.406  0.00  0.00    +0.000 S 
ATOM     11  H   UNL     1       0.569   9.537  20.714  0.00  0.00    +0.000 HD
BRANCH   4  12
ATOM     12  C   UNL     1       0.056  11.453  19.093  0.00  0.00    +0.000 C 
BRANCH  12  13
ATOM     13  C   UNL     1       0.936  12.660  18.891  0.00  0.00    +0.000 A 
ATOM     14  C   UNL     1       2.275  12.630  18.496  0.00  0.00    +0.000 A 
ATOM     15  C   UNL     1       2.974  13.826  18.329  0.00  0.00    +0.000 A 
ATOM     16  C   UNL     1       2.307  15.019  18.560  0.00  0.00    +0.000 A 
ATOM     17  N   UNL     1       1.018  15.092  18.944  0.00  0.00    +0.000 NA
ATOM     18  C   UNL     1       0.371  13.918  19.106  0.00  0.00    +0.000 A 
ENDBRANCH  12  13
ENDBRANCH   4  12
ENDBRANCH   2   9
ENDBRANCH   1   2
BRANCH   1  19
ATOM     19  C   UNL     1       4.706   4.127  16.513  0.00  0.00    +0.000 C 
BRANCH  19  20
ATOM     20  C   UNL     1       6.172   4.323  16.124  0.00  0.00    +0.000 C 
BRANCH  20  21
ATOM     21  C   UNL     1       6.953   5.023  17.183  0.00  0.00    +0.000 A 
ATOM     22  N   UNL     1       7.248   4.537  18.376  0.00  0.00    +0.000 NA
ATOM     23  N   UNL     1       7.929   5.465  19.147  0.00  0.00    +0.000 NA
ATOM     24  C   UNL     1       8.068   6.617  18.528  0.00  0.00    +0.000 A 
ATOM     25  N   UNL     1       8.616   7.744  19.103  0.00  0.00    +0.000 N 
ATOM     26  C   UNL     1       8.480   9.018  18.598  0.00  0.00    +0.000 C 
ATOM     27  O   UNL     1       7.840   9.345  17.599  0.00  0.00    +0.000 OA
ATOM     28  S   UNL     1       7.562   6.593  16.900  0.00  0.00    +0.000 S 
ATOM     29  H   UNL     1       8.948   7.601  20.049  0.00  0.00    +0.000 HD
BRANCH  26  30
ATOM     30  C   UNL     1       9.163  10.089  19.421  0.00  0.00    +0.000 C 
BRANCH  30  31
ATOM     31  C   UNL     1       9.728  11.232  18.622  0.00  0.00    +0.000 A 
ATOM     32  C   UNL     1       8.912  12.322  18.300  0.00  0.00    +0.000 A 
ATOM     33  C   UNL     1       9.433  13.394  17.583  0.00  0.00    +0.000 A 
ATOM     34  C   UNL     1      10.766  13.352  17.215  0.00  0.00    +0.000 A 
ATOM     35  N   UNL     1      11.594  12.335  17.531  0.00  0.00    +0.000 NA
ATOM     36  C   UNL     1      11.066  11.311  18.240  0.00  0.00    +0.000 A 
ENDBRANCH  30  31
ENDBRANCH  26  30
ENDBRANCH  20  21
ENDBRANCH  19  20
ENDBRANCH   1  19
TORSDOF 9
ENDMDL
MODEL 4
REMARK VINA RESULT:      -7.9      3.348      8.425
REMARK  Name = 
REMARK  9 active torsions:
REMARK  status: ('A' for Active; 'I' for Inactive)
REMARK    1  A    between atoms: C_2  and  C_3
REMARK    2  A    between atoms: C_3  and  C_4
REMARK    3  A    between atoms: C_14  and  C_15
REMARK    4  A    between atoms: C_15  and  C_16
REMARK    5  A    between atoms: C_16  and  C_17
REMARK    6  A    between atoms: C_17  and  C_18
REMARK    7  A    between atoms: C_18  and  C_19
REMARK    8  A    between atoms: C_24  and  C_26
REMARK    9  A    between atoms: C_26  and  C_27
REMARK                            x       y       z     vdW  Elec       q    Type
REMARK                         _______ _______ _______ _____ _____    ______ ____
ROOT
ATOM      1  C   UNL     1       8.068   9.596  18.272  0.00  0.00    +0.000 C 
ENDROOT
BRANCH   1   2
ATOM      2  C   UNL     1       8.123   8.440  17.268  0.00  0.00    +0.000 C 
BRANCH   2   9
ATOM      3  O   UNL     1       4.582   4.094  16.369  0.00  0.00    +0.000 OA
ATOM      4  C   UNL     1       4.722   3.621  17.495  0.00  0.00    +0.000 C 
ATOM      5  N   UNL     1       5.631   4.040  18.442  0.00  0.00    +0.000 N 
ATOM      6  C   UNL     1       6.460   5.133  18.329  0.00  0.00    +0.000 A 
ATOM      7  N   UNL     1       7.459   5.348  19.156  0.00  0.00    +0.000 NA
ATOM      8  N   UNL     1       8.151   6.501  18.845  0.00  0.00    +0.000 NA
ATOM      9  C   UNL     1       7.609   7.153  17.836  0.00  0.00    +0.000 A 
ATOM     10  S   UNL     1       6.216   6.381  17.191  0.00  0.00    +0.000 S 
ATOM     11  H   UNL     1       5.829   3.475  19.257  0.00  0.00    +0.000 HD
BRANCH   4  12
ATOM     12  C   UNL     1       3.844   2.480  17.980  0.00  0.00    +0.000 C 
BRANCH  12  13
ATOM     13  C   UNL     1       2.969   2.746  19.179  0.00  0.00    +0.000 A 
ATOM     14  C   UNL     1       3.306   2.467  20.505  0.00  0.00    +0.000 A 
ATOM     15  C   UNL     1       2.407   2.778  21.526  0.00  0.00    +0.000 A 
ATOM     16  C   UNL     1       1.198   3.365  21.187  0.00  0.00    +0.000 A 
ATOM     17  N   UNL     1       0.835   3.649  19.920  0.00  0.00    +0.000 NA
ATOM     18  C   UNL     1       1.720   3.328  18.954  0.00  0.00    +0.000 A 
ENDBRANCH  12  13
ENDBRANCH   4  12
ENDBRANCH   2   9
ENDBRANCH   1   2
BRANCH   1  19
ATOM     19  C   UNL     1       9.356   9.820  19.079  0.00  0.00    +0.000 C 
BRANCH  19  20
ATOM     20  C   UNL     1      10.073  11.137  18.782  0.00  0.00    +0.000 C 
BRANCH  20  21
ATOM     21  C   UNL     1       9.380  12.311  19.383  0.00  0.00    +0.000 A 
ATOM     22  N   UNL     1       9.346  12.614  20.670  0.00  0.00    +0.000 NA
ATOM     23  N   UNL     1       8.561  13.732  20.905  0.00  0.00    +0.000 NA
ATOM     24  C   UNL     1       7.999  14.185  19.806  0.00  0.00    +0.000 A 
ATOM     25  N   UNL     1       7.091  15.221  19.771  0.00  0.00    +0.000 N 
ATOM     26  C   UNL     1       6.264  15.492  18.704  0.00  0.00    +0.000 C 
ATOM     27  O   UNL     1       6.187  14.852  17.655  0.00  0.00    +0.000 OA
ATOM     28  S   UNL     1       8.539  13.412  18.385  0.00  0.00    +0.000 S 
ATOM     29  H   UNL     1       6.916  15.643  20.674  0.00  0.00    +0.000 HD
BRANCH  26  30
ATOM     30  C   UNL     1       5.345  16.676  18.916  0.00  0.00    +0.000 C 
BRANCH  30  31
ATOM     31  C   UNL     1       4.021  16.340  19.548  0.00  0.00    +0.000 A 
ATOM     32  C   UNL     1       3.099  17.359  19.808  0.00  0.00    +0.000 A 
ATOM     33  C   UNL     1       1.863  17.053  20.369  0.00  0.00    +0.000 A 
ATOM     34  C   UNL     1       1.578  15.728  20.646  0.00  0.00    +0.000 A 
ATOM     35  N   UNL     1       2.427  14.713  20.384  0.00  0.00    +0.000 NA
ATOM     36  C   UNL     1       3.616  15.035  19.825  0.00  0.00    +0.000 A 
ENDBRANCH  30  31
ENDBRANCH  26  30
ENDBRANCH  20  21
ENDBRANCH  19  20
ENDBRANCH   1  19
TORSDOF 9
ENDMDL
MODEL 5
REMARK VINA RESULT:      -7.9      2.013      2.522
REMARK  Name = 
REMARK  9 active torsions:
REMARK  status: ('A' for Active; 'I' for Inactive)
REMARK    1  A    between atoms: C_2  and  C_3
REMARK    2  A    between atoms: C_3  and  C_4
REMARK    3  A    between atoms: C_14  and  C_15
REMARK    4  A    between atoms: C_15  and  C_16
REMARK    5  A    between atoms: C_16  and  C_17
REMARK    6  A    between atoms: C_17  and  C_18
REMARK    7  A    between atoms: C_18  and  C_19
REMARK    8  A    between atoms: C_24  and  C_26
REMARK    9  A    between atoms: C_26  and  C_27
REMARK                            x       y       z     vdW  Elec       q    Type
REMARK                         _______ _______ _______ _____ _____    ______ ____
ROOT
ATOM      1  C   UNL     1       4.581   5.102  16.478  0.00  0.00    +0.000 C 
ENDROOT
BRANCH   1   2
ATOM      2  C   UNL     1       5.985   4.518  16.662  0.00  0.00    +0.000 C 
BRANCH   2   9
ATOM      3  O   UNL     1       7.899   9.772  17.648  0.00  0.00    +0.000 OA
ATOM      4  C   UNL     1       8.705   9.422  18.508  0.00  0.00    +0.000 C 
ATOM      5  N   UNL     1       8.811   8.158  19.050  0.00  0.00    +0.000 N 
ATOM      6  C   UNL     1       8.111   7.048  18.639  0.00  0.00    +0.000 A 
ATOM      7  N   UNL     1       8.084   5.934  19.337  0.00  0.00    +0.000 NA
ATOM      8  N   UNL     1       7.316   4.960  18.731  0.00  0.00    +0.000 NA
ATOM      9  C   UNL     1       6.845   5.350  17.563  0.00  0.00    +0.000 A 
ATOM     10  S   UNL     1       7.305   6.949  17.138  0.00  0.00    +0.000 S 
ATOM     11  H   UNL     1       9.349   8.000  19.892  0.00  0.00    +0.000 HD
BRANCH   4  12
ATOM     12  C   UNL     1       9.724  10.397  19.070  0.00  0.00    +0.000 C 
BRANCH  12  13
ATOM     13  C   UNL     1       9.222  11.434  20.042  0.00  0.00    +0.000 A 
ATOM     14  C   UNL     1       8.963  12.772  19.736  0.00  0.00    +0.000 A 
ATOM     15  C   UNL     1       8.484  13.627  20.729  0.00  0.00    +0.000 A 
ATOM     16  C   UNL     1       8.275  13.114  22.000  0.00  0.00    +0.000 A 
ATOM     17  N   UNL     1       8.514  11.831  22.336  0.00  0.00    +0.000 NA
ATOM     18  C   UNL     1       8.985  11.030  21.357  0.00  0.00    +0.000 A 
ENDBRANCH  12  13
ENDBRANCH   4  12
ENDBRANCH   2   9
ENDBRANCH   1   2
BRANCH   1  19
ATOM     19  C   UNL     1       3.473   4.399  17.277  0.00  0.00    +0.000 C 
BRANCH  19  20
ATOM     20  C   UNL     1       3.633   4.481  18.796  0.00  0.00    +0.000 C 
BRANCH  20  21
ATOM     21  C   UNL     1       2.916   5.648  19.382  0.00  0.00    +0.000 A 
ATOM     22  N   UNL     1       2.198   5.637  20.492  0.00  0.00    +0.000 NA
ATOM     23  N   UNL     1       1.609   6.869  20.726  0.00  0.00    +0.000 NA
ATOM     24  C   UNL     1       1.861   7.730  19.764  0.00  0.00    +0.000 A 
ATOM     25  N   UNL     1       1.315   8.994  19.693  0.00  0.00    +0.000 N 
ATOM     26  C   UNL     1       1.307   9.774  18.559  0.00  0.00    +0.000 C 
ATOM     27  O   UNL     1       1.747   9.462  17.452  0.00  0.00    +0.000 OA
ATOM     28  S   UNL     1       2.989   7.171  18.614  0.00  0.00    +0.000 S 
ATOM     29  H   UNL     1       0.722   9.229  20.480  0.00  0.00    +0.000 HD
BRANCH  26  30
ATOM     30  C   UNL     1       0.634  11.119  18.734  0.00  0.00    +0.000 C 
BRANCH  30  31
ATOM     31  C   UNL     1       1.562  12.241  19.115  0.00  0.00    +0.000 A 
ATOM     32  C   UNL     1       1.566  12.720  20.429  0.00  0.00    +0.000 A 
ATOM     33  C   UNL     1       2.437  13.741  20.795  0.00  0.00    +0.000 A 
ATOM     34  C   UNL     1       3.293  14.249  19.835  0.00  0.00    +0.000 A 
ATOM     35  N   UNL     1       3.342  13.796  18.566  0.00  0.00    +0.000 NA
ATOM     36  C   UNL     1       2.494  12.794  18.238  0.00  0.00    +0.000 A 
ENDBRANCH  30  31
ENDBRANCH  26  30
ENDBRANCH  20  21
ENDBRANCH  19  20
ENDBRANCH   1  19
TORSDOF 9
ENDMDL
MODEL 6
REMARK VINA RESULT:      -7.7      3.280      8.447
REMARK  Name = 
REMARK  9 active torsions:
REMARK  status: ('A' for Active; 'I' for Inactive)
REMARK    1  A    between atoms: C_2  and  C_3
REMARK    2  A    between atoms: C_3  and  C_4
REMARK    3  A    between atoms: C_14  and  C_15
REMARK    4  A    between atoms: C_15  and  C_16
REMARK    5  A    between atoms: C_16  and  C_17
REMARK    6  A    between atoms: C_17  and  C_18
REMARK    7  A    between atoms: C_18  and  C_19
REMARK    8  A    between atoms: C_24  and  C_26
REMARK    9  A    between atoms: C_26  and  C_27
REMARK                            x       y       z     vdW  Elec       q    Type
REMARK                         _______ _______ _______ _____ _____    ______ ____
ROOT
ATOM      1  C   UNL     1       0.010  11.185  22.177  0.00  0.00    +0.000 C 
ENDROOT
BRANCH   1   2
ATOM      2  C   UNL     1      -0.510  10.011  21.342  0.00  0.00    +0.000 C 
BRANCH   2   9
ATOM      3  O   UNL     1       2.315   5.707  18.949  0.00  0.00    +0.000 OA
ATOM      4  C   UNL     1       2.957   6.425  18.186  0.00  0.00    +0.000 C 
ATOM      5  N   UNL     1       2.765   7.776  17.992  0.00  0.00    +0.000 N 
ATOM      6  C   UNL     1       1.896   8.572  18.703  0.00  0.00    +0.000 A 
ATOM      7  N   UNL     1       1.589   9.793  18.324  0.00  0.00    +0.000 NA
ATOM      8  N   UNL     1       0.698  10.396  19.188  0.00  0.00    +0.000 NA
ATOM      9  C   UNL     1       0.417   9.636  20.227  0.00  0.00    +0.000 A 
ATOM     10  S   UNL     1       1.220   8.117  20.202  0.00  0.00    +0.000 S 
ATOM     11  H   UNL     1       3.186   8.252  17.205  0.00  0.00    +0.000 HD
BRANCH   4  12
ATOM     12  C   UNL     1       4.097   5.863  17.355  0.00  0.00    +0.000 C 
BRANCH  12  13
ATOM     13  C   UNL     1       5.493   6.023  17.902  0.00  0.00    +0.000 A 
ATOM     14  C   UNL     1       6.495   6.820  17.345  0.00  0.00    +0.000 A 
ATOM     15  C   UNL     1       7.743   6.893  17.964  0.00  0.00    +0.000 A 
ATOM     16  C   UNL     1       7.950   6.166  19.126  0.00  0.00    +0.000 A 
ATOM     17  N   UNL     1       7.011   5.384  19.694  0.00  0.00    +0.000 NA
ATOM     18  C   UNL     1       5.816   5.327  19.069  0.00  0.00    +0.000 A 
ENDBRANCH  12  13
ENDBRANCH   4  12
ENDBRANCH   2   9
ENDBRANCH   1   2
BRANCH   1  19
ATOM     19  C   UNL     1      -0.764  12.501  22.004  0.00  0.00    +0.000 C 
BRANCH  19  20
ATOM     20  C   UNL     1      -0.277  13.380  20.852  0.00  0.00    +0.000 C 
BRANCH  20  21
ATOM     21  C   UNL     1       1.134  13.825  21.032  0.00  0.00    +0.000 A 
ATOM     22  N   UNL     1       1.658  14.301  22.148  0.00  0.00    +0.000 NA
ATOM     23  N   UNL     1       2.977  14.686  21.964  0.00  0.00    +0.000 NA
ATOM     24  C   UNL     1       3.368  14.536  20.717  0.00  0.00    +0.000 A 
ATOM     25  N   UNL     1       4.597  14.935  20.238  0.00  0.00    +0.000 N 
ATOM     26  C   UNL     1       4.899  15.082  18.902  0.00  0.00    +0.000 C 
ATOM     27  O   UNL     1       4.131  14.914  17.955  0.00  0.00    +0.000 OA
ATOM     28  S   UNL     1       2.233  13.735  19.729  0.00  0.00    +0.000 S 
ATOM     29  H   UNL     1       5.206  15.326  20.946  0.00  0.00    +0.000 HD
BRANCH  26  30
ATOM     30  C   UNL     1       6.314  15.547  18.633  0.00  0.00    +0.000 C 
BRANCH  30  31
ATOM     31  C   UNL     1       7.340  14.446  18.585  0.00  0.00    +0.000 A 
ATOM     32  C   UNL     1       8.173  14.227  19.687  0.00  0.00    +0.000 A 
ATOM     33  C   UNL     1       9.106  13.196  19.660  0.00  0.00    +0.000 A 
ATOM     34  C   UNL     1       9.173  12.401  18.530  0.00  0.00    +0.000 A 
ATOM     35  N   UNL     1       8.368  12.559  17.459  0.00  0.00    +0.000 NA
ATOM     36  C   UNL     1       7.460  13.559  17.516  0.00  0.00    +0.000 A 
ENDBRANCH  30  31
ENDBRANCH  26  30
ENDBRANCH  20  21
ENDBRANCH  19  20
ENDBRANCH   1  19
TORSDOF 9
ENDMDL
MODEL 7
REMARK VINA RESULT:      -7.6      3.435     10.360
REMARK  Name = 
REMARK  9 active torsions:
REMARK  status: ('A' for Active; 'I' for Inactive)
REMARK    1  A    between atoms: C_2  and  C_3
REMARK    2  A    between atoms: C_3  and  C_4
REMARK    3  A    between atoms: C_14  and  C_15
REMARK    4  A    between atoms: C_15  and  C_16
REMARK    5  A    between atoms: C_16  and  C_17
REMARK    6  A    between atoms: C_17  and  C_18
REMARK    7  A    between atoms: C_18  and  C_19
REMARK    8  A    between atoms: C_24  and  C_26
REMARK    9  A    between atoms: C_26  and  C_27
REMARK                            x       y       z     vdW  Elec       q    Type
REMARK                         _______ _______ _______ _____ _____    ______ ____
ROOT
ATOM      1  C   UNL     1      -0.361  13.523  19.553  0.00  0.00    +0.000 C 
ENDROOT
BRANCH   1   2
ATOM      2  C   UNL     1      -1.018  12.195  19.164  0.00  0.00    +0.000 C 
BRANCH   2   9
ATOM      3  O   UNL     1       2.804   8.212  17.835  0.00  0.00    +0.000 OA
ATOM      4  C   UNL     1       2.631   7.564  18.865  0.00  0.00    +0.000 C 
ATOM      5  N   UNL     1       1.865   7.950  19.944  0.00  0.00    +0.000 N 
ATOM      6  C   UNL     1       1.076   9.075  20.006  0.00  0.00    +0.000 A 
ATOM      7  N   UNL     1       0.555   9.509  21.133  0.00  0.00    +0.000 NA
ATOM      8  N   UNL     1      -0.195  10.653  20.951  0.00  0.00    +0.000 NA
ATOM      9  C   UNL     1      -0.272  11.004  19.683  0.00  0.00    +0.000 A 
ATOM     10  S   UNL     1       0.589   9.956  18.629  0.00  0.00    +0.000 S 
ATOM     11  H   UNL     1       1.938   7.466  20.830  0.00  0.00    +0.000 HD
BRANCH   4  12
ATOM     12  C   UNL     1       3.262   6.194  19.044  0.00  0.00    +0.000 C 
BRANCH  12  13
ATOM     13  C   UNL     1       2.329   5.023  19.214  0.00  0.00    +0.000 A 
ATOM     14  C   UNL     1       1.805   4.574  20.428  0.00  0.00    +0.000 A 
ATOM     15  C   UNL     1       0.936   3.483  20.444  0.00  0.00    +0.000 A 
ATOM     16  C   UNL     1       0.614   2.875  19.241  0.00  0.00    +0.000 A 
ATOM     17  N   UNL     1       1.099   3.276  18.049  0.00  0.00    +0.000 NA
ATOM     18  C   UNL     1       1.944   4.328  18.066  0.00  0.00    +0.000 A 
ENDBRANCH  12  13
ENDBRANCH   4  12
ENDBRANCH   2   9
ENDBRANCH   1   2
BRANCH   1  19
ATOM     19  C   UNL     1       1.173  13.491  19.639  0.00  0.00    +0.000 C 
BRANCH  19  20
ATOM     20  C   UNL     1       1.823  14.845  19.922  0.00  0.00    +0.000 C 
BRANCH  20  21
ATOM     21  C   UNL     1       3.003  15.104  19.049  0.00  0.00    +0.000 A 
ATOM     22  N   UNL     1       2.972  15.294  17.741  0.00  0.00    +0.000 NA
ATOM     23  N   UNL     1       4.248  15.442  17.221  0.00  0.00    +0.000 NA
ATOM     24  C   UNL     1       5.178  15.304  18.140  0.00  0.00    +0.000 A 
ATOM     25  N   UNL     1       6.531  15.303  17.878  0.00  0.00    +0.000 N 
ATOM     26  C   UNL     1       7.491  14.847  18.754  0.00  0.00    +0.000 C 
ATOM     27  O   UNL     1       7.294  14.355  19.865  0.00  0.00    +0.000 OA
ATOM     28  S   UNL     1       4.568  15.184  19.728  0.00  0.00    +0.000 S 
ATOM     29  H   UNL     1       6.760  15.460  16.904  0.00  0.00    +0.000 HD
BRANCH  26  30
ATOM     30  C   UNL     1       8.907  14.938  18.226  0.00  0.00    +0.000 C 
BRANCH  30  31
ATOM     31  C   UNL     1       9.795  13.783  18.606  0.00  0.00    +0.000 A 
ATOM     32  C   UNL     1       9.791  12.621  17.828  0.00  0.00    +0.000 A 
ATOM     33  C   UNL     1      10.628  11.560  18.158  0.00  0.00    +0.000 A 
ATOM     34  C   UNL     1      11.457  11.695  19.257  0.00  0.00    +0.000 A 
ATOM     35  N   UNL     1      11.513  12.810  20.015  0.00  0.00    +0.000 NA
ATOM     36  C   UNL     1      10.701  13.832  19.665  0.00  0.00    +0.000 A 
ENDBRANCH  30  31
ENDBRANCH  26  30
ENDBRANCH  20  21
ENDBRANCH  19  20
ENDBRANCH   1  19
TORSDOF 9
ENDMDL
MODEL 8
REMARK VINA RESULT:      -7.5      1.730      2.123
REMARK  Name = 
REMARK  9 active torsions:
REMARK  status: ('A' for Active; 'I' for Inactive)
REMARK    1  A    between atoms: C_2  and  C_3
REMARK    2  A    between atoms: C_3  and  C_4
REMARK    3  A    between atoms: C_14  and  C_15
REMARK    4  A    between atoms: C_15  and  C_16
REMARK    5  A    between atoms: C_16  and  C_17
REMARK    6  A    between atoms: C_17  and  C_18
REMARK    7  A    between atoms: C_18  and  C_19
REMARK    8  A    between atoms: C_24  and  C_26
REMARK    9  A    between atoms: C_26  and  C_27
REMARK                            x       y       z     vdW  Elec       q    Type
REMARK                         _______ _______ _______ _____ _____    ______ ____
ROOT
ATOM      1  C   UNL     1       4.510   2.857  17.718  0.00  0.00    +0.000 C 
ENDROOT
BRANCH   1   2
ATOM      2  C   UNL     1       5.448   3.704  18.584  0.00  0.00    +0.000 C 
BRANCH   2   9
ATOM      3  O   UNL     1       8.802   8.263  19.024  0.00  0.00    +0.000 OA
ATOM      4  C   UNL     1       8.288   8.853  18.076  0.00  0.00    +0.000 C 
ATOM      5  N   UNL     1       7.358   8.328  17.204  0.00  0.00    +0.000 N 
ATOM      6  C   UNL     1       6.763   7.093  17.315  0.00  0.00    +0.000 A 
ATOM      7  N   UNL     1       6.064   6.558  16.338  0.00  0.00    +0.000 NA
ATOM      8  N   UNL     1       5.568   5.315  16.676  0.00  0.00    +0.000 NA
ATOM      9  C   UNL     1       5.852   4.984  17.920  0.00  0.00    +0.000 A 
ATOM     10  S   UNL     1       6.764   6.177  18.755  0.00  0.00    +0.000 S 
ATOM     11  H   UNL     1       7.141   8.798  16.334  0.00  0.00    +0.000 HD
BRANCH   4  12
ATOM     12  C   UNL     1       8.635  10.300  17.773  0.00  0.00    +0.000 C 
BRANCH  12  13
ATOM     13  C   UNL     1       9.678  10.955  18.642  0.00  0.00    +0.000 A 
ATOM     14  C   UNL     1       9.506  11.320  19.979  0.00  0.00    +0.000 A 
ATOM     15  C   UNL     1      10.563  11.906  20.676  0.00  0.00    +0.000 A 
ATOM     16  C   UNL     1      11.763  12.107  20.013  0.00  0.00    +0.000 A 
ATOM     17  N   UNL     1      11.969  11.772  18.724  0.00  0.00    +0.000 NA
ATOM     18  C   UNL     1      10.927  11.215  18.073  0.00  0.00    +0.000 A 
ENDBRANCH  12  13
ENDBRANCH   4  12
ENDBRANCH   2   9
ENDBRANCH   1   2
BRANCH   1  19
ATOM     19  C   UNL     1       3.545   3.656  16.829  0.00  0.00    +0.000 C 
BRANCH  19  20
ATOM     20  C   UNL     1       2.088   3.639  17.294  0.00  0.00    +0.000 C 
BRANCH  20  21
ATOM     21  C   UNL     1       1.916   4.238  18.648  0.00  0.00    +0.000 A 
ATOM     22  N   UNL     1       1.510   3.597  19.731  0.00  0.00    +0.000 NA
ATOM     23  N   UNL     1       1.393   4.456  20.812  0.00  0.00    +0.000 NA
ATOM     24  C   UNL     1       1.659   5.702  20.487  0.00  0.00    +0.000 A 
ATOM     25  N   UNL     1       1.520   6.773  21.345  0.00  0.00    +0.000 N 
ATOM     26  C   UNL     1       1.482   8.089  20.943  0.00  0.00    +0.000 C 
ATOM     27  O   UNL     1       1.534   8.504  19.785  0.00  0.00    +0.000 OA
ATOM     28  S   UNL     1       2.262   5.890  18.903  0.00  0.00    +0.000 S 
ATOM     29  H   UNL     1       1.228   6.514  22.279  0.00  0.00    +0.000 HD
BRANCH  26  30
ATOM     30  C   UNL     1       1.307   9.079  22.075  0.00  0.00    +0.000 C 
BRANCH  30  31
ATOM     31  C   UNL     1       0.190  10.069  21.878  0.00  0.00    +0.000 A 
ATOM     32  C   UNL     1      -0.499  10.564  22.990  0.00  0.00    +0.000 A 
ATOM     33  C   UNL     1      -1.516  11.498  22.818  0.00  0.00    +0.000 A 
ATOM     34  C   UNL     1      -1.809  11.921  21.535  0.00  0.00    +0.000 A 
ATOM     35  N   UNL     1      -1.149  11.491  20.440  0.00  0.00    +0.000 NA
ATOM     36  C   UNL     1      -0.155  10.595  20.634  0.00  0.00    +0.000 A 
ENDBRANCH  30  31
ENDBRANCH  26  30
ENDBRANCH  20  21
ENDBRANCH  19  20
ENDBRANCH   1  19
TORSDOF 9
ENDMDL
MODEL 9
REMARK VINA RESULT:      -7.5      3.496     10.113
REMARK  Name = 
REMARK  9 active torsions:
REMARK  status: ('A' for Active; 'I' for Inactive)
REMARK    1  A    between atoms: C_2  and  C_3
REMARK    2  A    between atoms: C_3  and  C_4
REMARK    3  A    between atoms: C_14  and  C_15
REMARK    4  A    between atoms: C_15  and  C_16
REMARK    5  A    between atoms: C_16  and  C_17
REMARK    6  A    between atoms: C_17  and  C_18
REMARK    7  A    between atoms: C_18  and  C_19
REMARK    8  A    between atoms: C_24  and  C_26
REMARK    9  A    between atoms: C_26  and  C_27
REMARK                            x       y       z     vdW  Elec       q    Type
REMARK                         _______ _______ _______ _____ _____    ______ ____
ROOT
ATOM      1  C   UNL     1      -0.861  12.396  18.815  0.00  0.00    +0.000 C 
ENDROOT
BRANCH   1   2
ATOM      2  C   UNL     1      -1.040  12.078  20.303  0.00  0.00    +0.000 C 
BRANCH   2   9
ATOM      3  O   UNL     1       2.272   7.812  18.551  0.00  0.00    +0.000 OA
ATOM      4  C   UNL     1       2.384   7.311  19.668  0.00  0.00    +0.000 C 
ATOM      5  N   UNL     1       1.942   7.865  20.850  0.00  0.00    +0.000 N 
ATOM      6  C   UNL     1       1.200   9.017  20.968  0.00  0.00    +0.000 A 
ATOM      7  N   UNL     1       1.006   9.615  22.123  0.00  0.00    +0.000 NA
ATOM      8  N   UNL     1       0.236  10.753  21.996  0.00  0.00    +0.000 NA
ATOM      9  C   UNL     1      -0.182  10.938  20.760  0.00  0.00    +0.000 A 
ATOM     10  S   UNL     1       0.359   9.728  19.666  0.00  0.00    +0.000 S 
ATOM     11  H   UNL     1       2.252   7.499  21.742  0.00  0.00    +0.000 HD
BRANCH   4  12
ATOM     12  C   UNL     1       3.039   5.954  19.856  0.00  0.00    +0.000 C 
BRANCH  12  13
ATOM     13  C   UNL     1       2.203   4.738  19.549  0.00  0.00    +0.000 A 
ATOM     14  C   UNL     1       1.429   4.033  20.472  0.00  0.00    +0.000 A 
ATOM     15  C   UNL     1       0.686   2.929  20.051  0.00  0.00    +0.000 A 
ATOM     16  C   UNL     1       0.739   2.566  18.714  0.00  0.00    +0.000 A 
ATOM     17  N   UNL     1       1.475   3.219  17.793  0.00  0.00    +0.000 NA
ATOM     18  C   UNL     1       2.189   4.276  18.231  0.00  0.00    +0.000 A 
ENDBRANCH  12  13
ENDBRANCH   4  12
ENDBRANCH   2   9
ENDBRANCH   1   2
BRANCH   1  19
ATOM     19  C   UNL     1      -0.142  13.720  18.514  0.00  0.00    +0.000 C 
BRANCH  19  20
ATOM     20  C   UNL     1       0.676  14.280  19.678  0.00  0.00    +0.000 C 
BRANCH  20  21
ATOM     21  C   UNL     1       2.011  14.781  19.247  0.00  0.00    +0.000 A 
ATOM     22  N   UNL     1       2.332  15.177  18.027  0.00  0.00    +0.000 NA
ATOM     23  N   UNL     1       3.672  15.522  17.943  0.00  0.00    +0.000 NA
ATOM     24  C   UNL     1       4.308  15.321  19.077  0.00  0.00    +0.000 A 
ATOM     25  N   UNL     1       5.666  15.484  19.242  0.00  0.00    +0.000 N 
ATOM     26  C   UNL     1       6.385  14.981  20.303  0.00  0.00    +0.000 C 
ATOM     27  O   UNL     1       5.946  14.300  21.229  0.00  0.00    +0.000 OA
ATOM     28  S   UNL     1       3.288  14.891  20.374  0.00  0.00    +0.000 S 
ATOM     29  H   UNL     1       6.143  15.817  18.413  0.00  0.00    +0.000 HD
BRANCH  26  30
ATOM     30  C   UNL     1       7.868  15.283  20.248  0.00  0.00    +0.000 C 
BRANCH  30  31
ATOM     31  C   UNL     1       8.729  14.131  19.802  0.00  0.00    +0.000 A 
ATOM     32  C   UNL     1       8.576  13.611  18.513  0.00  0.00    +0.000 A 
ATOM     33  C   UNL     1       9.385  12.563  18.085  0.00  0.00    +0.000 A 
ATOM     34  C   UNL     1      10.336  12.069  18.958  0.00  0.00    +0.000 A 
ATOM     35  N   UNL     1      10.536  12.562  20.198  0.00  0.00    +0.000 NA
ATOM     36  C   UNL     1       9.747  13.590  20.585  0.00  0.00    +0.000 A 
ENDBRANCH  30  31
ENDBRANCH  26  30
ENDBRANCH  20  21
ENDBRANCH  19  20
ENDBRANCH   1  19
TORSDOF 9
ENDMDL
