MODEL 1
REMARK VINA RESULT:      -8.4      0.000      0.000
REMARK  Name = 
REMARK  6 active torsions:
REMARK  status: ('A' for Active; 'I' for Inactive)
REMARK    1  A    between atoms: C_1  and  C_2
REMARK    2  A    between atoms: C_7  and  N_8
REMARK    3  A    between atoms: N_8  and  C_9
REMARK    4  A    between atoms: C_9  and  N_11
REMARK    5  A    between atoms: N_11  and  N_12
REMARK    6  A    between atoms: C_13  and  C_14
REMARK                            x       y       z     vdW  Elec       q    Type
REMARK                         _______ _______ _______ _____ _____    ______ ____
ROOT
ATOM      1  N   UNL     1       3.350   3.719  19.797  0.00  0.00    +0.000 N 
ATOM      2  H   UNL     1       3.059   3.328  20.664  0.00  0.00    +0.000 HD
ENDROOT
BRANCH   1   3
ATOM      3  C   UNL     1       4.233   3.100  18.945  0.00  0.00    +0.000 C 
ATOM      4  S   UNL     1       3.231   2.001  18.158  0.00  0.00    +0.000 S 
BRANCH   3   5
ATOM      5  N   UNL     1       5.621   3.483  18.941  0.00  0.00    +0.000 N 
ATOM      6  H   UNL     1       6.327   2.832  19.298  0.00  0.00    +0.000 HD
BRANCH   5  13
ATOM      7  C   UNL     1       4.767   4.812  16.442  0.00  0.00    +0.000 C 
ATOM      8  C   UNL     1       5.798   5.359  17.288  0.00  0.00    +0.000 A 
ATOM      9  C   UNL     1       6.313   6.528  16.789  0.00  0.00    +0.000 A 
ATOM     10  C   UNL     1       7.309   7.151  17.470  0.00  0.00    +0.000 A 
ATOM     11  C   UNL     1       7.784   6.594  18.643  0.00  0.00    +0.000 A 
ATOM     12  C   UNL     1       7.234   5.401  19.145  0.00  0.00    +0.000 A 
ATOM     13  C   UNL     1       6.212   4.737  18.466  0.00  0.00    +0.000 A 
ENDBRANCH   5  13
ENDBRANCH   3   5
ENDBRANCH   1   3
BRANCH   1  14
ATOM     14  N   UNL     1       2.817   4.977  19.397  0.00  0.00    +0.000 NA
ATOM     15  C   UNL     1       2.874   6.062  20.069  0.00  0.00    +0.000 C 
BRANCH  15  16
ATOM     16  C   UNL     1       2.261   7.326  19.542  0.00  0.00    +0.000 A 
ATOM     17  C   UNL     1       2.485   7.585  18.173  0.00  0.00    +0.000 A 
ATOM     18  C   UNL     1       1.974   8.744  17.599  0.00  0.00    +0.000 A 
ATOM     19  C   UNL     1       1.253   9.637  18.362  0.00  0.00    +0.000 A 
ATOM     20  C   UNL     1       1.002   9.395  19.695  0.00  0.00    +0.000 A 
ATOM     21  C   UNL     1       0.264  10.325  20.355  0.00  0.00    +0.000 A 
ATOM     22  C   UNL     1       0.077  10.021  21.660  0.00  0.00    +0.000 A 
ATOM     23  C   UNL     1      -0.120   9.757  22.878  0.00  0.00    +0.000 A 
ATOM     24  C   UNL     1       0.930   8.500  21.927  0.00  0.00    +0.000 A 
ATOM     25  C   UNL     1       1.461   8.293  20.398  0.00  0.00    +0.000 A 
ENDBRANCH  15  16
ENDBRANCH   1  14
TORSDOF 5
ENDMDL
MODEL 2
REMARK VINA RESULT:      -8.2      4.045      8.167
REMARK  Name = 
REMARK  6 active torsions:
REMARK  status: ('A' for Active; 'I' for Inactive)
REMARK    1  A    between atoms: C_1  and  C_2
REMARK    2  A    between atoms: C_7  and  N_8
REMARK    3  A    between atoms: N_8  and  C_9
REMARK    4  A    between atoms: C_9  and  N_11
REMARK    5  A    between atoms: N_11  and  N_12
REMARK    6  A    between atoms: C_13  and  C_14
REMARK                            x       y       z     vdW  Elec       q    Type
REMARK                         _______ _______ _______ _____ _____    ______ ____
ROOT
ATOM      1  N   UNL     1       1.617  10.154  17.847  0.00  0.00    +0.000 N 
ATOM      2  H   UNL     1       2.083  11.025  17.728  0.00  0.00    +0.000 HD
ENDROOT
BRANCH   1   3
ATOM      3  C   UNL     1       0.329  10.041  18.311  0.00  0.00    +0.000 C 
ATOM      4  S   UNL     1       0.559  10.123  19.976  0.00  0.00    +0.000 S 
BRANCH   3   5
ATOM      5  N   UNL     1      -0.762   9.890  17.383  0.00  0.00    +0.000 N 
ATOM      6  H   UNL     1      -0.650   9.282  16.566  0.00  0.00    +0.000 HD
BRANCH   5  13
ATOM      7  C   UNL     1      -2.650   9.838  15.108  0.00  0.00    +0.000 C 
ATOM      8  C   UNL     1      -2.976  10.472  16.361  0.00  0.00    +0.000 A 
ATOM      9  C   UNL     1      -4.227  11.032  16.350  0.00  0.00    +0.000 A 
ATOM     10  C   UNL     1      -4.666  11.684  17.457  0.00  0.00    +0.000 A 
ATOM     11  C   UNL     1      -3.843  11.772  18.565  0.00  0.00    +0.000 A 
ATOM     12  C   UNL     1      -2.568  11.180  18.563  0.00  0.00    +0.000 A 
ATOM     13  C   UNL     1      -2.089  10.507  17.439  0.00  0.00    +0.000 A 
ENDBRANCH   5  13
ENDBRANCH   3   5
ENDBRANCH   1   3
BRANCH   1  14
ATOM     14  N   UNL     1       2.305   8.956  17.504  0.00  0.00    +0.000 NA
ATOM     15  C   UNL     1       2.326   7.881  18.193  0.00  0.00    +0.000 C 
BRANCH  15  16
ATOM     16  C   UNL     1       3.100   6.684  17.728  0.00  0.00    +0.000 A 
ATOM     17  C   UNL     1       4.308   6.966  17.053  0.00  0.00    +0.000 A 
ATOM     18  C   UNL     1       5.085   5.921  16.565  0.00  0.00    +0.000 A 
ATOM     19  C   UNL     1       4.678   4.615  16.737  0.00  0.00    +0.000 A 
ATOM     20  C   UNL     1       3.516   4.313  17.412  0.00  0.00    +0.000 A 
ATOM     21  C   UNL     1       3.213   2.996  17.547  0.00  0.00    +0.000 A 
ATOM     22  C   UNL     1       2.051   2.786  18.205  0.00  0.00    +0.000 A 
ATOM     23  C   UNL     1       0.975   2.562  18.825  0.00  0.00    +0.000 A 
ATOM     24  C   UNL     1       1.419   4.388  18.587  0.00  0.00    +0.000 A 
ATOM     25  C   UNL     1       2.640   5.251  17.936  0.00  0.00    +0.000 A 
ENDBRANCH  15  16
ENDBRANCH   1  14
TORSDOF 5
ENDMDL
MODEL 3
REMARK VINA RESULT:      -8.1      2.007      3.531
REMARK  Name = 
REMARK  6 active torsions:
REMARK  status: ('A' for Active; 'I' for Inactive)
REMARK    1  A    between atoms: C_1  and  C_2
REMARK    2  A    between atoms: C_7  and  N_8
REMARK    3  A    between atoms: N_8  and  C_9
REMARK    4  A    between atoms: C_9  and  N_11
REMARK    5  A    between atoms: N_11  and  N_12
REMARK    6  A    between atoms: C_13  and  C_14
REMARK                            x       y       z     vdW  Elec       q    Type
REMARK                         _______ _______ _______ _____ _____    ______ ____
ROOT
ATOM      1  N   UNL     1       4.952   5.513  18.500  0.00  0.00    +0.000 N 
ATOM      2  H   UNL     1       5.682   5.612  19.169  0.00  0.00    +0.000 HD
ENDROOT
BRANCH   1   3
ATOM      3  C   UNL     1       4.840   4.437  17.655  0.00  0.00    +0.000 C 
ATOM      4  S   UNL     1       5.765   4.939  16.342  0.00  0.00    +0.000 S 
BRANCH   3   5
ATOM      5  N   UNL     1       4.054   3.293  18.041  0.00  0.00    +0.000 N 
ATOM      6  H   UNL     1       4.119   2.428  17.496  0.00  0.00    +0.000 HD
BRANCH   5  13
ATOM      7  C   UNL     1       1.232   4.162  17.891  0.00  0.00    +0.000 C 
ATOM      8  C   UNL     1       1.793   3.581  19.084  0.00  0.00    +0.000 A 
ATOM      9  C   UNL     1       0.878   3.498  20.101  0.00  0.00    +0.000 A 
ATOM     10  C   UNL     1       1.267   2.988  21.298  0.00  0.00    +0.000 A 
ATOM     11  C   UNL     1       2.575   2.569  21.465  0.00  0.00    +0.000 A 
ATOM     12  C   UNL     1       3.496   2.650  20.406  0.00  0.00    +0.000 A 
ATOM     13  C   UNL     1       3.125   3.173  19.167  0.00  0.00    +0.000 A 
ENDBRANCH   5  13
ENDBRANCH   3   5
ENDBRANCH   1   3
BRANCH   1  14
ATOM     14  N   UNL     1       3.953   6.525  18.421  0.00  0.00    +0.000 NA
ATOM     15  C   UNL     1       3.182   6.892  19.371  0.00  0.00    +0.000 C 
BRANCH  15  16
ATOM     16  C   UNL     1       2.157   7.966  19.157  0.00  0.00    +0.000 A 
ATOM     17  C   UNL     1       1.974   8.374  17.818  0.00  0.00    +0.000 A 
ATOM     18  C   UNL     1       1.061   9.380  17.524  0.00  0.00    +0.000 A 
ATOM     19  C   UNL     1       0.338   9.979  18.534  0.00  0.00    +0.000 A 
ATOM     20  C   UNL     1       0.483   9.583  19.845  0.00  0.00    +0.000 A 
ATOM     21  C   UNL     1      -0.290  10.219  20.763  0.00  0.00    +0.000 A 
ATOM     22  C   UNL     1      -0.076   9.784  22.025  0.00  0.00    +0.000 A 
ATOM     23  C   UNL     1       0.097   9.390  23.212  0.00  0.00    +0.000 A 
ATOM     24  C   UNL     1       1.177   8.549  21.903  0.00  0.00    +0.000 A 
ATOM     25  C   UNL     1       1.363   8.607  20.283  0.00  0.00    +0.000 A 
ENDBRANCH  15  16
ENDBRANCH   1  14
TORSDOF 5
ENDMDL
MODEL 4
REMARK VINA RESULT:      -8.1      0.980      1.030
REMARK  Name = 
REMARK  6 active torsions:
REMARK  status: ('A' for Active; 'I' for Inactive)
REMARK    1  A    between atoms: C_1  and  C_2
REMARK    2  A    between atoms: C_7  and  N_8
REMARK    3  A    between atoms: N_8  and  C_9
REMARK    4  A    between atoms: C_9  and  N_11
REMARK    5  A    between atoms: N_11  and  N_12
REMARK    6  A    between atoms: C_13  and  C_14
REMARK                            x       y       z     vdW  Elec       q    Type
REMARK                         _______ _______ _______ _____ _____    ______ ____
ROOT
ATOM      1  N   UNL     1       3.059   4.350  19.913  0.00  0.00    +0.000 N 
ATOM      2  H   UNL     1       2.569   3.902  20.656  0.00  0.00    +0.000 HD
ENDROOT
BRANCH   1   3
ATOM      3  C   UNL     1       4.083   3.757  19.216  0.00  0.00    +0.000 C 
ATOM      4  S   UNL     1       4.235   2.287  20.019  0.00  0.00    +0.000 S 
BRANCH   3   5
ATOM      5  N   UNL     1       4.703   4.451  18.116  0.00  0.00    +0.000 N 
ATOM      6  H   UNL     1       4.342   4.319  17.167  0.00  0.00    +0.000 HD
BRANCH   5  13
ATOM      7  C   UNL     1       4.995   6.706  16.227  0.00  0.00    +0.000 C 
ATOM      8  C   UNL     1       5.963   6.442  17.262  0.00  0.00    +0.000 A 
ATOM      9  C   UNL     1       6.999   7.339  17.244  0.00  0.00    +0.000 A 
ATOM     10  C   UNL     1       8.001   7.206  18.151  0.00  0.00    +0.000 A 
ATOM     11  C   UNL     1       7.956   6.169  19.066  0.00  0.00    +0.000 A 
ATOM     12  C   UNL     1       6.879   5.267  19.077  0.00  0.00    +0.000 A 
ATOM     13  C   UNL     1       5.837   5.377  18.155  0.00  0.00    +0.000 A 
ENDBRANCH   5  13
ENDBRANCH   3   5
ENDBRANCH   1   3
BRANCH   1  14
ATOM     14  N   UNL     1       2.673   5.666  19.533  0.00  0.00    +0.000 NA
ATOM     15  C   UNL     1       2.146   6.543  20.298  0.00  0.00    +0.000 C 
BRANCH  15  16
ATOM     16  C   UNL     1       1.772   7.897  19.773  0.00  0.00    +0.000 A 
ATOM     17  C   UNL     1       2.226   8.190  18.469  0.00  0.00    +0.000 A 
ATOM     18  C   UNL     1       1.946   9.429  17.904  0.00  0.00    +0.000 A 
ATOM     19  C   UNL     1       1.231  10.371  18.615  0.00  0.00    +0.000 A 
ATOM     20  C   UNL     1       0.758  10.100  19.880  0.00  0.00    +0.000 A 
ATOM     21  C   UNL     1       0.046  11.083  20.488  0.00  0.00    +0.000 A 
ATOM     22  C   UNL     1      -0.367  10.745  21.731  0.00  0.00    +0.000 A 
ATOM     23  C   UNL     1      -0.773  10.452  22.889  0.00  0.00    +0.000 A 
ATOM     24  C   UNL     1       0.251   9.118  22.016  0.00  0.00    +0.000 A 
ATOM     25  C   UNL     1       0.974   8.917  20.568  0.00  0.00    +0.000 A 
ENDBRANCH  15  16
ENDBRANCH   1  14
TORSDOF 5
ENDMDL
MODEL 5
REMARK VINA RESULT:      -7.9      0.975      1.832
REMARK  Name = 
REMARK  6 active torsions:
REMARK  status: ('A' for Active; 'I' for Inactive)
REMARK    1  A    between atoms: C_1  and  C_2
REMARK    2  A    between atoms: C_7  and  N_8
REMARK    3  A    between atoms: N_8  and  C_9
REMARK    4  A    between atoms: C_9  and  N_11
REMARK    5  A    between atoms: N_11  and  N_12
REMARK    6  A    between atoms: C_13  and  C_14
REMARK                            x       y       z     vdW  Elec       q    Type
REMARK                         _______ _______ _______ _____ _____    ______ ____
ROOT
ATOM      1  N   UNL     1       2.824   4.002  19.791  0.00  0.00    +0.000 N 
ATOM      2  H   UNL     1       2.443   3.584  20.610  0.00  0.00    +0.000 HD
ENDROOT
BRANCH   1   3
ATOM      3  C   UNL     1       3.744   3.382  18.981  0.00  0.00    +0.000 C 
ATOM      4  S   UNL     1       2.980   1.918  18.659  0.00  0.00    +0.000 S 
BRANCH   3   5
ATOM      5  N   UNL     1       4.981   4.044  18.655  0.00  0.00    +0.000 N 
ATOM      6  H   UNL     1       5.593   4.373  19.408  0.00  0.00    +0.000 HD
BRANCH   5  13
ATOM      7  C   UNL     1       7.696   5.141  18.249  0.00  0.00    +0.000 C 
ATOM      8  C   UNL     1       6.818   4.840  17.146  0.00  0.00    +0.000 A 
ATOM      9  C   UNL     1       7.389   5.129  15.934  0.00  0.00    +0.000 A 
ATOM     10  C   UNL     1       6.671   4.915  14.802  0.00  0.00    +0.000 A 
ATOM     11  C   UNL     1       5.384   4.417  14.895  0.00  0.00    +0.000 A 
ATOM     12  C   UNL     1       4.821   4.114  16.147  0.00  0.00    +0.000 A 
ATOM     13  C   UNL     1       5.533   4.327  17.328  0.00  0.00    +0.000 A 
ENDBRANCH   5  13
ENDBRANCH   3   5
ENDBRANCH   1   3
BRANCH   1  14
ATOM     14  N   UNL     1       2.387   5.305  19.420  0.00  0.00    +0.000 NA
ATOM     15  C   UNL     1       2.473   6.357  20.140  0.00  0.00    +0.000 C 
BRANCH  15  16
ATOM     16  C   UNL     1       1.963   7.676  19.638  0.00  0.00    +0.000 A 
ATOM     17  C   UNL     1       2.284   7.981  18.297  0.00  0.00    +0.000 A 
ATOM     18  C   UNL     1       1.872   9.191  17.749  0.00  0.00    +0.000 A 
ATOM     19  C   UNL     1       1.157  10.091  18.510  0.00  0.00    +0.000 A 
ATOM     20  C   UNL     1       0.813   9.806  19.814  0.00  0.00    +0.000 A 
ATOM     21  C   UNL     1       0.089  10.747  20.473  0.00  0.00    +0.000 A 
ATOM     22  C   UNL     1      -0.193  10.398  21.749  0.00  0.00    +0.000 A 
ATOM     23  C   UNL     1      -0.478  10.094  22.940  0.00  0.00    +0.000 A 
ATOM     24  C   UNL     1       0.558   8.821  21.993  0.00  0.00    +0.000 A 
ATOM     25  C   UNL     1       1.167   8.649  20.490  0.00  0.00    +0.000 A 
ENDBRANCH  15  16
ENDBRANCH   1  14
TORSDOF 5
ENDMDL
MODEL 6
REMARK VINA RESULT:      -7.9      2.148      3.748
REMARK  Name = 
REMARK  6 active torsions:
REMARK  status: ('A' for Active; 'I' for Inactive)
REMARK    1  A    between atoms: C_1  and  C_2
REMARK    2  A    between atoms: C_7  and  N_8
REMARK    3  A    between atoms: N_8  and  C_9
REMARK    4  A    between atoms: C_9  and  N_11
REMARK    5  A    between atoms: N_11  and  N_12
REMARK    6  A    between atoms: C_13  and  C_14
REMARK                            x       y       z     vdW  Elec       q    Type
REMARK                         _______ _______ _______ _____ _____    ______ ____
ROOT
ATOM      1  N   UNL     1       4.541   5.770  18.082  0.00  0.00    +0.000 N 
ATOM      2  H   UNL     1       5.333   5.836  18.682  0.00  0.00    +0.000 HD
ENDROOT
BRANCH   1   3
ATOM      3  C   UNL     1       4.338   4.730  17.208  0.00  0.00    +0.000 C 
ATOM      4  S   UNL     1       5.376   5.136  15.947  0.00  0.00    +0.000 S 
BRANCH   3   5
ATOM      5  N   UNL     1       3.402   3.685  17.536  0.00  0.00    +0.000 N 
ATOM      6  H   UNL     1       3.185   2.964  16.840  0.00  0.00    +0.000 HD
BRANCH   5  13
ATOM      7  C   UNL     1       4.595   2.325  19.874  0.00  0.00    +0.000 C 
ATOM      8  C   UNL     1       3.250   2.843  19.892  0.00  0.00    +0.000 A 
ATOM      9  C   UNL     1       2.623   2.619  21.090  0.00  0.00    +0.000 A 
ATOM     10  C   UNL     1       1.341   3.034  21.249  0.00  0.00    +0.000 A 
ATOM     11  C   UNL     1       0.695   3.667  20.202  0.00  0.00    +0.000 A 
ATOM     12  C   UNL     1       1.359   3.899  18.985  0.00  0.00    +0.000 A 
ATOM     13  C   UNL     1       2.676   3.481  18.791  0.00  0.00    +0.000 A 
ENDBRANCH   5  13
ENDBRANCH   3   5
ENDBRANCH   1   3
BRANCH   1  14
ATOM     14  N   UNL     1       3.552   6.792  18.136  0.00  0.00    +0.000 NA
ATOM     15  C   UNL     1       2.905   7.153  19.176  0.00  0.00    +0.000 C 
BRANCH  15  16
ATOM     16  C   UNL     1       1.875   8.241  19.102  0.00  0.00    +0.000 A 
ATOM     17  C   UNL     1       1.595   8.726  17.806  0.00  0.00    +0.000 A 
ATOM     18  C   UNL     1       0.670   9.749  17.638  0.00  0.00    +0.000 A 
ATOM     19  C   UNL     1       0.027  10.291  18.732  0.00  0.00    +0.000 A 
ATOM     20  C   UNL     1       0.266   9.819  20.004  0.00  0.00    +0.000 A 
ATOM     21  C   UNL     1      -0.432  10.403  21.012  0.00  0.00    +0.000 A 
ATOM     22  C   UNL     1      -0.128   9.895  22.228  0.00  0.00    +0.000 A 
ATOM     23  C   UNL     1       0.130   9.433  23.373  0.00  0.00    +0.000 A 
ATOM     24  C   UNL     1       1.105   8.666  21.941  0.00  0.00    +0.000 A 
ATOM     25  C   UNL     1       1.171   8.817  20.318  0.00  0.00    +0.000 A 
ENDBRANCH  15  16
ENDBRANCH   1  14
TORSDOF 5
ENDMDL
MODEL 7
REMARK VINA RESULT:      -7.9      3.187      5.120
REMARK  Name = 
REMARK  6 active torsions:
REMARK  status: ('A' for Active; 'I' for Inactive)
REMARK    1  A    between atoms: C_1  and  C_2
REMARK    2  A    between atoms: C_7  and  N_8
REMARK    3  A    between atoms: N_8  and  C_9
REMARK    4  A    between atoms: C_9  and  N_11
REMARK    5  A    between atoms: N_11  and  N_12
REMARK    6  A    between atoms: C_13  and  C_14
REMARK                            x       y       z     vdW  Elec       q    Type
REMARK                         _______ _______ _______ _____ _____    ______ ____
ROOT
ATOM      1  N   UNL     1       5.896   7.162  16.534  0.00  0.00    +0.000 N 
ATOM      2  H   UNL     1       5.593   7.699  15.752  0.00  0.00    +0.000 HD
ENDROOT
BRANCH   1   3
ATOM      3  C   UNL     1       7.180   6.700  16.683  0.00  0.00    +0.000 C 
ATOM      4  S   UNL     1       7.856   7.885  17.667  0.00  0.00    +0.000 S 
BRANCH   3   5
ATOM      5  N   UNL     1       7.588   5.478  16.037  0.00  0.00    +0.000 N 
ATOM      6  H   UNL     1       8.282   4.875  16.488  0.00  0.00    +0.000 HD
BRANCH   5  13
ATOM      7  C   UNL     1       5.253   3.679  15.815  0.00  0.00    +0.000 C 
ATOM      8  C   UNL     1       6.018   4.088  14.664  0.00  0.00    +0.000 A 
ATOM      9  C   UNL     1       5.539   3.543  13.501  0.00  0.00    +0.000 A 
ATOM     10  C   UNL     1       6.172   3.823  12.333  0.00  0.00    +0.000 A 
ATOM     11  C   UNL     1       7.285   4.645  12.342  0.00  0.00    +0.000 A 
ATOM     12  C   UNL     1       7.753   5.205  13.543  0.00  0.00    +0.000 A 
ATOM     13  C   UNL     1       7.125   4.932  14.759  0.00  0.00    +0.000 A 
ENDBRANCH   5  13
ENDBRANCH   3   5
ENDBRANCH   1   3
BRANCH   1  14
ATOM     14  N   UNL     1       4.962   6.866  17.566  0.00  0.00    +0.000 NA
ATOM     15  C   UNL     1       3.722   6.603  17.402  0.00  0.00    +0.000 C 
BRANCH  15  16
ATOM     16  C   UNL     1       2.835   6.318  18.577  0.00  0.00    +0.000 A 
ATOM     17  C   UNL     1       2.516   7.433  19.383  0.00  0.00    +0.000 A 
ATOM     18  C   UNL     1       1.717   7.264  20.508  0.00  0.00    +0.000 A 
ATOM     19  C   UNL     1       1.237   6.014  20.837  0.00  0.00    +0.000 A 
ATOM     20  C   UNL     1       1.515   4.915  20.054  0.00  0.00    +0.000 A 
ATOM     21  C   UNL     1       0.979   3.732  20.451  0.00  0.00    +0.000 A 
ATOM     22  C   UNL     1       1.313   2.703  19.640  0.00  0.00    +0.000 A 
ATOM     23  C   UNL     1       1.601   1.726  18.894  0.00  0.00    +0.000 A 
ATOM     24  C   UNL     1       2.354   3.391  18.393  0.00  0.00    +0.000 A 
ATOM     25  C   UNL     1       2.308   4.934  18.918  0.00  0.00    +0.000 A 
ENDBRANCH  15  16
ENDBRANCH   1  14
TORSDOF 5
ENDMDL
MODEL 8
REMARK VINA RESULT:      -7.9      3.184      5.170
REMARK  Name = 
REMARK  6 active torsions:
REMARK  status: ('A' for Active; 'I' for Inactive)
REMARK    1  A    between atoms: C_1  and  C_2
REMARK    2  A    between atoms: C_7  and  N_8
REMARK    3  A    between atoms: N_8  and  C_9
REMARK    4  A    between atoms: C_9  and  N_11
REMARK    5  A    between atoms: N_11  and  N_12
REMARK    6  A    between atoms: C_13  and  C_14
REMARK                            x       y       z     vdW  Elec       q    Type
REMARK                         _______ _______ _______ _____ _____    ______ ____
ROOT
ATOM      1  N   UNL     1       6.943   4.366  17.315  0.00  0.00    +0.000 N 
ATOM      2  H   UNL     1       7.644   3.660  17.327  0.00  0.00    +0.000 HD
ENDROOT
BRANCH   1   3
ATOM      3  C   UNL     1       7.093   5.570  16.672  0.00  0.00    +0.000 C 
ATOM      4  S   UNL     1       6.572   6.652  17.851  0.00  0.00    +0.000 S 
BRANCH   3   5
ATOM      5  N   UNL     1       7.585   5.610  15.318  0.00  0.00    +0.000 N 
ATOM      6  H   UNL     1       8.393   6.197  15.091  0.00  0.00    +0.000 HD
BRANCH   5  13
ATOM      7  C   UNL     1       8.746   5.915  12.617  0.00  0.00    +0.000 C 
ATOM      8  C   UNL     1       7.636   5.033  12.879  0.00  0.00    +0.000 A 
ATOM      9  C   UNL     1       7.206   4.390  11.748  0.00  0.00    +0.000 A 
ATOM     10  C   UNL     1       6.152   3.539  11.836  0.00  0.00    +0.000 A 
ATOM     11  C   UNL     1       5.534   3.345  13.059  0.00  0.00    +0.000 A 
ATOM     12  C   UNL     1       5.998   4.005  14.210  0.00  0.00    +0.000 A 
ATOM     13  C   UNL     1       7.077   4.887  14.150  0.00  0.00    +0.000 A 
ENDBRANCH   5  13
ENDBRANCH   3   5
ENDBRANCH   1   3
BRANCH   1  14
ATOM     14  N   UNL     1       5.708   4.119  17.979  0.00  0.00    +0.000 NA
ATOM     15  C   UNL     1       4.653   3.637  17.443  0.00  0.00    +0.000 C 
BRANCH  15  16
ATOM     16  C   UNL     1       3.406   3.433  18.250  0.00  0.00    +0.000 A 
ATOM     17  C   UNL     1       2.859   2.132  18.205  0.00  0.00    +0.000 A 
ATOM     18  C   UNL     1       1.690   1.852  18.905  0.00  0.00    +0.000 A 
ATOM     19  C   UNL     1       1.066   2.839  19.638  0.00  0.00    +0.000 A 
ATOM     20  C   UNL     1       1.593   4.110  19.715  0.00  0.00    +0.000 A 
ATOM     21  C   UNL     1       0.915   5.005  20.480  0.00  0.00    +0.000 A 
ATOM     22  C   UNL     1       1.488   6.230  20.490  0.00  0.00    +0.000 A 
ATOM     23  C   UNL     1       2.006   7.380  20.524  0.00  0.00    +0.000 A 
ATOM     24  C   UNL     1       2.903   6.109  19.444  0.00  0.00    +0.000 A 
ATOM     25  C   UNL     1       2.738   4.532  19.060  0.00  0.00    +0.000 A 
ENDBRANCH  15  16
ENDBRANCH   1  14
TORSDOF 5
ENDMDL
MODEL 9
REMARK VINA RESULT:      -7.8      3.189      7.700
REMARK  Name = 
REMARK  6 active torsions:
REMARK  status: ('A' for Active; 'I' for Inactive)
REMARK    1  A    between atoms: C_1  and  C_2
REMARK    2  A    between atoms: C_7  and  N_8
REMARK    3  A    between atoms: N_8  and  C_9
REMARK    4  A    between atoms: C_9  and  N_11
REMARK    5  A    between atoms: N_11  and  N_12
REMARK    6  A    between atoms: C_13  and  C_14
REMARK                            x       y       z     vdW  Elec       q    Type
REMARK                         _______ _______ _______ _____ _____    ______ ____
ROOT
ATOM      1  N   UNL     1       1.659  10.038  17.798  0.00  0.00    +0.000 N 
ATOM      2  H   UNL     1       1.974  10.882  17.374  0.00  0.00    +0.000 HD
ENDROOT
BRANCH   1   3
ATOM      3  C   UNL     1       0.626   9.985  18.701  0.00  0.00    +0.000 C 
ATOM      4  S   UNL     1      -0.701   9.776  17.688  0.00  0.00    +0.000 S 
BRANCH   3   5
ATOM      5  N   UNL     1       0.892  10.115  20.111  0.00  0.00    +0.000 N 
ATOM      6  H   UNL     1       1.691   9.623  20.522  0.00  0.00    +0.000 HD
BRANCH   5  13
ATOM      7  C   UNL     1      -0.471   8.884  22.428  0.00  0.00    +0.000 C 
ATOM      8  C   UNL     1      -0.484  10.307  22.197  0.00  0.00    +0.000 A 
ATOM      9  C   UNL     1      -1.195  10.981  23.156  0.00  0.00    +0.000 A 
ATOM     10  C   UNL     1      -1.312  12.330  23.060  0.00  0.00    +0.000 A 
ATOM     11  C   UNL     1      -0.720  12.992  21.999  0.00  0.00    +0.000 A 
ATOM     12  C   UNL     1       0.016  12.283  21.033  0.00  0.00    +0.000 A 
ATOM     13  C   UNL     1       0.151  10.897  21.104  0.00  0.00    +0.000 A 
ENDBRANCH   5  13
ENDBRANCH   3   5
ENDBRANCH   1   3
BRANCH   1  14
ATOM     14  N   UNL     1       2.292   8.814  17.443  0.00  0.00    +0.000 NA
ATOM     15  C   UNL     1       2.601   7.870  18.247  0.00  0.00    +0.000 C 
BRANCH  15  16
ATOM     16  C   UNL     1       3.279   6.628  17.750  0.00  0.00    +0.000 A 
ATOM     17  C   UNL     1       4.486   6.834  17.047  0.00  0.00    +0.000 A 
ATOM     18  C   UNL     1       5.176   5.744  16.530  0.00  0.00    +0.000 A 
ATOM     19  C   UNL     1       4.684   4.466  16.699  0.00  0.00    +0.000 A 
ATOM     20  C   UNL     1       3.520   4.238  17.400  0.00  0.00    +0.000 A 
ATOM     21  C   UNL     1       3.131   2.944  17.529  0.00  0.00    +0.000 A 
ATOM     22  C   UNL     1       1.973   2.808  18.215  0.00  0.00    +0.000 A 
ATOM     23  C   UNL     1       0.899   2.651  18.859  0.00  0.00    +0.000 A 
ATOM     24  C   UNL     1       1.463   4.445  18.629  0.00  0.00    +0.000 A 
ATOM     25  C   UNL     1       2.725   5.228  17.955  0.00  0.00    +0.000 A 
ENDBRANCH  15  16
ENDBRANCH   1  14
TORSDOF 5
ENDMDL
