MODEL 1
REMARK VINA RESULT:      -7.6      0.000      0.000
REMARK  Name = 
REMARK  8 active torsions:
REMARK  status: ('A' for Active; 'I' for Inactive)
REMARK    1  A    between atoms: C_1  and  O_2
REMARK    2  A    between atoms: O_2  and  C_3
REMARK    3  A    between atoms: C_6  and  C_7
REMARK    4  A    between atoms: C_7  and  C_8
REMARK    5  A    between atoms: C_8  and  N_9
REMARK    6  A    between atoms: C_10  and  C_12
REMARK    7  A    between atoms: C_12  and  S_13
REMARK    8  A    between atoms: S_13  and  C_14
REMARK                            x       y       z     vdW  Elec       q    Type
REMARK                         _______ _______ _______ _____ _____    ______ ____
ROOT
ATOM      1  N   UNL     1       7.011   6.907  17.839  0.00  0.00    +0.000 N 
ATOM      2  C   UNL     1       7.074   5.926  16.866  0.00  0.00    +0.000 C 
ATOM      3  O   UNL     1       7.579   6.127  15.764  0.00  0.00    +0.000 OA
ATOM      4  H   UNL     1       6.694   6.675  18.774  0.00  0.00    +0.000 HD
ENDROOT
BRANCH   1   5
ATOM      5  C   UNL     1       7.615   8.205  17.597  0.00  0.00    +0.000 C 
BRANCH   5   6
ATOM      6  C   UNL     1       8.756   8.564  18.552  0.00  0.00    +0.000 C 
BRANCH   6  10
ATOM      7  C   UNL     1       9.332  12.795  19.260  0.00  0.00    +0.000 A 
ATOM      8  C   UNL     1       9.493  11.872  20.293  0.00  0.00    +0.000 A 
ATOM      9  C   UNL     1       9.315  10.506  20.062  0.00  0.00    +0.000 A 
ATOM     10  C   UNL     1       8.945  10.043  18.794  0.00  0.00    +0.000 A 
ATOM     11  C   UNL     1       8.789  10.974  17.759  0.00  0.00    +0.000 A 
ATOM     12  C   UNL     1       8.975  12.342  17.991  0.00  0.00    +0.000 A 
BRANCH   7  14
ATOM     13  C   UNL     1      10.669  14.381  20.394  0.00  0.00    +0.000 C 
ATOM     14  O   UNL     1       9.510  14.103  19.616  0.00  0.00    +0.000 OA
ENDBRANCH   7  14
ENDBRANCH   6  10
ENDBRANCH   5   6
ENDBRANCH   1   5
BRANCH   2  15
ATOM     15  C   UNL     1       6.457   4.593  17.253  0.00  0.00    +0.000 C 
BRANCH  15  16
ATOM     16  S   UNL     1       4.766   4.446  16.600  0.00  0.00    +0.000 S 
BRANCH  16  17
ATOM     17  C   UNL     1       3.836   4.851  18.003  0.00  0.00    +0.000 A 
ATOM     18  N   UNL     1       4.001   5.914  18.761  0.00  0.00    +0.000 NA
ATOM     19  N   UNL     1       3.050   5.866  19.760  0.00  0.00    +0.000 NA
ATOM     20  C   UNL     1       2.335   4.773  19.584  0.00  0.00    +0.000 A 
ATOM     21  C   UNL     1       1.238   4.212  20.299  0.00  0.00    +0.000 A 
ATOM     22  C   UNL     1       0.702   3.048  19.886  0.00  0.00    +0.000 A 
ATOM     23  C   UNL     1       1.212   2.344  18.720  0.00  0.00    +0.000 A 
ATOM     24  C   UNL     1       2.245   2.873  18.040  0.00  0.00    +0.000 A 
ATOM     25  N   UNL     1       2.799   4.081  18.472  0.00  0.00    +0.000 N 
ENDBRANCH  16  17
ENDBRANCH  15  16
ENDBRANCH   2  15
TORSDOF 7
ENDMDL
MODEL 2
REMARK VINA RESULT:      -7.6      1.769      2.335
REMARK  Name = 
REMARK  8 active torsions:
REMARK  status: ('A' for Active; 'I' for Inactive)
REMARK    1  A    between atoms: C_1  and  O_2
REMARK    2  A    between atoms: O_2  and  C_3
REMARK    3  A    between atoms: C_6  and  C_7
REMARK    4  A    between atoms: C_7  and  C_8
REMARK    5  A    between atoms: C_8  and  N_9
REMARK    6  A    between atoms: C_10  and  C_12
REMARK    7  A    between atoms: C_12  and  S_13
REMARK    8  A    between atoms: S_13  and  C_14
REMARK                            x       y       z     vdW  Elec       q    Type
REMARK                         _______ _______ _______ _____ _____    ______ ____
ROOT
ATOM      1  N   UNL     1       8.391   8.073  18.903  0.00  0.00    +0.000 N 
ATOM      2  C   UNL     1       7.805   7.213  17.991  0.00  0.00    +0.000 C 
ATOM      3  O   UNL     1       7.600   7.535  16.824  0.00  0.00    +0.000 OA
ATOM      4  H   UNL     1       8.650   7.737  19.823  0.00  0.00    +0.000 HD
ENDROOT
BRANCH   1   5
ATOM      5  C   UNL     1       8.851   9.381  18.470  0.00  0.00    +0.000 C 
BRANCH   5   6
ATOM      6  C   UNL     1       9.414  10.260  19.589  0.00  0.00    +0.000 C 
BRANCH   6  10
ATOM      7  C   UNL     1      11.629  13.722  18.232  0.00  0.00    +0.000 A 
ATOM      8  C   UNL     1      10.978  12.891  17.320  0.00  0.00    +0.000 A 
ATOM      9  C   UNL     1      10.256  11.779  17.760  0.00  0.00    +0.000 A 
ATOM     10  C   UNL     1      10.198  11.465  19.122  0.00  0.00    +0.000 A 
ATOM     11  C   UNL     1      10.849  12.305  20.034  0.00  0.00    +0.000 A 
ATOM     12  C   UNL     1      11.566  13.423  19.592  0.00  0.00    +0.000 A 
BRANCH   7  14
ATOM     13  C   UNL     1      11.533  15.862  17.232  0.00  0.00    +0.000 C 
ATOM     14  O   UNL     1      12.320  14.764  17.679  0.00  0.00    +0.000 OA
ENDBRANCH   7  14
ENDBRANCH   6  10
ENDBRANCH   5   6
ENDBRANCH   1   5
BRANCH   2  15
ATOM     15  C   UNL     1       7.415   5.854  18.546  0.00  0.00    +0.000 C 
BRANCH  15  16
ATOM     16  S   UNL     1       6.596   4.844  17.274  0.00  0.00    +0.000 S 
BRANCH  16  17
ATOM     17  C   UNL     1       4.932   5.195  17.598  0.00  0.00    +0.000 A 
ATOM     18  N   UNL     1       4.402   6.393  17.719  0.00  0.00    +0.000 NA
ATOM     19  N   UNL     1       3.053   6.231  17.959  0.00  0.00    +0.000 NA
ATOM     20  C   UNL     1       2.799   4.938  17.981  0.00  0.00    +0.000 A 
ATOM     21  C   UNL     1       1.603   4.193  18.186  0.00  0.00    +0.000 A 
ATOM     22  C   UNL     1       1.647   2.847  18.165  0.00  0.00    +0.000 A 
ATOM     23  C   UNL     1       2.891   2.127  17.934  0.00  0.00    +0.000 A 
ATOM     24  C   UNL     1       4.022   2.829  17.736  0.00  0.00    +0.000 A 
ATOM     25  N   UNL     1       3.972   4.225  17.758  0.00  0.00    +0.000 N 
ENDBRANCH  16  17
ENDBRANCH  15  16
ENDBRANCH   2  15
TORSDOF 7
ENDMDL
MODEL 3
REMARK VINA RESULT:      -7.5      1.158      1.507
REMARK  Name = 
REMARK  8 active torsions:
REMARK  status: ('A' for Active; 'I' for Inactive)
REMARK    1  A    between atoms: C_1  and  O_2
REMARK    2  A    between atoms: O_2  and  C_3
REMARK    3  A    between atoms: C_6  and  C_7
REMARK    4  A    between atoms: C_7  and  C_8
REMARK    5  A    between atoms: C_8  and  N_9
REMARK    6  A    between atoms: C_10  and  C_12
REMARK    7  A    between atoms: C_12  and  S_13
REMARK    8  A    between atoms: S_13  and  C_14
REMARK                            x       y       z     vdW  Elec       q    Type
REMARK                         _______ _______ _______ _____ _____    ______ ____
ROOT
ATOM      1  N   UNL     1       7.532   6.534  17.822  0.00  0.00    +0.000 N 
ATOM      2  C   UNL     1       6.960   5.554  18.614  0.00  0.00    +0.000 C 
ATOM      3  O   UNL     1       7.079   5.546  19.837  0.00  0.00    +0.000 OA
ATOM      4  H   UNL     1       7.319   6.575  16.833  0.00  0.00    +0.000 HD
ENDROOT
BRANCH   1   5
ATOM      5  C   UNL     1       8.244   7.637  18.441  0.00  0.00    +0.000 C 
BRANCH   5   6
ATOM      6  C   UNL     1       8.013   8.996  17.776  0.00  0.00    +0.000 C 
BRANCH   6  10
ATOM      7  C   UNL     1      10.035  12.342  19.635  0.00  0.00    +0.000 A 
ATOM      8  C   UNL     1       9.520  12.450  18.343  0.00  0.00    +0.000 A 
ATOM      9  C   UNL     1       8.860  11.372  17.747  0.00  0.00    +0.000 A 
ATOM     10  C   UNL     1       8.729  10.157  18.428  0.00  0.00    +0.000 A 
ATOM     11  C   UNL     1       9.244  10.055  19.727  0.00  0.00    +0.000 A 
ATOM     12  C   UNL     1       9.898  11.139  20.324  0.00  0.00    +0.000 A 
BRANCH   7  14
ATOM     13  C   UNL     1      10.618  14.602  19.258  0.00  0.00    +0.000 C 
ATOM     14  O   UNL     1      10.678  13.456  20.099  0.00  0.00    +0.000 OA
ENDBRANCH   7  14
ENDBRANCH   6  10
ENDBRANCH   5   6
ENDBRANCH   1   5
BRANCH   2  15
ATOM     15  C   UNL     1       6.194   4.481  17.859  0.00  0.00    +0.000 C 
BRANCH  15  16
ATOM     16  S   UNL     1       4.788   5.200  16.957  0.00  0.00    +0.000 S 
BRANCH  16  17
ATOM     17  C   UNL     1       3.624   5.352  18.229  0.00  0.00    +0.000 A 
ATOM     18  N   UNL     1       3.408   6.426  18.957  0.00  0.00    +0.000 NA
ATOM     19  N   UNL     1       2.392   6.133  19.843  0.00  0.00    +0.000 NA
ATOM     20  C   UNL     1       2.020   4.887  19.633  0.00  0.00    +0.000 A 
ATOM     21  C   UNL     1       1.035   4.057  20.242  0.00  0.00    +0.000 A 
ATOM     22  C   UNL     1       0.882   2.788  19.819  0.00  0.00    +0.000 A 
ATOM     23  C   UNL     1       1.696   2.237  18.747  0.00  0.00    +0.000 A 
ATOM     24  C   UNL     1       2.625   3.019  18.166  0.00  0.00    +0.000 A 
ATOM     25  N   UNL     1       2.781   4.335  18.608  0.00  0.00    +0.000 N 
ENDBRANCH  16  17
ENDBRANCH  15  16
ENDBRANCH   2  15
TORSDOF 7
ENDMDL
MODEL 4
REMARK VINA RESULT:      -7.5      1.393      1.958
REMARK  Name = 
REMARK  8 active torsions:
REMARK  status: ('A' for Active; 'I' for Inactive)
REMARK    1  A    between atoms: C_1  and  O_2
REMARK    2  A    between atoms: O_2  and  C_3
REMARK    3  A    between atoms: C_6  and  C_7
REMARK    4  A    between atoms: C_7  and  C_8
REMARK    5  A    between atoms: C_8  and  N_9
REMARK    6  A    between atoms: C_10  and  C_12
REMARK    7  A    between atoms: C_12  and  S_13
REMARK    8  A    between atoms: S_13  and  C_14
REMARK                            x       y       z     vdW  Elec       q    Type
REMARK                         _______ _______ _______ _____ _____    ______ ____
ROOT
ATOM      1  N   UNL     1       7.698   6.775  17.881  0.00  0.00    +0.000 N 
ATOM      2  C   UNL     1       7.241   5.693  18.612  0.00  0.00    +0.000 C 
ATOM      3  O   UNL     1       7.384   5.616  19.829  0.00  0.00    +0.000 OA
ATOM      4  H   UNL     1       7.463   6.861  16.899  0.00  0.00    +0.000 HD
ENDROOT
BRANCH   1   5
ATOM      5  C   UNL     1       8.310   7.901  18.565  0.00  0.00    +0.000 C 
BRANCH   5   6
ATOM      6  C   UNL     1       8.129   9.248  17.861  0.00  0.00    +0.000 C 
BRANCH   6  10
ATOM      7  C   UNL     1      10.264  12.541  19.686  0.00  0.00    +0.000 A 
ATOM      8  C   UNL     1      10.160  11.312  20.338  0.00  0.00    +0.000 A 
ATOM      9  C   UNL     1       9.477  10.247  19.744  0.00  0.00    +0.000 A 
ATOM     10  C   UNL     1       8.864  10.405  18.496  0.00  0.00    +0.000 A 
ATOM     11  C   UNL     1       8.975  11.640  17.844  0.00  0.00    +0.000 A 
ATOM     12  C   UNL     1       9.665  12.703  18.438  0.00  0.00    +0.000 A 
BRANCH   7  14
ATOM     13  C   UNL     1      10.952  14.801  19.777  0.00  0.00    +0.000 C 
ATOM     14  O   UNL     1      10.935  13.511  20.378  0.00  0.00    +0.000 OA
ENDBRANCH   7  14
ENDBRANCH   6  10
ENDBRANCH   5   6
ENDBRANCH   1   5
BRANCH   2  15
ATOM     15  C   UNL     1       6.570   4.602  17.795  0.00  0.00    +0.000 C 
BRANCH  15  16
ATOM     16  S   UNL     1       4.896   5.103  17.293  0.00  0.00    +0.000 S 
BRANCH  16  17
ATOM     17  C   UNL     1       3.957   3.796  17.932  0.00  0.00    +0.000 A 
ATOM     18  N   UNL     1       3.994   2.545  17.526  0.00  0.00    +0.000 NA
ATOM     19  N   UNL     1       3.107   1.827  18.302  0.00  0.00    +0.000 NA
ATOM     20  C   UNL     1       2.552   2.662  19.156  0.00  0.00    +0.000 A 
ATOM     21  C   UNL     1       1.577   2.488  20.181  0.00  0.00    +0.000 A 
ATOM     22  C   UNL     1       1.180   3.550  20.907  0.00  0.00    +0.000 A 
ATOM     23  C   UNL     1       1.725   4.880  20.676  0.00  0.00    +0.000 A 
ATOM     24  C   UNL     1       2.649   5.047  19.713  0.00  0.00    +0.000 A 
ATOM     25  N   UNL     1       3.058   3.942  18.961  0.00  0.00    +0.000 N 
ENDBRANCH  16  17
ENDBRANCH  15  16
ENDBRANCH   2  15
TORSDOF 7
ENDMDL
MODEL 5
REMARK VINA RESULT:      -7.5      1.889      2.212
REMARK  Name = 
REMARK  8 active torsions:
REMARK  status: ('A' for Active; 'I' for Inactive)
REMARK    1  A    between atoms: C_1  and  O_2
REMARK    2  A    between atoms: O_2  and  C_3
REMARK    3  A    between atoms: C_6  and  C_7
REMARK    4  A    between atoms: C_7  and  C_8
REMARK    5  A    between atoms: C_8  and  N_9
REMARK    6  A    between atoms: C_10  and  C_12
REMARK    7  A    between atoms: C_12  and  S_13
REMARK    8  A    between atoms: S_13  and  C_14
REMARK                            x       y       z     vdW  Elec       q    Type
REMARK                         _______ _______ _______ _____ _____    ______ ____
ROOT
ATOM      1  N   UNL     1       8.219   7.655  18.644  0.00  0.00    +0.000 N 
ATOM      2  C   UNL     1       7.308   7.043  17.803  0.00  0.00    +0.000 C 
ATOM      3  O   UNL     1       6.927   7.565  16.758  0.00  0.00    +0.000 OA
ATOM      4  H   UNL     1       8.598   7.149  19.436  0.00  0.00    +0.000 HD
ENDROOT
BRANCH   1   5
ATOM      5  C   UNL     1       8.810   8.927  18.267  0.00  0.00    +0.000 C 
BRANCH   5   6
ATOM      6  C   UNL     1       9.093   9.870  19.439  0.00  0.00    +0.000 C 
BRANCH   6  10
ATOM      7  C   UNL     1      11.552  13.303  18.489  0.00  0.00    +0.000 A 
ATOM      8  C   UNL     1      11.394  12.884  19.811  0.00  0.00    +0.000 A 
ATOM      9  C   UNL     1      10.607  11.771  20.115  0.00  0.00    +0.000 A 
ATOM     10  C   UNL     1       9.942  11.073  19.100  0.00  0.00    +0.000 A 
ATOM     11  C   UNL     1      10.107  11.495  17.775  0.00  0.00    +0.000 A 
ATOM     12  C   UNL     1      10.903  12.607  17.471  0.00  0.00    +0.000 A 
BRANCH   7  14
ATOM     13  C   UNL     1      11.825  15.389  17.411  0.00  0.00    +0.000 C 
ATOM     14  O   UNL     1      12.327  14.417  18.321  0.00  0.00    +0.000 OA
ENDBRANCH   7  14
ENDBRANCH   6  10
ENDBRANCH   5   6
ENDBRANCH   1   5
BRANCH   2  15
ATOM     15  C   UNL     1       6.800   5.692  18.276  0.00  0.00    +0.000 C 
BRANCH  15  16
ATOM     16  S   UNL     1       5.022   5.512  17.938  0.00  0.00    +0.000 S 
BRANCH  16  17
ATOM     17  C   UNL     1       4.620   4.194  18.986  0.00  0.00    +0.000 A 
ATOM     18  N   UNL     1       5.396   3.172  19.277  0.00  0.00    +0.000 NA
ATOM     19  N   UNL     1       4.706   2.360  20.154  0.00  0.00    +0.000 NA
ATOM     20  C   UNL     1       3.528   2.908  20.369  0.00  0.00    +0.000 A 
ATOM     21  C   UNL     1       2.415   2.521  21.169  0.00  0.00    +0.000 A 
ATOM     22  C   UNL     1       1.310   3.290  21.187  0.00  0.00    +0.000 A 
ATOM     23  C   UNL     1       1.221   4.517  20.411  0.00  0.00    +0.000 A 
ATOM     24  C   UNL     1       2.273   4.889  19.658  0.00  0.00    +0.000 A 
ATOM     25  N   UNL     1       3.417   4.087  19.641  0.00  0.00    +0.000 N 
ENDBRANCH  16  17
ENDBRANCH  15  16
ENDBRANCH   2  15
TORSDOF 7
ENDMDL
MODEL 6
REMARK VINA RESULT:      -7.4      1.385      1.484
REMARK  Name = 
REMARK  8 active torsions:
REMARK  status: ('A' for Active; 'I' for Inactive)
REMARK    1  A    between atoms: C_1  and  O_2
REMARK    2  A    between atoms: O_2  and  C_3
REMARK    3  A    between atoms: C_6  and  C_7
REMARK    4  A    between atoms: C_7  and  C_8
REMARK    5  A    between atoms: C_8  and  N_9
REMARK    6  A    between atoms: C_10  and  C_12
REMARK    7  A    between atoms: C_12  and  S_13
REMARK    8  A    between atoms: S_13  and  C_14
REMARK                            x       y       z     vdW  Elec       q    Type
REMARK                         _______ _______ _______ _____ _____    ______ ____
ROOT
ATOM      1  N   UNL     1       7.437   7.196  18.105  0.00  0.00    +0.000 N 
ATOM      2  C   UNL     1       7.365   6.165  17.186  0.00  0.00    +0.000 C 
ATOM      3  O   UNL     1       7.659   6.319  16.003  0.00  0.00    +0.000 OA
ATOM      4  H   UNL     1       7.299   7.008  19.091  0.00  0.00    +0.000 HD
ENDROOT
BRANCH   1   5
ATOM      5  C   UNL     1       7.938   8.496  17.695  0.00  0.00    +0.000 C 
BRANCH   5   6
ATOM      6  C   UNL     1       8.835   9.186  18.725  0.00  0.00    +0.000 C 
BRANCH   6  10
ATOM      7  C   UNL     1       9.784  13.319  17.857  0.00  0.00    +0.000 A 
ATOM      8  C   UNL     1      10.700  12.502  18.519  0.00  0.00    +0.000 A 
ATOM      9  C   UNL     1      10.396  11.166  18.792  0.00  0.00    +0.000 A 
ATOM     10  C   UNL     1       9.155  10.632  18.427  0.00  0.00    +0.000 A 
ATOM     11  C   UNL     1       8.240  11.455  17.759  0.00  0.00    +0.000 A 
ATOM     12  C   UNL     1       8.549  12.792  17.480  0.00  0.00    +0.000 A 
BRANCH   7  14
ATOM     13  C   UNL     1       9.844  15.525  18.705  0.00  0.00    +0.000 C 
ATOM     14  O   UNL     1      10.187  14.612  17.668  0.00  0.00    +0.000 OA
ENDBRANCH   7  14
ENDBRANCH   6  10
ENDBRANCH   5   6
ENDBRANCH   1   5
BRANCH   2  15
ATOM     15  C   UNL     1       6.878   4.838  17.742  0.00  0.00    +0.000 C 
BRANCH  15  16
ATOM     16  S   UNL     1       6.035   5.073  19.336  0.00  0.00    +0.000 S 
BRANCH  16  17
ATOM     17  C   UNL     1       4.386   5.190  18.823  0.00  0.00    +0.000 A 
ATOM     18  N   UNL     1       3.778   6.282  18.412  0.00  0.00    +0.000 NA
ATOM     19  N   UNL     1       2.483   5.941  18.083  0.00  0.00    +0.000 NA
ATOM     20  C   UNL     1       2.336   4.651  18.306  0.00  0.00    +0.000 A 
ATOM     21  C   UNL     1       1.232   3.764  18.154  0.00  0.00    +0.000 A 
ATOM     22  C   UNL     1       1.373   2.466  18.480  0.00  0.00    +0.000 A 
ATOM     23  C   UNL     1       2.631   1.937  18.984  0.00  0.00    +0.000 A 
ATOM     24  C   UNL     1       3.678   2.771  19.125  0.00  0.00    +0.000 A 
ATOM     25  N   UNL     1       3.527   4.118  18.786  0.00  0.00    +0.000 N 
ENDBRANCH  16  17
ENDBRANCH  15  16
ENDBRANCH   2  15
TORSDOF 7
ENDMDL
MODEL 7
REMARK VINA RESULT:      -7.3      1.497      2.236
REMARK  Name = 
REMARK  8 active torsions:
REMARK  status: ('A' for Active; 'I' for Inactive)
REMARK    1  A    between atoms: C_1  and  O_2
REMARK    2  A    between atoms: O_2  and  C_3
REMARK    3  A    between atoms: C_6  and  C_7
REMARK    4  A    between atoms: C_7  and  C_8
REMARK    5  A    between atoms: C_8  and  N_9
REMARK    6  A    between atoms: C_10  and  C_12
REMARK    7  A    between atoms: C_12  and  S_13
REMARK    8  A    between atoms: S_13  and  C_14
REMARK                            x       y       z     vdW  Elec       q    Type
REMARK                         _______ _______ _______ _____ _____    ______ ____
ROOT
ATOM      1  N   UNL     1       7.161   8.311  17.865  0.00  0.00    +0.000 N 
ATOM      2  C   UNL     1       6.959   7.155  17.133  0.00  0.00    +0.000 C 
ATOM      3  O   UNL     1       7.789   6.733  16.331  0.00  0.00    +0.000 OA
ATOM      4  H   UNL     1       6.511   8.567  18.599  0.00  0.00    +0.000 HD
ENDROOT
BRANCH   1   5
ATOM      5  C   UNL     1       8.417   9.029  17.749  0.00  0.00    +0.000 C 
BRANCH   5   6
ATOM      6  C   UNL     1       8.907   9.670  19.050  0.00  0.00    +0.000 C 
BRANCH   6  10
ATOM      7  C   UNL     1      11.123  13.354  18.550  0.00  0.00    +0.000 A 
ATOM      8  C   UNL     1      10.107  13.009  17.659  0.00  0.00    +0.000 A 
ATOM      9  C   UNL     1       9.387  11.823  17.826  0.00  0.00    +0.000 A 
ATOM     10  C   UNL     1       9.692  10.950  18.876  0.00  0.00    +0.000 A 
ATOM     11  C   UNL     1      10.710  11.303  19.770  0.00  0.00    +0.000 A 
ATOM     12  C   UNL     1      11.426  12.495  19.605  0.00  0.00    +0.000 A 
BRANCH   7  14
ATOM     13  C   UNL     1      10.967  15.700  18.298  0.00  0.00    +0.000 C 
ATOM     14  O   UNL     1      11.770  14.526  18.269  0.00  0.00    +0.000 OA
ENDBRANCH   7  14
ENDBRANCH   6  10
ENDBRANCH   5   6
ENDBRANCH   1   5
BRANCH   2  15
ATOM     15  C   UNL     1       5.631   6.460  17.378  0.00  0.00    +0.000 C 
BRANCH  15  16
ATOM     16  S   UNL     1       5.745   5.322  18.792  0.00  0.00    +0.000 S 
BRANCH  16  17
ATOM     17  C   UNL     1       4.436   4.241  18.450  0.00  0.00    +0.000 A 
ATOM     18  N   UNL     1       4.410   3.332  17.500  0.00  0.00    +0.000 NA
ATOM     19  N   UNL     1       3.197   2.679  17.579  0.00  0.00    +0.000 NA
ATOM     20  C   UNL     1       2.516   3.213  18.572  0.00  0.00    +0.000 A 
ATOM     21  C   UNL     1       1.222   2.949  19.106  0.00  0.00    +0.000 A 
ATOM     22  C   UNL     1       0.770   3.679  20.144  0.00  0.00    +0.000 A 
ATOM     23  C   UNL     1       1.574   4.735  20.742  0.00  0.00    +0.000 A 
ATOM     24  C   UNL     1       2.798   4.983  20.243  0.00  0.00    +0.000 A 
ATOM     25  N   UNL     1       3.263   4.224  19.166  0.00  0.00    +0.000 N 
ENDBRANCH  16  17
ENDBRANCH  15  16
ENDBRANCH   2  15
TORSDOF 7
ENDMDL
MODEL 8
REMARK VINA RESULT:      -7.3      1.451      1.920
REMARK  Name = 
REMARK  8 active torsions:
REMARK  status: ('A' for Active; 'I' for Inactive)
REMARK    1  A    between atoms: C_1  and  O_2
REMARK    2  A    between atoms: O_2  and  C_3
REMARK    3  A    between atoms: C_6  and  C_7
REMARK    4  A    between atoms: C_7  and  C_8
REMARK    5  A    between atoms: C_8  and  N_9
REMARK    6  A    between atoms: C_10  and  C_12
REMARK    7  A    between atoms: C_12  and  S_13
REMARK    8  A    between atoms: S_13  and  C_14
REMARK                            x       y       z     vdW  Elec       q    Type
REMARK                         _______ _______ _______ _____ _____    ______ ____
ROOT
ATOM      1  N   UNL     1       6.747   7.154  17.539  0.00  0.00    +0.000 N 
ATOM      2  C   UNL     1       6.838   5.875  17.021  0.00  0.00    +0.000 C 
ATOM      3  O   UNL     1       7.911   5.288  16.907  0.00  0.00    +0.000 OA
ATOM      4  H   UNL     1       5.839   7.563  17.726  0.00  0.00    +0.000 HD
ENDROOT
BRANCH   1   5
ATOM      5  C   UNL     1       7.940   7.820  18.032  0.00  0.00    +0.000 C 
BRANCH   5   6
ATOM      6  C   UNL     1       8.184   9.210  17.440  0.00  0.00    +0.000 C 
BRANCH   6  10
ATOM      7  C   UNL     1      10.399  11.944  19.960  0.00  0.00    +0.000 A 
ATOM      8  C   UNL     1      10.421  12.080  18.571  0.00  0.00    +0.000 A 
ATOM      9  C   UNL     1       9.699  11.201  17.759  0.00  0.00    +0.000 A 
ATOM     10  C   UNL     1       8.963  10.154  18.326  0.00  0.00    +0.000 A 
ATOM     11  C   UNL     1       8.941  10.026  19.720  0.00  0.00    +0.000 A 
ATOM     12  C   UNL     1       9.660  10.911  20.533  0.00  0.00    +0.000 A 
BRANCH   7  14
ATOM     13  C   UNL     1      10.560  14.115  20.883  0.00  0.00    +0.000 C 
ATOM     14  O   UNL     1      11.163  12.849  20.644  0.00  0.00    +0.000 OA
ENDBRANCH   7  14
ENDBRANCH   6  10
ENDBRANCH   5   6
ENDBRANCH   1   5
BRANCH   2  15
ATOM     15  C   UNL     1       5.518   5.260  16.588  0.00  0.00    +0.000 C 
BRANCH  15  16
ATOM     16  S   UNL     1       4.173   5.753  17.708  0.00  0.00    +0.000 S 
BRANCH  16  17
ATOM     17  C   UNL     1       4.169   4.427  18.820  0.00  0.00    +0.000 A 
ATOM     18  N   UNL     1       5.185   3.636  19.087  0.00  0.00    +0.000 NA
ATOM     19  N   UNL     1       4.768   2.724  20.034  0.00  0.00    +0.000 NA
ATOM     20  C   UNL     1       3.507   2.982  20.315  0.00  0.00    +0.000 A 
ATOM     21  C   UNL     1       2.572   2.375  21.202  0.00  0.00    +0.000 A 
ATOM     22  C   UNL     1       1.316   2.856  21.274  0.00  0.00    +0.000 A 
ATOM     23  C   UNL     1       0.885   3.989  20.468  0.00  0.00    +0.000 A 
ATOM     24  C   UNL     1       1.767   4.567  19.633  0.00  0.00    +0.000 A 
ATOM     25  N   UNL     1       3.069   4.065  19.561  0.00  0.00    +0.000 N 
ENDBRANCH  16  17
ENDBRANCH  15  16
ENDBRANCH   2  15
TORSDOF 7
ENDMDL
MODEL 9
REMARK VINA RESULT:      -7.3      1.417      1.949
REMARK  Name = 
REMARK  8 active torsions:
REMARK  status: ('A' for Active; 'I' for Inactive)
REMARK    1  A    between atoms: C_1  and  O_2
REMARK    2  A    between atoms: O_2  and  C_3
REMARK    3  A    between atoms: C_6  and  C_7
REMARK    4  A    between atoms: C_7  and  C_8
REMARK    5  A    between atoms: C_8  and  N_9
REMARK    6  A    between atoms: C_10  and  C_12
REMARK    7  A    between atoms: C_12  and  S_13
REMARK    8  A    between atoms: S_13  and  C_14
REMARK                            x       y       z     vdW  Elec       q    Type
REMARK                         _______ _______ _______ _____ _____    ______ ____
ROOT
ATOM      1  N   UNL     1       6.973   8.212  17.824  0.00  0.00    +0.000 N 
ATOM      2  C   UNL     1       6.771   7.005  17.178  0.00  0.00    +0.000 C 
ATOM      3  O   UNL     1       7.596   6.530  16.403  0.00  0.00    +0.000 OA
ATOM      4  H   UNL     1       6.327   8.518  18.542  0.00  0.00    +0.000 HD
ENDROOT
BRANCH   1   5
ATOM      5  C   UNL     1       8.225   8.925  17.647  0.00  0.00    +0.000 C 
BRANCH   5   6
ATOM      6  C   UNL     1       8.883   9.390  18.948  0.00  0.00    +0.000 C 
BRANCH   6  10
ATOM      7  C   UNL     1      10.803  13.264  18.763  0.00  0.00    +0.000 A 
ATOM      8  C   UNL     1      11.067  12.389  19.817  0.00  0.00    +0.000 A 
ATOM      9  C   UNL     1      10.453  11.135  19.871  0.00  0.00    +0.000 A 
ATOM     10  C   UNL     1       9.542  10.748  18.882  0.00  0.00    +0.000 A 
ATOM     11  C   UNL     1       9.284  11.629  17.824  0.00  0.00    +0.000 A 
ATOM     12  C   UNL     1       9.906  12.882  17.768  0.00  0.00    +0.000 A 
BRANCH   7  14
ATOM     13  C   UNL     1      12.064  14.913  17.630  0.00  0.00    +0.000 C 
ATOM     14  O   UNL     1      11.447  14.469  18.833  0.00  0.00    +0.000 OA
ENDBRANCH   7  14
ENDBRANCH   6  10
ENDBRANCH   5   6
ENDBRANCH   1   5
BRANCH   2  15
ATOM     15  C   UNL     1       5.447   6.325  17.483  0.00  0.00    +0.000 C 
BRANCH  15  16
ATOM     16  S   UNL     1       5.708   4.786  18.416  0.00  0.00    +0.000 S 
BRANCH  16  17
ATOM     17  C   UNL     1       4.219   3.959  18.108  0.00  0.00    +0.000 A 
ATOM     18  N   UNL     1       3.943   3.228  17.050  0.00  0.00    +0.000 NA
ATOM     19  N   UNL     1       2.662   2.738  17.202  0.00  0.00    +0.000 NA
ATOM     20  C   UNL     1       2.192   3.188  18.347  0.00  0.00    +0.000 A 
ATOM     21  C   UNL     1       0.945   3.014  19.013  0.00  0.00    +0.000 A 
ATOM     22  C   UNL     1       0.735   3.619  20.198  0.00  0.00    +0.000 A 
ATOM     23  C   UNL     1       1.754   4.447  20.824  0.00  0.00    +0.000 A 
ATOM     24  C   UNL     1       2.935   4.609  20.200  0.00  0.00    +0.000 A 
ATOM     25  N   UNL     1       3.149   3.981  18.971  0.00  0.00    +0.000 N 
ENDBRANCH  16  17
ENDBRANCH  15  16
ENDBRANCH   2  15
TORSDOF 7
ENDMDL
