MODEL 1
REMARK VINA RESULT:      -7.9      0.000      0.000
REMARK  Name = 
REMARK  5 active torsions:
REMARK  status: ('A' for Active; 'I' for Inactive)
REMARK    1  A    between atoms: C_2  and  C_3
REMARK    2  A    between atoms: C_3  and  N_4
REMARK    3  A    between atoms: N_7  and  C_8
REMARK    4  A    between atoms: C_8  and  C_9
REMARK    5  A    between atoms: C_9  and  C_11
REMARK                            x       y       z     vdW  Elec       q    Type
REMARK                         _______ _______ _______ _____ _____    ______ ____
ROOT
ATOM      1  N   UNL     1       6.876   5.537  17.684  0.00  0.00    +0.000 N 
ATOM      2  C   UNL     1       5.902   4.881  18.376  0.00  0.00    +0.000 A 
ATOM      3  N   UNL     1       5.736   4.961  19.647  0.00  0.00    +0.000 NA
ATOM      4  N   UNL     1       5.131   4.093  17.579  0.00  0.00    +0.000 N 
ATOM      5  C   UNL     1       5.656   4.255  16.342  0.00  0.00    +0.000 A 
ATOM      6  C   UNL     1       5.276   3.658  15.138  0.00  0.00    +0.000 A 
ATOM      7  C   UNL     1       6.013   3.984  13.982  0.00  0.00    +0.000 A 
ATOM      8  C   UNL     1       7.095   4.887  14.053  0.00  0.00    +0.000 A 
ATOM      9  C   UNL     1       7.458   5.472  15.277  0.00  0.00    +0.000 A 
ATOM     10  C   UNL     1       6.714   5.128  16.409  0.00  0.00    +0.000 A 
ATOM     11  H   UNL     1       6.333   5.541  20.247  0.00  0.00    +0.000 HD
ENDROOT
BRANCH   1  12
ATOM     12  C   UNL     1       7.895   6.463  18.190  0.00  0.00    +0.000 C 
BRANCH  12  14
ATOM     13  C   UNL     1       8.316   8.902  18.101  0.00  0.00    +0.000 C 
ATOM     14  C   UNL     1       7.668   7.835  17.623  0.00  0.00    +0.000 C 
ENDBRANCH  12  14
ENDBRANCH   1  12
BRANCH   4  15
ATOM     15  C   UNL     1       4.042   3.198  17.993  0.00  0.00    +0.000 C 
BRANCH  15  16
ATOM     16  C   UNL     1       2.672   3.852  17.990  0.00  0.00    +0.000 C 
ATOM     17  O   UNL     1       1.783   3.285  17.370  0.00  0.00    +0.000 OA
BRANCH  16  18
ATOM     18  C   UNL     1       2.321   5.072  18.785  0.00  0.00    +0.000 A 
ATOM     19  C   UNL     1       2.522   6.375  18.291  0.00  0.00    +0.000 A 
ATOM     20  C   UNL     1       2.219   7.493  19.080  0.00  0.00    +0.000 A 
ATOM     21  C   UNL     1       1.716   7.327  20.372  0.00  0.00    +0.000 A 
ATOM     22 CL   UNL     1       1.350   8.727  21.366  0.00  0.00    +0.000 Cl
ATOM     23  C   UNL     1       1.513   6.043  20.878  0.00  0.00    +0.000 A 
ATOM     24  C   UNL     1       1.812   4.925  20.093  0.00  0.00    +0.000 A 
ENDBRANCH  16  18
ENDBRANCH  15  16
ENDBRANCH   4  15
TORSDOF 5
ENDMDL
MODEL 2
REMARK VINA RESULT:      -7.7      0.096      1.012
REMARK  Name = 
REMARK  5 active torsions:
REMARK  status: ('A' for Active; 'I' for Inactive)
REMARK    1  A    between atoms: C_2  and  C_3
REMARK    2  A    between atoms: C_3  and  N_4
REMARK    3  A    between atoms: N_7  and  C_8
REMARK    4  A    between atoms: C_8  and  C_9
REMARK    5  A    between atoms: C_9  and  C_11
REMARK                            x       y       z     vdW  Elec       q    Type
REMARK                         _______ _______ _______ _____ _____    ______ ____
ROOT
ATOM      1  N   UNL     1       6.885   5.491  17.622  0.00  0.00    +0.000 N 
ATOM      2  C   UNL     1       5.907   4.861  18.330  0.00  0.00    +0.000 A 
ATOM      3  N   UNL     1       5.750   4.962  19.601  0.00  0.00    +0.000 NA
ATOM      4  N   UNL     1       5.119   4.072  17.550  0.00  0.00    +0.000 N 
ATOM      5  C   UNL     1       5.638   4.208  16.308  0.00  0.00    +0.000 A 
ATOM      6  C   UNL     1       5.241   3.599  15.115  0.00  0.00    +0.000 A 
ATOM      7  C   UNL     1       5.974   3.897  13.950  0.00  0.00    +0.000 A 
ATOM      8  C   UNL     1       7.070   4.784  14.000  0.00  0.00    +0.000 A 
ATOM      9  C   UNL     1       7.450   5.382  15.212  0.00  0.00    +0.000 A 
ATOM     10  C   UNL     1       6.709   5.066  16.354  0.00  0.00    +0.000 A 
ATOM     11  H   UNL     1       6.360   5.542  20.188  0.00  0.00    +0.000 HD
ENDROOT
BRANCH   1  12
ATOM     12  C   UNL     1       7.922   6.410  18.107  0.00  0.00    +0.000 C 
BRANCH  12  14
ATOM     13  C   UNL     1       8.375   8.843  18.036  0.00  0.00    +0.000 C 
ATOM     14  C   UNL     1       7.554   7.825  17.765  0.00  0.00    +0.000 C 
ENDBRANCH  12  14
ENDBRANCH   1  12
BRANCH   4  15
ATOM     15  C   UNL     1       4.019   3.200  17.985  0.00  0.00    +0.000 C 
BRANCH  15  16
ATOM     16  C   UNL     1       2.664   3.884  18.014  0.00  0.00    +0.000 C 
ATOM     17  O   UNL     1       1.756   3.351  17.391  0.00  0.00    +0.000 OA
BRANCH  16  18
ATOM     18  C   UNL     1       2.350   5.091  18.842  0.00  0.00    +0.000 A 
ATOM     19  C   UNL     1       1.843   4.995  20.152  0.00  0.00    +0.000 A 
ATOM     20  C   UNL     1       1.523   6.148  20.881  0.00  0.00    +0.000 A 
ATOM     21  C   UNL     1       1.701   7.412  20.314  0.00  0.00    +0.000 A 
ATOM     22 CL   UNL     1       1.288   8.856  21.222  0.00  0.00    +0.000 Cl
ATOM     23  C   UNL     1       2.201   7.526  19.016  0.00  0.00    +0.000 A 
ATOM     24  C   UNL     1       2.524   6.378  18.287  0.00  0.00    +0.000 A 
ENDBRANCH  16  18
ENDBRANCH  15  16
ENDBRANCH   4  15
TORSDOF 5
ENDMDL
MODEL 3
REMARK VINA RESULT:      -7.6      2.499      5.869
REMARK  Name = 
REMARK  5 active torsions:
REMARK  status: ('A' for Active; 'I' for Inactive)
REMARK    1  A    between atoms: C_2  and  C_3
REMARK    2  A    between atoms: C_3  and  N_4
REMARK    3  A    between atoms: N_7  and  C_8
REMARK    4  A    between atoms: C_8  and  C_9
REMARK    5  A    between atoms: C_9  and  C_11
REMARK                            x       y       z     vdW  Elec       q    Type
REMARK                         _______ _______ _______ _____ _____    ______ ____
ROOT
ATOM      1  N   UNL     1       3.117   3.953  19.613  0.00  0.00    +0.000 N 
ATOM      2  C   UNL     1       3.787   3.524  18.507  0.00  0.00    +0.000 A 
ATOM      3  N   UNL     1       4.259   2.339  18.357  0.00  0.00    +0.000 NA
ATOM      4  N   UNL     1       3.942   4.503  17.574  0.00  0.00    +0.000 N 
ATOM      5  C   UNL     1       3.355   5.588  18.129  0.00  0.00    +0.000 A 
ATOM      6  C   UNL     1       3.243   6.886  17.625  0.00  0.00    +0.000 A 
ATOM      7  C   UNL     1       2.596   7.848  18.425  0.00  0.00    +0.000 A 
ATOM      8  C   UNL     1       2.081   7.499  19.691  0.00  0.00    +0.000 A 
ATOM      9  C   UNL     1       2.207   6.187  20.176  0.00  0.00    +0.000 A 
ATOM     10  C   UNL     1       2.858   5.253  19.365  0.00  0.00    +0.000 A 
ATOM     11  H   UNL     1       4.157   1.610  19.072  0.00  0.00    +0.000 HD
ENDROOT
BRANCH   1  12
ATOM     12  C   UNL     1       2.764   3.199  20.821  0.00  0.00    +0.000 C 
BRANCH  12  14
ATOM     13  C   UNL     1       0.670   2.763  19.573  0.00  0.00    +0.000 C 
ATOM     14  C   UNL     1       1.351   2.699  20.720  0.00  0.00    +0.000 C 
ENDBRANCH  12  14
ENDBRANCH   1  12
BRANCH   4  15
ATOM     15  C   UNL     1       4.669   4.416  16.300  0.00  0.00    +0.000 C 
BRANCH  15  16
ATOM     16  C   UNL     1       6.171   4.587  16.433  0.00  0.00    +0.000 C 
ATOM     17  O   UNL     1       6.880   3.773  15.858  0.00  0.00    +0.000 OA
BRANCH  16  18
ATOM     18  C   UNL     1       6.826   5.743  17.123  0.00  0.00    +0.000 A 
ATOM     19  C   UNL     1       6.789   7.051  16.601  0.00  0.00    +0.000 A 
ATOM     20  C   UNL     1       7.448   8.101  17.254  0.00  0.00    +0.000 A 
ATOM     21  C   UNL     1       8.157   7.861  18.433  0.00  0.00    +0.000 A 
ATOM     22 CL   UNL     1       8.995   9.174  19.244  0.00  0.00    +0.000 Cl
ATOM     23  C   UNL     1       8.207   6.571  18.963  0.00  0.00    +0.000 A 
ATOM     24  C   UNL     1       7.548   5.522  18.316  0.00  0.00    +0.000 A 
ENDBRANCH  16  18
ENDBRANCH  15  16
ENDBRANCH   4  15
TORSDOF 5
ENDMDL
MODEL 4
REMARK VINA RESULT:      -7.5      3.199      6.366
REMARK  Name = 
REMARK  5 active torsions:
REMARK  status: ('A' for Active; 'I' for Inactive)
REMARK    1  A    between atoms: C_2  and  C_3
REMARK    2  A    between atoms: C_3  and  N_4
REMARK    3  A    between atoms: N_7  and  C_8
REMARK    4  A    between atoms: C_8  and  C_9
REMARK    5  A    between atoms: C_9  and  C_11
REMARK                            x       y       z     vdW  Elec       q    Type
REMARK                         _______ _______ _______ _____ _____    ______ ____
ROOT
ATOM      1  N   UNL     1       3.286   4.231  19.132  0.00  0.00    +0.000 N 
ATOM      2  C   UNL     1       4.640   4.086  19.174  0.00  0.00    +0.000 A 
ATOM      3  N   UNL     1       5.247   3.059  19.652  0.00  0.00    +0.000 NA
ATOM      4  N   UNL     1       5.300   5.169  18.681  0.00  0.00    +0.000 N 
ATOM      5  C   UNL     1       4.316   6.029  18.332  0.00  0.00    +0.000 A 
ATOM      6  C   UNL     1       4.416   7.315  17.797  0.00  0.00    +0.000 A 
ATOM      7  C   UNL     1       3.221   8.016  17.542  0.00  0.00    +0.000 A 
ATOM      8  C   UNL     1       1.971   7.425  17.822  0.00  0.00    +0.000 A 
ATOM      9  C   UNL     1       1.896   6.131  18.360  0.00  0.00    +0.000 A 
ATOM     10  C   UNL     1       3.097   5.460  18.608  0.00  0.00    +0.000 A 
ATOM     11  H   UNL     1       4.744   2.253  20.041  0.00  0.00    +0.000 HD
ENDROOT
BRANCH   1  12
ATOM     12  C   UNL     1       2.249   3.291  19.573  0.00  0.00    +0.000 C 
BRANCH  12  14
ATOM     13  C   UNL     1       1.426   2.562  21.792  0.00  0.00    +0.000 C 
ATOM     14  C   UNL     1       1.918   3.534  21.018  0.00  0.00    +0.000 C 
ENDBRANCH  12  14
ENDBRANCH   1  12
BRANCH   4  15
ATOM     15  C   UNL     1       6.753   5.384  18.635  0.00  0.00    +0.000 C 
BRANCH  15  16
ATOM     16  C   UNL     1       7.455   4.624  17.524  0.00  0.00    +0.000 C 
ATOM     17  O   UNL     1       8.518   4.086  17.800  0.00  0.00    +0.000 OA
BRANCH  16  18
ATOM     18  C   UNL     1       6.873   4.401  16.162  0.00  0.00    +0.000 A 
ATOM     19  C   UNL     1       5.755   3.571  15.947  0.00  0.00    +0.000 A 
ATOM     20  C   UNL     1       5.264   3.355  14.653  0.00  0.00    +0.000 A 
ATOM     21  C   UNL     1       5.882   3.958  13.556  0.00  0.00    +0.000 A 
ATOM     22 CL   UNL     1       5.275   3.676  11.933  0.00  0.00    +0.000 Cl
ATOM     23  C   UNL     1       6.992   4.781  13.750  0.00  0.00    +0.000 A 
ATOM     24  C   UNL     1       7.483   5.002  15.040  0.00  0.00    +0.000 A 
ENDBRANCH  16  18
ENDBRANCH  15  16
ENDBRANCH   4  15
TORSDOF 5
ENDMDL
MODEL 5
REMARK VINA RESULT:      -7.2      3.310      6.437
REMARK  Name = 
REMARK  5 active torsions:
REMARK  status: ('A' for Active; 'I' for Inactive)
REMARK    1  A    between atoms: C_2  and  C_3
REMARK    2  A    between atoms: C_3  and  N_4
REMARK    3  A    between atoms: N_7  and  C_8
REMARK    4  A    between atoms: C_8  and  C_9
REMARK    5  A    between atoms: C_9  and  C_11
REMARK                            x       y       z     vdW  Elec       q    Type
REMARK                         _______ _______ _______ _____ _____    ______ ____
ROOT
ATOM      1  N   UNL     1       3.445   4.442  19.435  0.00  0.00    +0.000 N 
ATOM      2  C   UNL     1       4.718   4.061  19.135  0.00  0.00    +0.000 A 
ATOM      3  N   UNL     1       5.272   2.981  19.556  0.00  0.00    +0.000 NA
ATOM      4  N   UNL     1       5.370   4.970  18.360  0.00  0.00    +0.000 N 
ATOM      5  C   UNL     1       4.469   5.964  18.183  0.00  0.00    +0.000 A 
ATOM      6  C   UNL     1       4.609   7.169  17.491  0.00  0.00    +0.000 A 
ATOM      7  C   UNL     1       3.511   8.051  17.478  0.00  0.00    +0.000 A 
ATOM      8  C   UNL     1       2.314   7.715  18.145  0.00  0.00    +0.000 A 
ATOM      9  C   UNL     1       2.199   6.497  18.835  0.00  0.00    +0.000 A 
ATOM     10  C   UNL     1       3.304   5.643  18.836  0.00  0.00    +0.000 A 
ATOM     11  H   UNL     1       4.782   2.308  20.157  0.00  0.00    +0.000 HD
ENDROOT
BRANCH   1  12
ATOM     12  C   UNL     1       2.443   3.737  20.242  0.00  0.00    +0.000 C 
BRANCH  12  14
ATOM     13  C   UNL     1       1.554   1.962  18.761  0.00  0.00    +0.000 C 
ATOM     14  C   UNL     1       1.386   3.149  19.350  0.00  0.00    +0.000 C 
ENDBRANCH  12  14
ENDBRANCH   1  12
BRANCH   4  15
ATOM     15  C   UNL     1       6.767   4.919  17.908  0.00  0.00    +0.000 C 
BRANCH  15  16
ATOM     16  C   UNL     1       6.988   5.498  16.522  0.00  0.00    +0.000 C 
ATOM     17  O   UNL     1       7.627   6.539  16.446  0.00  0.00    +0.000 OA
BRANCH  16  18
ATOM     18  C   UNL     1       6.575   4.820  15.253  0.00  0.00    +0.000 A 
ATOM     19  C   UNL     1       7.355   4.875  14.081  0.00  0.00    +0.000 A 
ATOM     20  C   UNL     1       6.916   4.261  12.901  0.00  0.00    +0.000 A 
ATOM     21  C   UNL     1       5.693   3.587  12.871  0.00  0.00    +0.000 A 
ATOM     22 CL   UNL     1       5.137   2.829  11.388  0.00  0.00    +0.000 Cl
ATOM     23  C   UNL     1       4.907   3.524  14.021  0.00  0.00    +0.000 A 
ATOM     24  C   UNL     1       5.343   4.133  15.202  0.00  0.00    +0.000 A 
ENDBRANCH  16  18
ENDBRANCH  15  16
ENDBRANCH   4  15
TORSDOF 5
ENDMDL
MODEL 6
REMARK VINA RESULT:      -7.2      3.176      6.305
REMARK  Name = 
REMARK  5 active torsions:
REMARK  status: ('A' for Active; 'I' for Inactive)
REMARK    1  A    between atoms: C_2  and  C_3
REMARK    2  A    between atoms: C_3  and  N_4
REMARK    3  A    between atoms: N_7  and  C_8
REMARK    4  A    between atoms: C_8  and  C_9
REMARK    5  A    between atoms: C_9  and  C_11
REMARK                            x       y       z     vdW  Elec       q    Type
REMARK                         _______ _______ _______ _____ _____    ______ ____
ROOT
ATOM      1  N   UNL     1       3.293   4.365  19.209  0.00  0.00    +0.000 N 
ATOM      2  C   UNL     1       4.645   4.202  19.231  0.00  0.00    +0.000 A 
ATOM      3  N   UNL     1       5.247   3.178  19.720  0.00  0.00    +0.000 NA
ATOM      4  N   UNL     1       5.311   5.266  18.704  0.00  0.00    +0.000 N 
ATOM      5  C   UNL     1       4.331   6.131  18.353  0.00  0.00    +0.000 A 
ATOM      6  C   UNL     1       4.439   7.404  17.789  0.00  0.00    +0.000 A 
ATOM      7  C   UNL     1       3.248   8.115  17.540  0.00  0.00    +0.000 A 
ATOM      8  C   UNL     1       1.995   7.547  17.853  0.00  0.00    +0.000 A 
ATOM      9  C   UNL     1       1.914   6.266  18.421  0.00  0.00    +0.000 A 
ATOM     10  C   UNL     1       3.110   5.584  18.663  0.00  0.00    +0.000 A 
ATOM     11  H   UNL     1       4.741   2.387  20.135  0.00  0.00    +0.000 HD
ENDROOT
BRANCH   1  12
ATOM     12  C   UNL     1       2.252   3.448  19.688  0.00  0.00    +0.000 C 
BRANCH  12  14
ATOM     13  C   UNL     1       2.349   1.872  17.780  0.00  0.00    +0.000 C 
ATOM     14  C   UNL     1       1.636   2.720  18.527  0.00  0.00    +0.000 C 
ENDBRANCH  12  14
ENDBRANCH   1  12
BRANCH   4  15
ATOM     15  C   UNL     1       6.765   5.462  18.628  0.00  0.00    +0.000 C 
BRANCH  15  16
ATOM     16  C   UNL     1       7.440   4.654  17.534  0.00  0.00    +0.000 C 
ATOM     17  O   UNL     1       8.485   4.087  17.822  0.00  0.00    +0.000 OA
BRANCH  16  18
ATOM     18  C   UNL     1       6.850   4.420  16.178  0.00  0.00    +0.000 A 
ATOM     19  C   UNL     1       5.710   3.618  15.980  0.00  0.00    +0.000 A 
ATOM     20  C   UNL     1       5.211   3.390  14.691  0.00  0.00    +0.000 A 
ATOM     21  C   UNL     1       5.844   3.954  13.582  0.00  0.00    +0.000 A 
ATOM     22 CL   UNL     1       5.226   3.657  11.965  0.00  0.00    +0.000 Cl
ATOM     23  C   UNL     1       6.976   4.750  13.758  0.00  0.00    +0.000 A 
ATOM     24  C   UNL     1       7.475   4.983  15.043  0.00  0.00    +0.000 A 
ENDBRANCH  16  18
ENDBRANCH  15  16
ENDBRANCH   4  15
TORSDOF 5
ENDMDL
MODEL 7
REMARK VINA RESULT:      -7.1      2.444      4.405
REMARK  Name = 
REMARK  5 active torsions:
REMARK  status: ('A' for Active; 'I' for Inactive)
REMARK    1  A    between atoms: C_2  and  C_3
REMARK    2  A    between atoms: C_3  and  N_4
REMARK    3  A    between atoms: N_7  and  C_8
REMARK    4  A    between atoms: C_8  and  C_9
REMARK    5  A    between atoms: C_9  and  C_11
REMARK                            x       y       z     vdW  Elec       q    Type
REMARK                         _______ _______ _______ _____ _____    ______ ____
ROOT
ATOM      1  N   UNL     1       4.890   5.040  18.194  0.00  0.00    +0.000 N 
ATOM      2  C   UNL     1       4.182   6.039  17.597  0.00  0.00    +0.000 A 
ATOM      3  N   UNL     1       4.677   6.887  16.769  0.00  0.00    +0.000 NA
ATOM      4  N   UNL     1       2.881   6.073  17.996  0.00  0.00    +0.000 N 
ATOM      5  C   UNL     1       2.781   5.061  18.889  0.00  0.00    +0.000 A 
ATOM      6  C   UNL     1       1.676   4.653  19.639  0.00  0.00    +0.000 A 
ATOM      7  C   UNL     1       1.846   3.572  20.526  0.00  0.00    +0.000 A 
ATOM      8  C   UNL     1       3.098   2.931  20.642  0.00  0.00    +0.000 A 
ATOM      9  C   UNL     1       4.194   3.362  19.878  0.00  0.00    +0.000 A 
ATOM     10  C   UNL     1       3.999   4.439  19.010  0.00  0.00    +0.000 A 
ATOM     11  H   UNL     1       5.664   6.870  16.486  0.00  0.00    +0.000 HD
ENDROOT
BRANCH   1  12
ATOM     12  C   UNL     1       6.305   4.692  18.025  0.00  0.00    +0.000 C 
BRANCH  12  14
ATOM     13  C   UNL     1       7.874   6.533  18.557  0.00  0.00    +0.000 C 
ATOM     14  C   UNL     1       7.148   5.493  18.976  0.00  0.00    +0.000 C 
ENDBRANCH  12  14
ENDBRANCH   1  12
BRANCH   4  15
ATOM     15  C   UNL     1       1.854   7.051  17.612  0.00  0.00    +0.000 C 
BRANCH  15  16
ATOM     16  C   UNL     1       2.034   8.417  18.247  0.00  0.00    +0.000 C 
ATOM     17  O   UNL     1       2.778   9.205  17.678  0.00  0.00    +0.000 OA
BRANCH  16  18
ATOM     18  C   UNL     1       1.277   8.891  19.449  0.00  0.00    +0.000 A 
ATOM     19  C   UNL     1       0.393   9.987  19.398  0.00  0.00    +0.000 A 
ATOM     20  C   UNL     1      -0.267  10.427  20.553  0.00  0.00    +0.000 A 
ATOM     21  C   UNL     1      -0.053   9.783  21.774  0.00  0.00    +0.000 A 
ATOM     22 CL   UNL     1      -0.870  10.342  23.224  0.00  0.00    +0.000 Cl
ATOM     23  C   UNL     1       0.820   8.697  21.843  0.00  0.00    +0.000 A 
ATOM     24  C   UNL     1       1.478   8.254  20.692  0.00  0.00    +0.000 A 
ENDBRANCH  16  18
ENDBRANCH  15  16
ENDBRANCH   4  15
TORSDOF 5
ENDMDL
MODEL 8
REMARK VINA RESULT:      -7.1      2.577      4.774
REMARK  Name = 
REMARK  5 active torsions:
REMARK  status: ('A' for Active; 'I' for Inactive)
REMARK    1  A    between atoms: C_2  and  C_3
REMARK    2  A    between atoms: C_3  and  N_4
REMARK    3  A    between atoms: N_7  and  C_8
REMARK    4  A    between atoms: C_8  and  C_9
REMARK    5  A    between atoms: C_9  and  C_11
REMARK                            x       y       z     vdW  Elec       q    Type
REMARK                         _______ _______ _______ _____ _____    ______ ____
ROOT
ATOM      1  N   UNL     1       4.523   4.638  17.191  0.00  0.00    +0.000 N 
ATOM      2  C   UNL     1       4.386   5.893  17.702  0.00  0.00    +0.000 A 
ATOM      3  N   UNL     1       5.223   6.849  17.517  0.00  0.00    +0.000 NA
ATOM      4  N   UNL     1       3.271   6.028  18.472  0.00  0.00    +0.000 N 
ATOM      5  C   UNL     1       2.700   4.801  18.448  0.00  0.00    +0.000 A 
ATOM      6  C   UNL     1       1.544   4.354  19.091  0.00  0.00    +0.000 A 
ATOM      7  C   UNL     1       1.175   3.006  18.918  0.00  0.00    +0.000 A 
ATOM      8  C   UNL     1       1.956   2.147  18.116  0.00  0.00    +0.000 A 
ATOM      9  C   UNL     1       3.115   2.620  17.480  0.00  0.00    +0.000 A 
ATOM     10  C   UNL     1       3.461   3.960  17.673  0.00  0.00    +0.000 A 
ATOM     11  H   UNL     1       6.073   6.736  16.953  0.00  0.00    +0.000 HD
ENDROOT
BRANCH   1  12
ATOM     12  C   UNL     1       5.587   4.110  16.328  0.00  0.00    +0.000 C 
BRANCH  12  14
ATOM     13  C   UNL     1       6.017   3.995  13.892  0.00  0.00    +0.000 C 
ATOM     14  C   UNL     1       5.374   4.568  14.913  0.00  0.00    +0.000 C 
ENDBRANCH  12  14
ENDBRANCH   1  12
BRANCH   4  15
ATOM     15  C   UNL     1       2.848   7.213  19.230  0.00  0.00    +0.000 C 
BRANCH  15  16
ATOM     16  C   UNL     1       2.171   8.277  18.385  0.00  0.00    +0.000 C 
ATOM     17  O   UNL     1       2.428   8.288  17.189  0.00  0.00    +0.000 OA
BRANCH  16  18
ATOM     18  C   UNL     1       1.136   9.227  18.902  0.00  0.00    +0.000 A 
ATOM     19  C   UNL     1       0.911   9.420  20.279  0.00  0.00    +0.000 A 
ATOM     20  C   UNL     1      -0.095  10.288  20.724  0.00  0.00    +0.000 A 
ATOM     21  C   UNL     1      -0.893  10.971  19.804  0.00  0.00    +0.000 A 
ATOM     22 CL   UNL     1      -2.162  12.048  20.362  0.00  0.00    +0.000 Cl
ATOM     23  C   UNL     1      -0.686  10.790  18.437  0.00  0.00    +0.000 A 
ATOM     24  C   UNL     1       0.319   9.928  17.989  0.00  0.00    +0.000 A 
ENDBRANCH  16  18
ENDBRANCH  15  16
ENDBRANCH   4  15
TORSDOF 5
ENDMDL
MODEL 9
REMARK VINA RESULT:      -7.1      2.491      4.750
REMARK  Name = 
REMARK  5 active torsions:
REMARK  status: ('A' for Active; 'I' for Inactive)
REMARK    1  A    between atoms: C_2  and  C_3
REMARK    2  A    between atoms: C_3  and  N_4
REMARK    3  A    between atoms: N_7  and  C_8
REMARK    4  A    between atoms: C_8  and  C_9
REMARK    5  A    between atoms: C_9  and  C_11
REMARK                            x       y       z     vdW  Elec       q    Type
REMARK                         _______ _______ _______ _____ _____    ______ ____
ROOT
ATOM      1  N   UNL     1       3.825   4.650  17.142  0.00  0.00    +0.000 N 
ATOM      2  C   UNL     1       3.878   5.852  17.781  0.00  0.00    +0.000 A 
ATOM      3  N   UNL     1       4.678   6.807  17.468  0.00  0.00    +0.000 NA
ATOM      4  N   UNL     1       3.008   5.931  18.825  0.00  0.00    +0.000 N 
ATOM      5  C   UNL     1       2.399   4.723  18.843  0.00  0.00    +0.000 A 
ATOM      6  C   UNL     1       1.432   4.236  19.725  0.00  0.00    +0.000 A 
ATOM      7  C   UNL     1       0.974   2.917  19.535  0.00  0.00    +0.000 A 
ATOM      8  C   UNL     1       1.484   2.126  18.483  0.00  0.00    +0.000 A 
ATOM      9  C   UNL     1       2.456   2.639  17.611  0.00  0.00    +0.000 A 
ATOM     10  C   UNL     1       2.897   3.948  17.824  0.00  0.00    +0.000 A 
ATOM     11  H   UNL     1       5.347   6.735  16.693  0.00  0.00    +0.000 HD
ENDROOT
BRANCH   1  12
ATOM     12  C   UNL     1       4.605   4.191  15.987  0.00  0.00    +0.000 C 
BRANCH  12  14
ATOM     13  C   UNL     1       6.972   4.646  15.421  0.00  0.00    +0.000 C 
ATOM     14  C   UNL     1       6.071   4.225  16.312  0.00  0.00    +0.000 C 
ENDBRANCH  12  14
ENDBRANCH   1  12
BRANCH   4  15
ATOM     15  C   UNL     1       2.846   7.045  19.770  0.00  0.00    +0.000 C 
BRANCH  15  16
ATOM     16  C   UNL     1       1.910   8.136  19.283  0.00  0.00    +0.000 C 
ATOM     17  O   UNL     1       1.805   8.284  18.074  0.00  0.00    +0.000 OA
BRANCH  16  18
ATOM     18  C   UNL     1       1.033   8.953  20.181  0.00  0.00    +0.000 A 
ATOM     19  C   UNL     1       0.323  10.078  19.721  0.00  0.00    +0.000 A 
ATOM     20  C   UNL     1      -0.455  10.842  20.600  0.00  0.00    +0.000 A 
ATOM     21  C   UNL     1      -0.535  10.496  21.951  0.00  0.00    +0.000 A 
ATOM     22 CL   UNL     1      -1.500  11.461  23.056  0.00  0.00    +0.000 Cl
ATOM     23  C   UNL     1       0.163   9.385  22.426  0.00  0.00    +0.000 A 
ATOM     24  C   UNL     1       0.939   8.619  21.550  0.00  0.00    +0.000 A 
ENDBRANCH  16  18
ENDBRANCH  15  16
ENDBRANCH   4  15
TORSDOF 5
ENDMDL
