MODEL 1
REMARK VINA RESULT:      -7.6      0.000      0.000
REMARK  Name = 
REMARK  9 active torsions:
REMARK  status: ('A' for Active; 'I' for Inactive)
REMARK    1  A    between atoms: C_1  and  C_2
REMARK    2  A    between atoms: C_4  and  S_5
REMARK    3  A    between atoms: S_5  and  N_8
REMARK    4  A    between atoms: N_8  and  C_9
REMARK    5  A    between atoms: C_17  and  O_18
REMARK    6  A    between atoms: O_18  and  C_19
REMARK    7  A    between atoms: C_19  and  C_20
REMARK    8  A    between atoms: N_22  and  C_23
REMARK    9  A    between atoms: C_23  and  C_24
REMARK                            x       y       z     vdW  Elec       q    Type
REMARK                         _______ _______ _______ _____ _____    ______ ____
ROOT
ATOM      1  C   UNL     1       7.036   4.707  15.182  0.00  0.00    +0.000 C 
ATOM      2  C   UNL     1       6.423   4.508  16.543  0.00  0.00    +0.000 A 
ATOM      3  C   UNL     1       5.255   3.716  16.634  0.00  0.00    +0.000 A 
ATOM      4  C   UNL     1       4.627   3.493  17.860  0.00  0.00    +0.000 A 
ATOM      5  C   UNL     1       5.213   3.989  19.031  0.00  0.00    +0.000 A 
ATOM      6  C   UNL     1       6.376   4.759  18.954  0.00  0.00    +0.000 A 
ATOM      7  C   UNL     1       6.961   5.076  17.717  0.00  0.00    +0.000 A 
ENDROOT
BRANCH   4   8
ATOM      8  S   UNL     1       3.214   2.418  17.958  0.00  0.00    +0.000 S 
ATOM      9  O   UNL     1       2.455   2.649  16.736  0.00  0.00    +0.000 OA
ATOM     10  O   UNL     1       3.685   1.097  18.294  0.00  0.00    +0.000 OA
BRANCH   8  11
ATOM     11  N   UNL     1       2.237   2.986  19.192  0.00  0.00    +0.000 NA
ATOM     12  H   UNL     1       2.447   2.577  20.097  0.00  0.00    +0.000 HD
BRANCH  11  13
ATOM     13  C   UNL     1       1.268   4.088  19.096  0.00  0.00    +0.000 C 
ATOM     14  C   UNL     1       1.130   4.747  20.488  0.00  0.00    +0.000 C 
ATOM     15  C   UNL     1       2.215   5.780  20.801  0.00  0.00    +0.000 C 
ATOM     16  C   UNL     1       2.224   6.876  19.746  0.00  0.00    +0.000 C 
ATOM     17  C   UNL     1       2.526   6.283  18.382  0.00  0.00    +0.000 C 
ATOM     18  C   UNL     1       1.594   5.125  18.005  0.00  0.00    +0.000 C 
ENDBRANCH  11  13
ENDBRANCH   8  11
ENDBRANCH   4   8
BRANCH   7  19
ATOM     19  O   UNL     1       8.044   5.925  17.600  0.00  0.00    +0.000 OA
BRANCH  19  20
ATOM     20  C   UNL     1       8.018   7.045  18.493  0.00  0.00    +0.000 C 
BRANCH  20  21
ATOM     21  C   UNL     1       7.811   8.413  17.828  0.00  0.00    +0.000 C 
ATOM     22  O   UNL     1       7.045   8.548  16.874  0.00  0.00    +0.000 OA
ATOM     23  N   UNL     1       8.562   9.424  18.343  0.00  0.00    +0.000 N 
ATOM     24  H   UNL     1       9.233   9.213  19.079  0.00  0.00    +0.000 HD
BRANCH  23  25
ATOM     25  C   UNL     1       8.545  10.780  17.807  0.00  0.00    +0.000 C 
BRANCH  25  26
ATOM     26  C   UNL     1       9.424  11.722  18.634  0.00  0.00    +0.000 C 
ATOM     27  C   UNL     1      10.917  11.502  18.449  0.00  0.00    +0.000 C 
ATOM     28  C   UNL     1      11.473  11.985  19.763  0.00  0.00    +0.000 C 
ATOM     29  C   UNL     1      10.399  11.575  20.748  0.00  0.00    +0.000 C 
ATOM     30  O   UNL     1       9.154  11.545  20.039  0.00  0.00    +0.000 OA
ENDBRANCH  25  26
ENDBRANCH  23  25
ENDBRANCH  20  21
ENDBRANCH  19  20
ENDBRANCH   7  19
TORSDOF 8
ENDMDL
MODEL 2
REMARK VINA RESULT:      -7.6      4.589      6.968
REMARK  Name = 
REMARK  9 active torsions:
REMARK  status: ('A' for Active; 'I' for Inactive)
REMARK    1  A    between atoms: C_1  and  C_2
REMARK    2  A    between atoms: C_4  and  S_5
REMARK    3  A    between atoms: S_5  and  N_8
REMARK    4  A    between atoms: N_8  and  C_9
REMARK    5  A    between atoms: C_17  and  O_18
REMARK    6  A    between atoms: O_18  and  C_19
REMARK    7  A    between atoms: C_19  and  C_20
REMARK    8  A    between atoms: N_22  and  C_23
REMARK    9  A    between atoms: C_23  and  C_24
REMARK                            x       y       z     vdW  Elec       q    Type
REMARK                         _______ _______ _______ _____ _____    ______ ____
ROOT
ATOM      1  C   UNL     1       1.538   7.076  20.733  0.00  0.00    +0.000 C 
ATOM      2  C   UNL     1       2.467   7.040  19.548  0.00  0.00    +0.000 A 
ATOM      3  C   UNL     1       3.449   6.024  19.507  0.00  0.00    +0.000 A 
ATOM      4  C   UNL     1       4.349   5.933  18.444  0.00  0.00    +0.000 A 
ATOM      5  C   UNL     1       4.219   6.808  17.359  0.00  0.00    +0.000 A 
ATOM      6  C   UNL     1       3.242   7.805  17.382  0.00  0.00    +0.000 A 
ATOM      7  C   UNL     1       2.396   7.972  18.490  0.00  0.00    +0.000 A 
ENDROOT
BRANCH   4   8
ATOM      8  S   UNL     1       5.514   4.592  18.372  0.00  0.00    +0.000 S 
ATOM      9  O   UNL     1       5.838   4.423  16.962  0.00  0.00    +0.000 OA
ATOM     10  O   UNL     1       6.551   4.854  19.340  0.00  0.00    +0.000 OA
BRANCH   8  11
ATOM     11  N   UNL     1       4.698   3.196  18.803  0.00  0.00    +0.000 NA
ATOM     12  H   UNL     1       4.829   2.932  19.774  0.00  0.00    +0.000 HD
BRANCH  11  13
ATOM     13  C   UNL     1       3.732   2.463  17.971  0.00  0.00    +0.000 C 
ATOM     14  C   UNL     1       2.981   1.449  18.864  0.00  0.00    +0.000 C 
ATOM     15  C   UNL     1       1.802   2.047  19.636  0.00  0.00    +0.000 C 
ATOM     16  C   UNL     1       0.804   2.677  18.676  0.00  0.00    +0.000 C 
ATOM     17  C   UNL     1       1.469   3.798  17.897  0.00  0.00    +0.000 C 
ATOM     18  C   UNL     1       2.758   3.363  17.188  0.00  0.00    +0.000 C 
ENDBRANCH  11  13
ENDBRANCH   8  11
ENDBRANCH   4   8
BRANCH   7  19
ATOM     19  O   UNL     1       1.496   9.015  18.592  0.00  0.00    +0.000 OA
BRANCH  19  20
ATOM     20  C   UNL     1       1.986  10.270  18.104  0.00  0.00    +0.000 C 
BRANCH  20  21
ATOM     21  C   UNL     1       1.288  11.515  18.671  0.00  0.00    +0.000 C 
ATOM     22  O   UNL     1       1.927  12.402  19.234  0.00  0.00    +0.000 OA
ATOM     23  N   UNL     1      -0.066  11.526  18.538  0.00  0.00    +0.000 N 
ATOM     24  H   UNL     1      -0.527  10.714  18.132  0.00  0.00    +0.000 HD
BRANCH  23  25
ATOM     25  C   UNL     1      -0.908  12.594  19.064  0.00  0.00    +0.000 C 
BRANCH  25  26
ATOM     26  C   UNL     1      -1.455  12.248  20.451  0.00  0.00    +0.000 C 
ATOM     27  C   UNL     1      -0.990  13.186  21.554  0.00  0.00    +0.000 C 
ATOM     28  C   UNL     1      -1.055  12.300  22.771  0.00  0.00    +0.000 C 
ATOM     29  C   UNL     1      -0.660  10.947  22.218  0.00  0.00    +0.000 C 
ATOM     30  O   UNL     1      -1.033  10.924  20.833  0.00  0.00    +0.000 OA
ENDBRANCH  25  26
ENDBRANCH  23  25
ENDBRANCH  20  21
ENDBRANCH  19  20
ENDBRANCH   7  19
TORSDOF 8
ENDMDL
MODEL 3
REMARK VINA RESULT:      -7.6      5.096      7.485
REMARK  Name = 
REMARK  9 active torsions:
REMARK  status: ('A' for Active; 'I' for Inactive)
REMARK    1  A    between atoms: C_1  and  C_2
REMARK    2  A    between atoms: C_4  and  S_5
REMARK    3  A    between atoms: S_5  and  N_8
REMARK    4  A    between atoms: N_8  and  C_9
REMARK    5  A    between atoms: C_17  and  O_18
REMARK    6  A    between atoms: O_18  and  C_19
REMARK    7  A    between atoms: C_19  and  C_20
REMARK    8  A    between atoms: N_22  and  C_23
REMARK    9  A    between atoms: C_23  and  C_24
REMARK                            x       y       z     vdW  Elec       q    Type
REMARK                         _______ _______ _______ _____ _____    ______ ____
ROOT
ATOM      1  C   UNL     1       1.277   7.458  21.500  0.00  0.00    +0.000 C 
ATOM      2  C   UNL     1       1.469   8.230  20.222  0.00  0.00    +0.000 A 
ATOM      3  C   UNL     1       0.846   9.494  20.112  0.00  0.00    +0.000 A 
ATOM      4  C   UNL     1       0.974  10.264  18.954  0.00  0.00    +0.000 A 
ATOM      5  C   UNL     1       1.805   9.815  17.921  0.00  0.00    +0.000 A 
ATOM      6  C   UNL     1       2.439   8.575  18.027  0.00  0.00    +0.000 A 
ATOM      7  C   UNL     1       2.238   7.745  19.142  0.00  0.00    +0.000 A 
ENDROOT
BRANCH   4   8
ATOM      8  S   UNL     1       0.256  11.889  18.878  0.00  0.00    +0.000 S 
ATOM      9  O   UNL     1      -0.181  12.192  20.233  0.00  0.00    +0.000 OA
ATOM     10  O   UNL     1       1.188  12.752  18.194  0.00  0.00    +0.000 OA
BRANCH   8  11
ATOM     11  N   UNL     1      -1.151  11.774  17.980  0.00  0.00    +0.000 NA
ATOM     12  H   UNL     1      -1.292  12.552  17.344  0.00  0.00    +0.000 HD
BRANCH  11  13
ATOM     13  C   UNL     1      -2.057  10.616  17.930  0.00  0.00    +0.000 C 
ATOM     14  C   UNL     1      -3.510  11.120  18.084  0.00  0.00    +0.000 C 
ATOM     15  C   UNL     1      -4.140  11.621  16.782  0.00  0.00    +0.000 C 
ATOM     16  C   UNL     1      -4.119  10.525  15.726  0.00  0.00    +0.000 C 
ATOM     17  C   UNL     1      -2.686  10.121  15.426  0.00  0.00    +0.000 C 
ATOM     18  C   UNL     1      -1.890   9.734  16.678  0.00  0.00    +0.000 C 
ENDBRANCH  11  13
ENDBRANCH   8  11
ENDBRANCH   4   8
BRANCH   7  19
ATOM     19  O   UNL     1       2.759   6.469  19.226  0.00  0.00    +0.000 OA
BRANCH  19  20
ATOM     20  C   UNL     1       2.452   5.628  18.107  0.00  0.00    +0.000 C 
BRANCH  20  21
ATOM     21  C   UNL     1       3.641   4.856  17.518  0.00  0.00    +0.000 C 
ATOM     22  O   UNL     1       3.468   3.921  16.737  0.00  0.00    +0.000 OA
ATOM     23  N   UNL     1       4.863   5.257  17.960  0.00  0.00    +0.000 N 
ATOM     24  H   UNL     1       4.915   5.985  18.669  0.00  0.00    +0.000 HD
BRANCH  23  25
ATOM     25  C   UNL     1       6.106   4.609  17.558  0.00  0.00    +0.000 C 
BRANCH  25  26
ATOM     26  C   UNL     1       7.261   5.610  17.475  0.00  0.00    +0.000 C 
ATOM     27  C   UNL     1       7.760   6.098  18.826  0.00  0.00    +0.000 C 
ATOM     28  C   UNL     1       8.315   7.456  18.487  0.00  0.00    +0.000 C 
ATOM     29  C   UNL     1       7.373   7.940  17.405  0.00  0.00    +0.000 C 
ATOM     30  O   UNL     1       6.850   6.781  16.742  0.00  0.00    +0.000 OA
ENDBRANCH  25  26
ENDBRANCH  23  25
ENDBRANCH  20  21
ENDBRANCH  19  20
ENDBRANCH   7  19
TORSDOF 8
ENDMDL
MODEL 4
REMARK VINA RESULT:      -7.5      4.728      6.160
REMARK  Name = 
REMARK  9 active torsions:
REMARK  status: ('A' for Active; 'I' for Inactive)
REMARK    1  A    between atoms: C_1  and  C_2
REMARK    2  A    between atoms: C_4  and  S_5
REMARK    3  A    between atoms: S_5  and  N_8
REMARK    4  A    between atoms: N_8  and  C_9
REMARK    5  A    between atoms: C_17  and  O_18
REMARK    6  A    between atoms: O_18  and  C_19
REMARK    7  A    between atoms: C_19  and  C_20
REMARK    8  A    between atoms: N_22  and  C_23
REMARK    9  A    between atoms: C_23  and  C_24
REMARK                            x       y       z     vdW  Elec       q    Type
REMARK                         _______ _______ _______ _____ _____    ______ ____
ROOT
ATOM      1  C   UNL     1       1.512   6.838  20.834  0.00  0.00    +0.000 C 
ATOM      2  C   UNL     1       2.434   6.909  19.645  0.00  0.00    +0.000 A 
ATOM      3  C   UNL     1       3.439   5.922  19.527  0.00  0.00    +0.000 A 
ATOM      4  C   UNL     1       4.334   5.928  18.456  0.00  0.00    +0.000 A 
ATOM      5  C   UNL     1       4.177   6.874  17.436  0.00  0.00    +0.000 A 
ATOM      6  C   UNL     1       3.177   7.844  17.535  0.00  0.00    +0.000 A 
ATOM      7  C   UNL     1       2.334   7.911  18.657  0.00  0.00    +0.000 A 
ENDROOT
BRANCH   4   8
ATOM      8  S   UNL     1       5.529   4.623  18.283  0.00  0.00    +0.000 S 
ATOM      9  O   UNL     1       5.813   4.531  16.858  0.00  0.00    +0.000 OA
ATOM     10  O   UNL     1       6.590   4.865  19.231  0.00  0.00    +0.000 OA
BRANCH   8  11
ATOM     11  N   UNL     1       4.763   3.187  18.669  0.00  0.00    +0.000 NA
ATOM     12  H   UNL     1       4.933   2.878  19.621  0.00  0.00    +0.000 HD
BRANCH  11  13
ATOM     13  C   UNL     1       3.786   2.472  17.834  0.00  0.00    +0.000 C 
ATOM     14  C   UNL     1       3.100   1.387  18.696  0.00  0.00    +0.000 C 
ATOM     15  C   UNL     1       1.936   1.905  19.544  0.00  0.00    +0.000 C 
ATOM     16  C   UNL     1       0.883   2.556  18.659  0.00  0.00    +0.000 C 
ATOM     17  C   UNL     1       1.484   3.739  17.920  0.00  0.00    +0.000 C 
ATOM     18  C   UNL     1       2.757   3.384  17.141  0.00  0.00    +0.000 C 
ENDBRANCH  11  13
ENDBRANCH   8  11
ENDBRANCH   4   8
BRANCH   7  19
ATOM     19  O   UNL     1       1.411   8.923  18.837  0.00  0.00    +0.000 OA
BRANCH  19  20
ATOM     20  C   UNL     1       1.730  10.145  18.159  0.00  0.00    +0.000 C 
BRANCH  20  21
ATOM     21  C   UNL     1       1.334  11.430  18.898  0.00  0.00    +0.000 C 
ATOM     22  O   UNL     1       1.015  11.409  20.087  0.00  0.00    +0.000 OA
ATOM     23  N   UNL     1       1.323  12.555  18.133  0.00  0.00    +0.000 N 
ATOM     24  H   UNL     1       1.521  12.474  17.137  0.00  0.00    +0.000 HD
BRANCH  23  25
ATOM     25  C   UNL     1       0.920  13.860  18.642  0.00  0.00    +0.000 C 
BRANCH  25  26
ATOM     26  C   UNL     1       2.131  14.738  18.963  0.00  0.00    +0.000 C 
ATOM     27  C   UNL     1       1.776  16.139  19.435  0.00  0.00    +0.000 C 
ATOM     28  C   UNL     1       2.988  16.931  19.017  0.00  0.00    +0.000 C 
ATOM     29  C   UNL     1       3.393  16.259  17.722  0.00  0.00    +0.000 C 
ATOM     30  O   UNL     1       2.953  14.896  17.789  0.00  0.00    +0.000 OA
ENDBRANCH  25  26
ENDBRANCH  23  25
ENDBRANCH  20  21
ENDBRANCH  19  20
ENDBRANCH   7  19
TORSDOF 8
ENDMDL
MODEL 5
REMARK VINA RESULT:      -7.4      4.554      7.921
REMARK  Name = 
REMARK  9 active torsions:
REMARK  status: ('A' for Active; 'I' for Inactive)
REMARK    1  A    between atoms: C_1  and  C_2
REMARK    2  A    between atoms: C_4  and  S_5
REMARK    3  A    between atoms: S_5  and  N_8
REMARK    4  A    between atoms: N_8  and  C_9
REMARK    5  A    between atoms: C_17  and  O_18
REMARK    6  A    between atoms: O_18  and  C_19
REMARK    7  A    between atoms: C_19  and  C_20
REMARK    8  A    between atoms: N_22  and  C_23
REMARK    9  A    between atoms: C_23  and  C_24
REMARK                            x       y       z     vdW  Elec       q    Type
REMARK                         _______ _______ _______ _____ _____    ______ ____
ROOT
ATOM      1  C   UNL     1       2.416   8.683  17.855  0.00  0.00    +0.000 C 
ATOM      2  C   UNL     1       2.194   7.501  18.762  0.00  0.00    +0.000 A 
ATOM      3  C   UNL     1       2.325   6.208  18.207  0.00  0.00    +0.000 A 
ATOM      4  C   UNL     1       2.127   5.065  18.984  0.00  0.00    +0.000 A 
ATOM      5  C   UNL     1       1.882   5.203  20.355  0.00  0.00    +0.000 A 
ATOM      6  C   UNL     1       1.766   6.477  20.917  0.00  0.00    +0.000 A 
ATOM      7  C   UNL     1       1.863   7.634  20.127  0.00  0.00    +0.000 A 
ENDROOT
BRANCH   4   8
ATOM      8  S   UNL     1       2.388   3.452  18.284  0.00  0.00    +0.000 S 
ATOM      9  O   UNL     1       3.179   2.718  19.262  0.00  0.00    +0.000 OA
ATOM     10  O   UNL     1       1.109   2.948  17.844  0.00  0.00    +0.000 OA
BRANCH   8  11
ATOM     11  N   UNL     1       3.393   3.637  16.959  0.00  0.00    +0.000 NA
ATOM     12  H   UNL     1       2.901   3.887  16.108  0.00  0.00    +0.000 HD
BRANCH  11  13
ATOM     13  C   UNL     1       4.864   3.628  16.977  0.00  0.00    +0.000 C 
ATOM     14  C   UNL     1       5.377   4.239  15.653  0.00  0.00    +0.000 C 
ATOM     15  C   UNL     1       5.426   5.769  15.648  0.00  0.00    +0.000 C 
ATOM     16  C   UNL     1       6.300   6.276  16.785  0.00  0.00    +0.000 C 
ATOM     17  C   UNL     1       5.727   5.833  18.119  0.00  0.00    +0.000 C 
ATOM     18  C   UNL     1       5.487   4.320  18.203  0.00  0.00    +0.000 C 
ENDBRANCH  11  13
ENDBRANCH   8  11
ENDBRANCH   4   8
BRANCH   7  19
ATOM     19  O   UNL     1       1.643   8.901  20.630  0.00  0.00    +0.000 OA
BRANCH  19  20
ATOM     20  C   UNL     1       0.271   9.315  20.616  0.00  0.00    +0.000 C 
BRANCH  20  21
ATOM     21  C   UNL     1      -0.013  10.625  19.866  0.00  0.00    +0.000 C 
ATOM     22  O   UNL     1       0.875  11.454  19.674  0.00  0.00    +0.000 OA
ATOM     23  N   UNL     1      -1.307  10.800  19.484  0.00  0.00    +0.000 N 
ATOM     24  H   UNL     1      -1.998  10.103  19.754  0.00  0.00    +0.000 HD
BRANCH  23  25
ATOM     25  C   UNL     1      -1.781  12.004  18.813  0.00  0.00    +0.000 C 
BRANCH  25  26
ATOM     26  C   UNL     1      -2.297  11.697  17.405  0.00  0.00    +0.000 C 
ATOM     27  C   UNL     1      -3.807  11.530  17.319  0.00  0.00    +0.000 C 
ATOM     28  C   UNL     1      -3.957  10.614  16.132  0.00  0.00    +0.000 C 
ATOM     29  C   UNL     1      -2.741   9.719  16.248  0.00  0.00    +0.000 C 
ATOM     30  O   UNL     1      -1.721  10.466  16.924  0.00  0.00    +0.000 OA
ENDBRANCH  25  26
ENDBRANCH  23  25
ENDBRANCH  20  21
ENDBRANCH  19  20
ENDBRANCH   7  19
TORSDOF 8
ENDMDL
MODEL 6
REMARK VINA RESULT:      -7.4      4.550      6.767
REMARK  Name = 
REMARK  9 active torsions:
REMARK  status: ('A' for Active; 'I' for Inactive)
REMARK    1  A    between atoms: C_1  and  C_2
REMARK    2  A    between atoms: C_4  and  S_5
REMARK    3  A    between atoms: S_5  and  N_8
REMARK    4  A    between atoms: N_8  and  C_9
REMARK    5  A    between atoms: C_17  and  O_18
REMARK    6  A    between atoms: O_18  and  C_19
REMARK    7  A    between atoms: C_19  and  C_20
REMARK    8  A    between atoms: N_22  and  C_23
REMARK    9  A    between atoms: C_23  and  C_24
REMARK                            x       y       z     vdW  Elec       q    Type
REMARK                         _______ _______ _______ _____ _____    ______ ____
ROOT
ATOM      1  C   UNL     1       2.487   8.579  17.812  0.00  0.00    +0.000 C 
ATOM      2  C   UNL     1       2.306   7.348  18.661  0.00  0.00    +0.000 A 
ATOM      3  C   UNL     1       2.620   6.095  18.085  0.00  0.00    +0.000 A 
ATOM      4  C   UNL     1       2.470   4.910  18.809  0.00  0.00    +0.000 A 
ATOM      5  C   UNL     1       2.089   4.972  20.154  0.00  0.00    +0.000 A 
ATOM      6  C   UNL     1       1.793   6.207  20.738  0.00  0.00    +0.000 A 
ATOM      7  C   UNL     1       1.841   7.396  19.993  0.00  0.00    +0.000 A 
ENDROOT
BRANCH   4   8
ATOM      8  S   UNL     1       2.958   3.358  18.092  0.00  0.00    +0.000 S 
ATOM      9  O   UNL     1       3.929   2.784  19.013  0.00  0.00    +0.000 OA
ATOM     10  O   UNL     1       1.759   2.636  17.741  0.00  0.00    +0.000 OA
BRANCH   8  11
ATOM     11  N   UNL     1       3.823   3.699  16.701  0.00  0.00    +0.000 NA
ATOM     12  H   UNL     1       3.238   3.872  15.891  0.00  0.00    +0.000 HD
BRANCH  11  13
ATOM     13  C   UNL     1       5.276   3.915  16.612  0.00  0.00    +0.000 C 
ATOM     14  C   UNL     1       5.560   4.881  15.439  0.00  0.00    +0.000 C 
ATOM     15  C   UNL     1       5.401   6.361  15.795  0.00  0.00    +0.000 C 
ATOM     16  C   UNL     1       6.313   6.729  16.955  0.00  0.00    +0.000 C 
ATOM     17  C   UNL     1       5.948   5.913  18.182  0.00  0.00    +0.000 C 
ATOM     18  C   UNL     1       5.925   4.402  17.921  0.00  0.00    +0.000 C 
ENDBRANCH  11  13
ENDBRANCH   8  11
ENDBRANCH   4   8
BRANCH   7  19
ATOM     19  O   UNL     1       1.448   8.616  20.508  0.00  0.00    +0.000 OA
BRANCH  19  20
ATOM     20  C   UNL     1       1.023   8.572  21.876  0.00  0.00    +0.000 C 
BRANCH  20  21
ATOM     21  C   UNL     1       0.402   9.870  22.413  0.00  0.00    +0.000 C 
ATOM     22  O   UNL     1       0.109   9.989  23.603  0.00  0.00    +0.000 OA
ATOM     23  N   UNL     1       0.172  10.829  21.477  0.00  0.00    +0.000 N 
ATOM     24  H   UNL     1       0.369  10.620  20.500  0.00  0.00    +0.000 HD
BRANCH  23  25
ATOM     25  C   UNL     1      -0.462  12.105  21.785  0.00  0.00    +0.000 C 
BRANCH  25  26
ATOM     26  C   UNL     1       0.423  13.286  21.378  0.00  0.00    +0.000 C 
ATOM     27  C   UNL     1       0.026  13.934  20.060  0.00  0.00    +0.000 C 
ATOM     28  C   UNL     1       1.335  14.508  19.583  0.00  0.00    +0.000 C 
ATOM     29  C   UNL     1       2.341  13.484  20.064  0.00  0.00    +0.000 C 
ATOM     30  O   UNL     1       1.789  12.852  21.226  0.00  0.00    +0.000 OA
ENDBRANCH  25  26
ENDBRANCH  23  25
ENDBRANCH  20  21
ENDBRANCH  19  20
ENDBRANCH   7  19
TORSDOF 8
ENDMDL
MODEL 7
REMARK VINA RESULT:      -7.4      5.138      8.039
REMARK  Name = 
REMARK  9 active torsions:
REMARK  status: ('A' for Active; 'I' for Inactive)
REMARK    1  A    between atoms: C_1  and  C_2
REMARK    2  A    between atoms: C_4  and  S_5
REMARK    3  A    between atoms: S_5  and  N_8
REMARK    4  A    between atoms: N_8  and  C_9
REMARK    5  A    between atoms: C_17  and  O_18
REMARK    6  A    between atoms: O_18  and  C_19
REMARK    7  A    between atoms: C_19  and  C_20
REMARK    8  A    between atoms: N_22  and  C_23
REMARK    9  A    between atoms: C_23  and  C_24
REMARK                            x       y       z     vdW  Elec       q    Type
REMARK                         _______ _______ _______ _____ _____    ______ ____
ROOT
ATOM      1  C   UNL     1       2.379   8.822  17.816  0.00  0.00    +0.000 C 
ATOM      2  C   UNL     1       2.267   7.547  18.610  0.00  0.00    +0.000 A 
ATOM      3  C   UNL     1       2.613   6.335  17.969  0.00  0.00    +0.000 A 
ATOM      4  C   UNL     1       2.528   5.113  18.639  0.00  0.00    +0.000 A 
ATOM      5  C   UNL     1       2.180   5.098  19.994  0.00  0.00    +0.000 A 
ATOM      6  C   UNL     1       1.852   6.291  20.642  0.00  0.00    +0.000 A 
ATOM      7  C   UNL     1       1.835   7.515  19.953  0.00  0.00    +0.000 A 
ENDROOT
BRANCH   4   8
ATOM      8  S   UNL     1       3.057   3.617  17.838  0.00  0.00    +0.000 S 
ATOM      9  O   UNL     1       3.510   2.735  18.905  0.00  0.00    +0.000 OA
ATOM     10  O   UNL     1       2.009   3.204  16.936  0.00  0.00    +0.000 OA
BRANCH   8  11
ATOM     11  N   UNL     1       4.432   3.979  16.957  0.00  0.00    +0.000 NA
ATOM     12  H   UNL     1       4.238   4.312  16.018  0.00  0.00    +0.000 HD
BRANCH  11  13
ATOM     13  C   UNL     1       5.811   4.004  17.470  0.00  0.00    +0.000 C 
ATOM     14  C   UNL     1       6.768   4.314  16.296  0.00  0.00    +0.000 C 
ATOM     15  C   UNL     1       6.902   5.804  15.973  0.00  0.00    +0.000 C 
ATOM     16  C   UNL     1       7.376   6.572  17.198  0.00  0.00    +0.000 C 
ATOM     17  C   UNL     1       6.368   6.427  18.324  0.00  0.00    +0.000 C 
ATOM     18  C   UNL     1       6.029   4.968  18.651  0.00  0.00    +0.000 C 
ENDBRANCH  11  13
ENDBRANCH   8  11
ENDBRANCH   4   8
BRANCH   7  19
ATOM     19  O   UNL     1       1.408   8.693  20.534  0.00  0.00    +0.000 OA
BRANCH  19  20
ATOM     20  C   UNL     1       1.185   8.610  21.947  0.00  0.00    +0.000 C 
BRANCH  20  21
ATOM     21  C   UNL     1       0.488   9.825  22.576  0.00  0.00    +0.000 C 
ATOM     22  O   UNL     1       0.169   9.832  23.765  0.00  0.00    +0.000 OA
ATOM     23  N   UNL     1       0.224  10.846  21.716  0.00  0.00    +0.000 N 
ATOM     24  H   UNL     1       0.447  10.728  20.730  0.00  0.00    +0.000 HD
BRANCH  23  25
ATOM     25  C   UNL     1      -0.481  12.058  22.114  0.00  0.00    +0.000 C 
BRANCH  25  26
ATOM     26  C   UNL     1      -1.999  11.887  22.008  0.00  0.00    +0.000 C 
ATOM     27  C   UNL     1      -2.695  12.984  21.218  0.00  0.00    +0.000 C 
ATOM     28  C   UNL     1      -4.075  12.984  21.823  0.00  0.00    +0.000 C 
ATOM     29  C   UNL     1      -3.800  12.659  23.276  0.00  0.00    +0.000 C 
ATOM     30  O   UNL     1      -2.590  11.890  23.323  0.00  0.00    +0.000 OA
ENDBRANCH  25  26
ENDBRANCH  23  25
ENDBRANCH  20  21
ENDBRANCH  19  20
ENDBRANCH   7  19
TORSDOF 8
ENDMDL
MODEL 8
REMARK VINA RESULT:      -7.4      4.713      7.668
REMARK  Name = 
REMARK  9 active torsions:
REMARK  status: ('A' for Active; 'I' for Inactive)
REMARK    1  A    between atoms: C_1  and  C_2
REMARK    2  A    between atoms: C_4  and  S_5
REMARK    3  A    between atoms: S_5  and  N_8
REMARK    4  A    between atoms: N_8  and  C_9
REMARK    5  A    between atoms: C_17  and  O_18
REMARK    6  A    between atoms: O_18  and  C_19
REMARK    7  A    between atoms: C_19  and  C_20
REMARK    8  A    between atoms: N_22  and  C_23
REMARK    9  A    between atoms: C_23  and  C_24
REMARK                            x       y       z     vdW  Elec       q    Type
REMARK                         _______ _______ _______ _____ _____    ______ ____
ROOT
ATOM      1  C   UNL     1       2.432   8.651  17.812  0.00  0.00    +0.000 C 
ATOM      2  C   UNL     1       2.197   7.472  18.719  0.00  0.00    +0.000 A 
ATOM      3  C   UNL     1       2.408   6.177  18.190  0.00  0.00    +0.000 A 
ATOM      4  C   UNL     1       2.204   5.037  18.969  0.00  0.00    +0.000 A 
ATOM      5  C   UNL     1       1.871   5.181  20.321  0.00  0.00    +0.000 A 
ATOM      6  C   UNL     1       1.676   6.456  20.858  0.00  0.00    +0.000 A 
ATOM      7  C   UNL     1       1.779   7.607  20.060  0.00  0.00    +0.000 A 
ENDROOT
BRANCH   4   8
ATOM      8  S   UNL     1       2.565   3.427  18.307  0.00  0.00    +0.000 S 
ATOM      9  O   UNL     1       3.410   2.772  19.297  0.00  0.00    +0.000 OA
ATOM     10  O   UNL     1       1.319   2.830  17.891  0.00  0.00    +0.000 OA
BRANCH   8  11
ATOM     11  N   UNL     1       3.547   3.643  16.970  0.00  0.00    +0.000 NA
ATOM     12  H   UNL     1       3.037   3.886  16.127  0.00  0.00    +0.000 HD
BRANCH  11  13
ATOM     13  C   UNL     1       5.017   3.669  16.967  0.00  0.00    +0.000 C 
ATOM     14  C   UNL     1       5.498   4.233  15.610  0.00  0.00    +0.000 C 
ATOM     15  C   UNL     1       5.510   5.762  15.537  0.00  0.00    +0.000 C 
ATOM     16  C   UNL     1       6.387   6.339  16.638  0.00  0.00    +0.000 C 
ATOM     17  C   UNL     1       5.843   5.942  17.998  0.00  0.00    +0.000 C 
ATOM     18  C   UNL     1       5.640   4.429  18.153  0.00  0.00    +0.000 C 
ENDBRANCH  11  13
ENDBRANCH   8  11
ENDBRANCH   4   8
BRANCH   7  19
ATOM     19  O   UNL     1       1.484   8.871  20.532  0.00  0.00    +0.000 OA
BRANCH  19  20
ATOM     20  C   UNL     1       1.156   8.922  21.926  0.00  0.00    +0.000 C 
BRANCH  20  21
ATOM     21  C   UNL     1       0.387  10.172  22.376  0.00  0.00    +0.000 C 
ATOM     22  O   UNL     1      -0.169  10.216  23.473  0.00  0.00    +0.000 OA
ATOM     23  N   UNL     1       0.339  11.179  21.463  0.00  0.00    +0.000 N 
ATOM     24  H   UNL     1       0.756  11.031  20.546  0.00  0.00    +0.000 HD
BRANCH  23  25
ATOM     25  C   UNL     1      -0.391  12.420  21.686  0.00  0.00    +0.000 C 
BRANCH  25  26
ATOM     26  C   UNL     1      -1.310  12.752  20.507  0.00  0.00    +0.000 C 
ATOM     27  C   UNL     1      -2.793  12.623  20.820  0.00  0.00    +0.000 C 
ATOM     28  C   UNL     1      -3.377  12.314  19.465  0.00  0.00    +0.000 C 
ATOM     29  C   UNL     1      -2.296  11.472  18.823  0.00  0.00    +0.000 C 
ATOM     30  O   UNL     1      -1.045  11.859  19.406  0.00  0.00    +0.000 OA
ENDBRANCH  25  26
ENDBRANCH  23  25
ENDBRANCH  20  21
ENDBRANCH  19  20
ENDBRANCH   7  19
TORSDOF 8
ENDMDL
MODEL 9
REMARK VINA RESULT:      -7.4      4.789      7.793
REMARK  Name = 
REMARK  9 active torsions:
REMARK  status: ('A' for Active; 'I' for Inactive)
REMARK    1  A    between atoms: C_1  and  C_2
REMARK    2  A    between atoms: C_4  and  S_5
REMARK    3  A    between atoms: S_5  and  N_8
REMARK    4  A    between atoms: N_8  and  C_9
REMARK    5  A    between atoms: C_17  and  O_18
REMARK    6  A    between atoms: O_18  and  C_19
REMARK    7  A    between atoms: C_19  and  C_20
REMARK    8  A    between atoms: N_22  and  C_23
REMARK    9  A    between atoms: C_23  and  C_24
REMARK                            x       y       z     vdW  Elec       q    Type
REMARK                         _______ _______ _______ _____ _____    ______ ____
ROOT
ATOM      1  C   UNL     1       2.323   8.847  17.729  0.00  0.00    +0.000 C 
ATOM      2  C   UNL     1       2.336   7.624  18.607  0.00  0.00    +0.000 A 
ATOM      3  C   UNL     1       2.975   6.463  18.115  0.00  0.00    +0.000 A 
ATOM      4  C   UNL     1       3.020   5.289  18.870  0.00  0.00    +0.000 A 
ATOM      5  C   UNL     1       2.504   5.290  20.170  0.00  0.00    +0.000 A 
ATOM      6  C   UNL     1       1.885   6.438  20.673  0.00  0.00    +0.000 A 
ATOM      7  C   UNL     1       1.743   7.593  19.887  0.00  0.00    +0.000 A 
ENDROOT
BRANCH   4   8
ATOM      8  S   UNL     1       3.908   3.872  18.265  0.00  0.00    +0.000 S 
ATOM      9  O   UNL     1       3.487   2.755  19.099  0.00  0.00    +0.000 OA
ATOM     10  O   UNL     1       3.744   3.825  16.832  0.00  0.00    +0.000 OA
BRANCH   8  11
ATOM     11  N   UNL     1       5.526   4.102  18.627  0.00  0.00    +0.000 NA
ATOM     12  H   UNL     1       5.767   3.858  19.582  0.00  0.00    +0.000 HD
BRANCH  11  13
ATOM     13  C   UNL     1       6.588   4.453  17.672  0.00  0.00    +0.000 C 
ATOM     14  C   UNL     1       6.033   5.502  16.681  0.00  0.00    +0.000 C 
ATOM     15  C   UNL     1       6.079   6.941  17.201  0.00  0.00    +0.000 C 
ATOM     16  C   UNL     1       7.504   7.328  17.566  0.00  0.00    +0.000 C 
ATOM     17  C   UNL     1       8.025   6.418  18.665  0.00  0.00    +0.000 C 
ATOM     18  C   UNL     1       7.898   4.927  18.328  0.00  0.00    +0.000 C 
ENDBRANCH  11  13
ENDBRANCH   8  11
ENDBRANCH   4   8
BRANCH   7  19
ATOM     19  O   UNL     1       1.040   8.703  20.313  0.00  0.00    +0.000 OA
BRANCH  19  20
ATOM     20  C   UNL     1       0.726   8.705  21.711  0.00  0.00    +0.000 C 
BRANCH  20  21
ATOM     21  C   UNL     1       0.288  10.061  22.285  0.00  0.00    +0.000 C 
ATOM     22  O   UNL     1      -0.059  10.172  23.460  0.00  0.00    +0.000 OA
ATOM     23  N   UNL     1       0.276  11.087  21.392  0.00  0.00    +0.000 N 
ATOM     24  H   UNL     1       0.499  10.894  20.418  0.00  0.00    +0.000 HD
BRANCH  23  25
ATOM     25  C   UNL     1      -0.164  12.434  21.735  0.00  0.00    +0.000 C 
BRANCH  25  26
ATOM     26  C   UNL     1      -1.273  12.919  20.798  0.00  0.00    +0.000 C 
ATOM     27  C   UNL     1      -2.680  12.625  21.295  0.00  0.00    +0.000 C 
ATOM     28  C   UNL     1      -3.460  12.542  20.008  0.00  0.00    +0.000 C 
ATOM     29  C   UNL     1      -2.461  11.921  19.055  0.00  0.00    +0.000 C 
ATOM     30  O   UNL     1      -1.150  12.278  19.512  0.00  0.00    +0.000 OA
ENDBRANCH  25  26
ENDBRANCH  23  25
ENDBRANCH  20  21
ENDBRANCH  19  20
ENDBRANCH   7  19
TORSDOF 8
ENDMDL
