MODEL 1
REMARK VINA RESULT:      -7.2      0.000      0.000
REMARK  Name = 
REMARK  10 active torsions:
REMARK  status: ('A' for Active; 'I' for Inactive)
REMARK    1  A    between atoms: C_1  and  C_2
REMARK    2  A    between atoms: C_2  and  N_3
REMARK    3  A    between atoms: C_2  and  C_17
REMARK    4  A    between atoms: N_3  and  C_4
REMARK    5  A    between atoms: C_4  and  C_5
REMARK    6  A    between atoms: C_5  and  C_6
REMARK    7  A    between atoms: N_8  and  C_9
REMARK    8  A    between atoms: C_9  and  C_10
REMARK    9  A    between atoms: C_17  and  C_18
REMARK   10  A    between atoms: C_17  and  N_19
REMARK                            x       y       z     vdW  Elec       q    Type
REMARK                         _______ _______ _______ _____ _____    ______ ____
ROOT
ATOM      1  C   UNL     1       8.394   7.157  18.891  0.00  0.00    +0.000 C 
ENDROOT
BRANCH   1   2
ATOM      2  C   UNL     1       7.984   8.210  17.885  0.00  0.00    +0.000 C 
ATOM      3  O   UNL     1       7.359   7.965  16.853  0.00  0.00    +0.000 OA
ATOM      4  N   UNL     1       8.341   9.497  18.156  0.00  0.00    +0.000 N 
ATOM      5  H   UNL     1       8.092  10.163  17.436  0.00  0.00    +0.000 HD
BRANCH   4   6
ATOM      6  C   UNL     1       9.169   9.939  19.265  0.00  0.00    +0.000 C 
BRANCH   6   7
ATOM      7  C   UNL     1       9.923  11.215  18.966  0.00  0.00    +0.000 A 
ATOM      8  C   UNL     1      10.420  11.449  17.669  0.00  0.00    +0.000 A 
ATOM      9  C   UNL     1      11.073  12.640  17.349  0.00  0.00    +0.000 A 
ATOM     10  C   UNL     1      11.235  13.627  18.316  0.00  0.00    +0.000 A 
ATOM     11  C   UNL     1      10.753  13.417  19.605  0.00  0.00    +0.000 A 
ATOM     12  C   UNL     1      10.099  12.225  19.931  0.00  0.00    +0.000 A 
ATOM     13 CL   UNL     1       9.534  12.053  21.554  0.00  0.00    +0.000 Cl
ENDBRANCH   6   7
ENDBRANCH   4   6
ENDBRANCH   1   2
BRANCH   1  14
ATOM     14  C   UNL     1       7.471   5.956  18.823  0.00  0.00    +0.000 C 
BRANCH  14  15
ATOM     15  N   UNL     1       7.706   5.236  17.571  0.00  0.00    +0.000 NA
ATOM     16  H   UNL     1       8.014   5.883  16.843  0.00  0.00    +0.000 HD
BRANCH  15  18
ATOM     17  C   UNL     1       6.450   4.606  15.553  0.00  0.00    +0.000 C 
ATOM     18  C   UNL     1       6.546   4.461  17.081  0.00  0.00    +0.000 C 
BRANCH  18  19
ATOM     19  C   UNL     1       5.202   4.789  17.805  0.00  0.00    +0.000 C 
ATOM     20  C   UNL     1       4.221   5.565  16.919  0.00  0.00    +0.000 C 
BRANCH  19  21
ATOM     21  N   UNL     1       4.552   3.591  18.344  0.00  0.00    +0.000 N 
ATOM     22  C   UNL     1       3.623   2.813  17.703  0.00  0.00    +0.000 A 
ATOM     23  C   UNL     1       3.295   1.805  18.576  0.00  0.00    +0.000 A 
ATOM     24  C   UNL     1       4.102   2.039  19.706  0.00  0.00    +0.000 A 
ATOM     25  N   UNL     1       4.894   3.104  19.557  0.00  0.00    +0.000 NA
ENDBRANCH  19  21
ENDBRANCH  18  19
ENDBRANCH  15  18
ENDBRANCH  14  15
ENDBRANCH   1  14
TORSDOF 8
ENDMDL
MODEL 2
REMARK VINA RESULT:      -6.9      5.422      6.916
REMARK  Name = 
REMARK  10 active torsions:
REMARK  status: ('A' for Active; 'I' for Inactive)
REMARK    1  A    between atoms: C_1  and  C_2
REMARK    2  A    between atoms: C_2  and  N_3
REMARK    3  A    between atoms: C_2  and  C_17
REMARK    4  A    between atoms: N_3  and  C_4
REMARK    5  A    between atoms: C_4  and  C_5
REMARK    6  A    between atoms: C_5  and  C_6
REMARK    7  A    between atoms: N_8  and  C_9
REMARK    8  A    between atoms: C_9  and  C_10
REMARK    9  A    between atoms: C_17  and  C_18
REMARK   10  A    between atoms: C_17  and  N_19
REMARK                            x       y       z     vdW  Elec       q    Type
REMARK                         _______ _______ _______ _____ _____    ______ ____
ROOT
ATOM      1  C   UNL     1       5.738   4.348  17.672  0.00  0.00    +0.000 C 
ENDROOT
BRANCH   1   2
ATOM      2  C   UNL     1       7.206   4.628  17.435  0.00  0.00    +0.000 C 
ATOM      3  O   UNL     1       8.096   4.341  18.235  0.00  0.00    +0.000 OA
ATOM      4  N   UNL     1       7.538   5.237  16.262  0.00  0.00    +0.000 N 
ATOM      5  H   UNL     1       8.522   5.451  16.163  0.00  0.00    +0.000 HD
BRANCH   4   6
ATOM      6  C   UNL     1       6.607   5.738  15.265  0.00  0.00    +0.000 C 
BRANCH   6   7
ATOM      7  C   UNL     1       6.508   4.844  14.050  0.00  0.00    +0.000 A 
ATOM      8  C   UNL     1       5.422   3.957  13.916  0.00  0.00    +0.000 A 
ATOM      9  C   UNL     1       5.276   3.158  12.782  0.00  0.00    +0.000 A 
ATOM     10  C   UNL     1       6.207   3.235  11.751  0.00  0.00    +0.000 A 
ATOM     11  C   UNL     1       7.290   4.103  11.862  0.00  0.00    +0.000 A 
ATOM     12  C   UNL     1       7.441   4.905  12.998  0.00  0.00    +0.000 A 
ATOM     13 CL   UNL     1       8.814   5.953  13.046  0.00  0.00    +0.000 Cl
ENDBRANCH   6   7
ENDBRANCH   4   6
ENDBRANCH   1   2
BRANCH   1  14
ATOM     14  C   UNL     1       5.392   4.487  19.141  0.00  0.00    +0.000 C 
BRANCH  14  15
ATOM     15  N   UNL     1       4.406   5.554  19.308  0.00  0.00    +0.000 NA
ATOM     16  H   UNL     1       3.927   5.456  20.205  0.00  0.00    +0.000 HD
BRANCH  15  18
ATOM     17  C   UNL     1       2.953   7.102  18.069  0.00  0.00    +0.000 C 
ATOM     18  C   UNL     1       3.405   5.641  18.223  0.00  0.00    +0.000 C 
BRANCH  18  19
ATOM     19  C   UNL     1       2.208   4.650  18.372  0.00  0.00    +0.000 C 
ATOM     20  C   UNL     1       2.161   3.600  17.257  0.00  0.00    +0.000 C 
BRANCH  19  21
ATOM     21  N   UNL     1       2.188   3.993  19.682  0.00  0.00    +0.000 N 
ATOM     22  C   UNL     1       2.350   2.653  19.921  0.00  0.00    +0.000 A 
ATOM     23  C   UNL     1       2.262   2.489  21.281  0.00  0.00    +0.000 A 
ATOM     24  C   UNL     1       2.078   3.792  21.783  0.00  0.00    +0.000 A 
ATOM     25  N   UNL     1       2.067   4.715  20.816  0.00  0.00    +0.000 NA
ENDBRANCH  19  21
ENDBRANCH  18  19
ENDBRANCH  15  18
ENDBRANCH  14  15
ENDBRANCH   1  14
TORSDOF 8
ENDMDL
MODEL 3
REMARK VINA RESULT:      -6.8      4.917      6.862
REMARK  Name = 
REMARK  10 active torsions:
REMARK  status: ('A' for Active; 'I' for Inactive)
REMARK    1  A    between atoms: C_1  and  C_2
REMARK    2  A    between atoms: C_2  and  N_3
REMARK    3  A    between atoms: C_2  and  C_17
REMARK    4  A    between atoms: N_3  and  C_4
REMARK    5  A    between atoms: C_4  and  C_5
REMARK    6  A    between atoms: C_5  and  C_6
REMARK    7  A    between atoms: N_8  and  C_9
REMARK    8  A    between atoms: C_9  and  C_10
REMARK    9  A    between atoms: C_17  and  C_18
REMARK   10  A    between atoms: C_17  and  N_19
REMARK                            x       y       z     vdW  Elec       q    Type
REMARK                         _______ _______ _______ _____ _____    ______ ____
ROOT
ATOM      1  C   UNL     1       6.012   6.732  17.781  0.00  0.00    +0.000 C 
ENDROOT
BRANCH   1   2
ATOM      2  C   UNL     1       6.597   5.343  17.917  0.00  0.00    +0.000 C 
ATOM      3  O   UNL     1       6.532   4.670  18.946  0.00  0.00    +0.000 OA
ATOM      4  N   UNL     1       7.230   4.829  16.825  0.00  0.00    +0.000 N 
ATOM      5  H   UNL     1       7.649   3.920  16.972  0.00  0.00    +0.000 HD
BRANCH   4   6
ATOM      6  C   UNL     1       7.489   5.530  15.578  0.00  0.00    +0.000 C 
BRANCH   6   7
ATOM      7  C   UNL     1       6.968   4.788  14.368  0.00  0.00    +0.000 A 
ATOM      8  C   UNL     1       5.827   3.970  14.482  0.00  0.00    +0.000 A 
ATOM      9  C   UNL     1       5.292   3.315  13.371  0.00  0.00    +0.000 A 
ATOM     10  C   UNL     1       5.881   3.472  12.121  0.00  0.00    +0.000 A 
ATOM     11  C   UNL     1       7.011   4.274  11.984  0.00  0.00    +0.000 A 
ATOM     12  C   UNL     1       7.551   4.931  13.094  0.00  0.00    +0.000 A 
ATOM     13 CL   UNL     1       8.952   5.906  12.829  0.00  0.00    +0.000 Cl
ENDBRANCH   6   7
ENDBRANCH   4   6
ENDBRANCH   1   2
BRANCH   1  14
ATOM     14  C   UNL     1       4.568   6.668  17.323  0.00  0.00    +0.000 C 
BRANCH  14  15
ATOM     15  N   UNL     1       4.024   5.343  17.623  0.00  0.00    +0.000 NA
ATOM     16  H   UNL     1       4.147   4.720  16.823  0.00  0.00    +0.000 HD
BRANCH  15  18
ATOM     17  C   UNL     1       2.445   6.184  19.310  0.00  0.00    +0.000 C 
ATOM     18  C   UNL     1       2.603   5.341  18.034  0.00  0.00    +0.000 C 
BRANCH  18  19
ATOM     19  C   UNL     1       1.974   3.919  18.166  0.00  0.00    +0.000 C 
ATOM     20  C   UNL     1       2.608   2.896  17.218  0.00  0.00    +0.000 C 
BRANCH  19  21
ATOM     21  N   UNL     1       2.014   3.418  19.544  0.00  0.00    +0.000 N 
ATOM     22  C   UNL     1       3.134   3.056  20.245  0.00  0.00    +0.000 A 
ATOM     23  C   UNL     1       2.702   2.654  21.484  0.00  0.00    +0.000 A 
ATOM     24  C   UNL     1       1.306   2.839  21.449  0.00  0.00    +0.000 A 
ATOM     25  N   UNL     1       0.886   3.337  20.282  0.00  0.00    +0.000 NA
ENDBRANCH  19  21
ENDBRANCH  18  19
ENDBRANCH  15  18
ENDBRANCH  14  15
ENDBRANCH   1  14
TORSDOF 8
ENDMDL
MODEL 4
REMARK VINA RESULT:      -6.7      4.437      7.119
REMARK  Name = 
REMARK  10 active torsions:
REMARK  status: ('A' for Active; 'I' for Inactive)
REMARK    1  A    between atoms: C_1  and  C_2
REMARK    2  A    between atoms: C_2  and  N_3
REMARK    3  A    between atoms: C_2  and  C_17
REMARK    4  A    between atoms: N_3  and  C_4
REMARK    5  A    between atoms: C_4  and  C_5
REMARK    6  A    between atoms: C_5  and  C_6
REMARK    7  A    between atoms: N_8  and  C_9
REMARK    8  A    between atoms: C_9  and  C_10
REMARK    9  A    between atoms: C_17  and  C_18
REMARK   10  A    between atoms: C_17  and  N_19
REMARK                            x       y       z     vdW  Elec       q    Type
REMARK                         _______ _______ _______ _____ _____    ______ ____
ROOT
ATOM      1  C   UNL     1       4.059   3.446  19.520  0.00  0.00    +0.000 C 
ENDROOT
BRANCH   1   2
ATOM      2  C   UNL     1       2.663   3.657  18.976  0.00  0.00    +0.000 C 
ATOM      3  O   UNL     1       2.127   2.909  18.158  0.00  0.00    +0.000 OA
ATOM      4  N   UNL     1       1.980   4.746  19.429  0.00  0.00    +0.000 N 
ATOM      5  H   UNL     1       1.071   4.878  19.005  0.00  0.00    +0.000 HD
BRANCH   4   6
ATOM      6  C   UNL     1       2.505   5.781  20.304  0.00  0.00    +0.000 C 
BRANCH   6   7
ATOM      7  C   UNL     1       1.955   7.153  19.988  0.00  0.00    +0.000 A 
ATOM      8  C   UNL     1       1.163   7.828  20.937  0.00  0.00    +0.000 A 
ATOM      9  C   UNL     1       0.685   9.117  20.696  0.00  0.00    +0.000 A 
ATOM     10  C   UNL     1       0.997   9.763  19.504  0.00  0.00    +0.000 A 
ATOM     11  C   UNL     1       1.777   9.115  18.550  0.00  0.00    +0.000 A 
ATOM     12  C   UNL     1       2.256   7.822  18.787  0.00  0.00    +0.000 A 
ATOM     13 CL   UNL     1       3.217   7.098  17.547  0.00  0.00    +0.000 Cl
ENDBRANCH   6   7
ENDBRANCH   4   6
ENDBRANCH   1   2
BRANCH   1  14
ATOM     14  C   UNL     1       4.982   4.569  19.087  0.00  0.00    +0.000 C 
BRANCH  14  15
ATOM     15  N   UNL     1       6.290   4.013  18.741  0.00  0.00    +0.000 NA
ATOM     16  H   UNL     1       6.691   3.523  19.543  0.00  0.00    +0.000 HD
BRANCH  15  18
ATOM     17  C   UNL     1       7.915   5.728  19.424  0.00  0.00    +0.000 C 
ATOM     18  C   UNL     1       7.264   5.004  18.234  0.00  0.00    +0.000 C 
BRANCH  18  19
ATOM     19  C   UNL     1       6.684   5.989  17.170  0.00  0.00    +0.000 C 
ATOM     20  C   UNL     1       7.479   7.294  17.070  0.00  0.00    +0.000 C 
BRANCH  19  21
ATOM     21  N   UNL     1       6.562   5.371  15.847  0.00  0.00    +0.000 N 
ATOM     22  C   UNL     1       5.445   4.769  15.330  0.00  0.00    +0.000 A 
ATOM     23  C   UNL     1       5.784   4.338  14.072  0.00  0.00    +0.000 A 
ATOM     24  C   UNL     1       7.119   4.754  13.903  0.00  0.00    +0.000 A 
ATOM     25  N   UNL     1       7.587   5.414  14.967  0.00  0.00    +0.000 NA
ENDBRANCH  19  21
ENDBRANCH  18  19
ENDBRANCH  15  18
ENDBRANCH  14  15
ENDBRANCH   1  14
TORSDOF 8
ENDMDL
MODEL 5
REMARK VINA RESULT:      -6.7      1.740      2.053
REMARK  Name = 
REMARK  10 active torsions:
REMARK  status: ('A' for Active; 'I' for Inactive)
REMARK    1  A    between atoms: C_1  and  C_2
REMARK    2  A    between atoms: C_2  and  N_3
REMARK    3  A    between atoms: C_2  and  C_17
REMARK    4  A    between atoms: N_3  and  C_4
REMARK    5  A    between atoms: C_4  and  C_5
REMARK    6  A    between atoms: C_5  and  C_6
REMARK    7  A    between atoms: N_8  and  C_9
REMARK    8  A    between atoms: C_9  and  C_10
REMARK    9  A    between atoms: C_17  and  C_18
REMARK   10  A    between atoms: C_17  and  N_19
REMARK                            x       y       z     vdW  Elec       q    Type
REMARK                         _______ _______ _______ _____ _____    ______ ____
ROOT
ATOM      1  C   UNL     1       7.205   7.702  17.201  0.00  0.00    +0.000 C 
ENDROOT
BRANCH   1   2
ATOM      2  C   UNL     1       8.090   7.500  18.411  0.00  0.00    +0.000 C 
ATOM      3  O   UNL     1       8.243   6.417  18.975  0.00  0.00    +0.000 OA
ATOM      4  N   UNL     1       8.745   8.597  18.888  0.00  0.00    +0.000 N 
ATOM      5  H   UNL     1       9.287   8.430  19.726  0.00  0.00    +0.000 HD
BRANCH   4   6
ATOM      6  C   UNL     1       8.590   9.961  18.410  0.00  0.00    +0.000 C 
BRANCH   6   7
ATOM      7  C   UNL     1       9.764  10.845  18.763  0.00  0.00    +0.000 A 
ATOM      8  C   UNL     1      10.671  11.241  17.762  0.00  0.00    +0.000 A 
ATOM      9  C   UNL     1      11.734  12.100  18.046  0.00  0.00    +0.000 A 
ATOM     10  C   UNL     1      11.908  12.588  19.337  0.00  0.00    +0.000 A 
ATOM     11  C   UNL     1      11.025  12.208  20.345  0.00  0.00    +0.000 A 
ATOM     12  C   UNL     1       9.959  11.347  20.064  0.00  0.00    +0.000 A 
ATOM     13 CL   UNL     1       8.914  10.932  21.376  0.00  0.00    +0.000 Cl
ENDBRANCH   6   7
ENDBRANCH   4   6
ENDBRANCH   1   2
BRANCH   1  14
ATOM     14  C   UNL     1       6.288   6.512  16.998  0.00  0.00    +0.000 C 
BRANCH  14  15
ATOM     15  N   UNL     1       5.364   6.414  18.128  0.00  0.00    +0.000 NA
ATOM     16  H   UNL     1       5.868   6.536  19.008  0.00  0.00    +0.000 HD
BRANCH  15  18
ATOM     17  C   UNL     1       4.450   4.592  16.754  0.00  0.00    +0.000 C 
ATOM     18  C   UNL     1       4.585   5.158  18.177  0.00  0.00    +0.000 C 
BRANCH  18  19
ATOM     19  C   UNL     1       3.213   5.282  18.912  0.00  0.00    +0.000 C 
ATOM     20  C   UNL     1       2.301   6.348  18.297  0.00  0.00    +0.000 C 
BRANCH  19  21
ATOM     21  N   UNL     1       2.505   4.001  18.990  0.00  0.00    +0.000 N 
ATOM     22  C   UNL     1       2.895   2.899  19.706  0.00  0.00    +0.000 A 
ATOM     23  C   UNL     1       1.939   1.939  19.490  0.00  0.00    +0.000 A 
ATOM     24  C   UNL     1       0.992   2.563  18.655  0.00  0.00    +0.000 A 
ATOM     25  N   UNL     1       1.314   3.830  18.376  0.00  0.00    +0.000 NA
ENDBRANCH  19  21
ENDBRANCH  18  19
ENDBRANCH  15  18
ENDBRANCH  14  15
ENDBRANCH   1  14
TORSDOF 8
ENDMDL
MODEL 6
REMARK VINA RESULT:      -6.7      1.282      1.363
REMARK  Name = 
REMARK  10 active torsions:
REMARK  status: ('A' for Active; 'I' for Inactive)
REMARK    1  A    between atoms: C_1  and  C_2
REMARK    2  A    between atoms: C_2  and  N_3
REMARK    3  A    between atoms: C_2  and  C_17
REMARK    4  A    between atoms: N_3  and  C_4
REMARK    5  A    between atoms: C_4  and  C_5
REMARK    6  A    between atoms: C_5  and  C_6
REMARK    7  A    between atoms: N_8  and  C_9
REMARK    8  A    between atoms: C_9  and  C_10
REMARK    9  A    between atoms: C_17  and  C_18
REMARK   10  A    between atoms: C_17  and  N_19
REMARK                            x       y       z     vdW  Elec       q    Type
REMARK                         _______ _______ _______ _____ _____    ______ ____
ROOT
ATOM      1  C   UNL     1       8.039   6.775  18.623  0.00  0.00    +0.000 C 
ENDROOT
BRANCH   1   2
ATOM      2  C   UNL     1       7.623   7.909  17.711  0.00  0.00    +0.000 C 
ATOM      3  O   UNL     1       6.904   7.764  16.722  0.00  0.00    +0.000 OA
ATOM      4  N   UNL     1       8.086   9.153  18.019  0.00  0.00    +0.000 N 
ATOM      5  H   UNL     1       7.826   9.874  17.358  0.00  0.00    +0.000 HD
BRANCH   4   6
ATOM      6  C   UNL     1       9.026   9.477  19.080  0.00  0.00    +0.000 C 
BRANCH   6   7
ATOM      7  C   UNL     1       9.591  10.874  18.959  0.00  0.00    +0.000 A 
ATOM      8  C   UNL     1      10.143  11.305  17.737  0.00  0.00    +0.000 A 
ATOM      9  C   UNL     1      10.624  12.606  17.579  0.00  0.00    +0.000 A 
ATOM     10  C   UNL     1      10.554  13.507  18.637  0.00  0.00    +0.000 A 
ATOM     11  C   UNL     1      10.014  13.102  19.855  0.00  0.00    +0.000 A 
ATOM     12  C   UNL     1       9.532  11.799  20.018  0.00  0.00    +0.000 A 
ATOM     13 CL   UNL     1       8.879  11.388  21.563  0.00  0.00    +0.000 Cl
ENDBRANCH   6   7
ENDBRANCH   4   6
ENDBRANCH   1   2
BRANCH   1  14
ATOM     14  C   UNL     1       6.852   5.898  18.969  0.00  0.00    +0.000 C 
BRANCH  14  15
ATOM     15  N   UNL     1       6.372   5.233  17.758  0.00  0.00    +0.000 NA
ATOM     16  H   UNL     1       6.165   5.923  17.034  0.00  0.00    +0.000 HD
BRANCH  15  18
ATOM     17  C   UNL     1       4.769   3.765  16.609  0.00  0.00    +0.000 C 
ATOM     18  C   UNL     1       5.193   4.363  17.961  0.00  0.00    +0.000 C 
BRANCH  18  19
ATOM     19  C   UNL     1       4.011   5.049  18.716  0.00  0.00    +0.000 C 
ATOM     20  C   UNL     1       3.414   6.230  17.943  0.00  0.00    +0.000 C 
BRANCH  19  21
ATOM     21  N   UNL     1       2.954   4.100  19.076  0.00  0.00    +0.000 N 
ATOM     22  C   UNL     1       1.662   4.110  18.619  0.00  0.00    +0.000 A 
ATOM     23  C   UNL     1       1.033   3.045  19.214  0.00  0.00    +0.000 A 
ATOM     24  C   UNL     1       2.035   2.430  19.989  0.00  0.00    +0.000 A 
ATOM     25  N   UNL     1       3.215   3.047  19.881  0.00  0.00    +0.000 NA
ENDBRANCH  19  21
ENDBRANCH  18  19
ENDBRANCH  15  18
ENDBRANCH  14  15
ENDBRANCH   1  14
TORSDOF 8
ENDMDL
MODEL 7
REMARK VINA RESULT:      -6.7      5.774      7.149
REMARK  Name = 
REMARK  10 active torsions:
REMARK  status: ('A' for Active; 'I' for Inactive)
REMARK    1  A    between atoms: C_1  and  C_2
REMARK    2  A    between atoms: C_2  and  N_3
REMARK    3  A    between atoms: C_2  and  C_17
REMARK    4  A    between atoms: N_3  and  C_4
REMARK    5  A    between atoms: C_4  and  C_5
REMARK    6  A    between atoms: C_5  and  C_6
REMARK    7  A    between atoms: N_8  and  C_9
REMARK    8  A    between atoms: C_9  and  C_10
REMARK    9  A    between atoms: C_17  and  C_18
REMARK   10  A    between atoms: C_17  and  N_19
REMARK                            x       y       z     vdW  Elec       q    Type
REMARK                         _______ _______ _______ _____ _____    ______ ____
ROOT
ATOM      1  C   UNL     1       0.978   3.958  19.988  0.00  0.00    +0.000 C 
ENDROOT
BRANCH   1   2
ATOM      2  C   UNL     1       2.257   4.362  20.687  0.00  0.00    +0.000 C 
ATOM      3  O   UNL     1       3.180   3.585  20.929  0.00  0.00    +0.000 OA
ATOM      4  N   UNL     1       2.369   5.667  21.066  0.00  0.00    +0.000 N 
ATOM      5  H   UNL     1       3.217   5.886  21.573  0.00  0.00    +0.000 HD
BRANCH   4   6
ATOM      6  C   UNL     1       1.334   6.681  20.955  0.00  0.00    +0.000 C 
BRANCH   6   7
ATOM      7  C   UNL     1       1.631   7.710  19.888  0.00  0.00    +0.000 A 
ATOM      8  C   UNL     1       2.489   7.387  18.820  0.00  0.00    +0.000 A 
ATOM      9  C   UNL     1       2.740   8.298  17.792  0.00  0.00    +0.000 A 
ATOM     10  C   UNL     1       2.130   9.548  17.805  0.00  0.00    +0.000 A 
ATOM     11  C   UNL     1       1.279   9.890  18.853  0.00  0.00    +0.000 A 
ATOM     12  C   UNL     1       1.026   8.981  19.885  0.00  0.00    +0.000 A 
ATOM     13 CL   UNL     1      -0.045   9.493  21.141  0.00  0.00    +0.000 Cl
ENDBRANCH   6   7
ENDBRANCH   4   6
ENDBRANCH   1   2
BRANCH   1  14
ATOM     14  C   UNL     1       1.267   3.428  18.597  0.00  0.00    +0.000 C 
BRANCH  14  15
ATOM     15  N   UNL     1       2.113   4.383  17.881  0.00  0.00    +0.000 NA
ATOM     16  H   UNL     1       1.570   4.871  17.167  0.00  0.00    +0.000 HD
BRANCH  15  18
ATOM     17  C   UNL     1       3.476   2.342  17.748  0.00  0.00    +0.000 C 
ATOM     18  C   UNL     1       3.321   3.793  17.265  0.00  0.00    +0.000 C 
BRANCH  18  19
ATOM     19  C   UNL     1       4.619   4.638  17.459  0.00  0.00    +0.000 C 
ATOM     20  C   UNL     1       5.410   4.237  18.708  0.00  0.00    +0.000 C 
BRANCH  19  21
ATOM     21  N   UNL     1       5.489   4.601  16.280  0.00  0.00    +0.000 N 
ATOM     22  C   UNL     1       5.172   4.080  15.052  0.00  0.00    +0.000 A 
ATOM     23  C   UNL     1       6.276   4.263  14.258  0.00  0.00    +0.000 A 
ATOM     24  C   UNL     1       7.200   4.932  15.084  0.00  0.00    +0.000 A 
ATOM     25  N   UNL     1       6.713   5.172  16.305  0.00  0.00    +0.000 NA
ENDBRANCH  19  21
ENDBRANCH  18  19
ENDBRANCH  15  18
ENDBRANCH  14  15
ENDBRANCH   1  14
TORSDOF 8
ENDMDL
MODEL 8
REMARK VINA RESULT:      -6.6      5.275      8.022
REMARK  Name = 
REMARK  10 active torsions:
REMARK  status: ('A' for Active; 'I' for Inactive)
REMARK    1  A    between atoms: C_1  and  C_2
REMARK    2  A    between atoms: C_2  and  N_3
REMARK    3  A    between atoms: C_2  and  C_17
REMARK    4  A    between atoms: N_3  and  C_4
REMARK    5  A    between atoms: C_4  and  C_5
REMARK    6  A    between atoms: C_5  and  C_6
REMARK    7  A    between atoms: N_8  and  C_9
REMARK    8  A    between atoms: C_9  and  C_10
REMARK    9  A    between atoms: C_17  and  C_18
REMARK   10  A    between atoms: C_17  and  N_19
REMARK                            x       y       z     vdW  Elec       q    Type
REMARK                         _______ _______ _______ _____ _____    ______ ____
ROOT
ATOM      1  C   UNL     1       4.040   2.050  20.125  0.00  0.00    +0.000 C 
ENDROOT
BRANCH   1   2
ATOM      2  C   UNL     1       3.376   1.597  18.844  0.00  0.00    +0.000 C 
ATOM      3  O   UNL     1       3.954   0.971  17.956  0.00  0.00    +0.000 OA
ATOM      4  N   UNL     1       2.060   1.914  18.684  0.00  0.00    +0.000 N 
ATOM      5  H   UNL     1       1.665   1.637  17.794  0.00  0.00    +0.000 HD
BRANCH   4   6
ATOM      6  C   UNL     1       1.263   2.737  19.580  0.00  0.00    +0.000 C 
BRANCH   6   7
ATOM      7  C   UNL     1       1.595   4.208  19.479  0.00  0.00    +0.000 A 
ATOM      8  C   UNL     1       1.573   5.014  20.633  0.00  0.00    +0.000 A 
ATOM      9  C   UNL     1       1.925   6.364  20.580  0.00  0.00    +0.000 A 
ATOM     10  C   UNL     1       2.318   6.934  19.374  0.00  0.00    +0.000 A 
ATOM     11  C   UNL     1       2.345   6.157  18.219  0.00  0.00    +0.000 A 
ATOM     12  C   UNL     1       1.991   4.805  18.267  0.00  0.00    +0.000 A 
ATOM     13 CL   UNL     1       2.057   3.919  16.785  0.00  0.00    +0.000 Cl
ENDBRANCH   6   7
ENDBRANCH   4   6
ENDBRANCH   1   2
BRANCH   1  14
ATOM     14  C   UNL     1       4.975   3.215  19.866  0.00  0.00    +0.000 C 
BRANCH  14  15
ATOM     15  N   UNL     1       5.021   3.488  18.429  0.00  0.00    +0.000 NA
ATOM     16  H   UNL     1       5.238   2.634  17.913  0.00  0.00    +0.000 HD
BRANCH  15  18
ATOM     17  C   UNL     1       6.336   5.385  19.277  0.00  0.00    +0.000 C 
ATOM     18  C   UNL     1       5.968   4.554  18.037  0.00  0.00    +0.000 C 
BRANCH  18  19
ATOM     19  C   UNL     1       5.485   5.434  16.841  0.00  0.00    +0.000 C 
ATOM     20  C   UNL     1       5.771   6.925  17.044  0.00  0.00    +0.000 C 
BRANCH  19  21
ATOM     21  N   UNL     1       6.039   4.986  15.560  0.00  0.00    +0.000 N 
ATOM     22  C   UNL     1       5.449   4.116  14.680  0.00  0.00    +0.000 A 
ATOM     23  C   UNL     1       6.317   3.988  13.624  0.00  0.00    +0.000 A 
ATOM     24  C   UNL     1       7.389   4.844  13.941  0.00  0.00    +0.000 A 
ATOM     25  N   UNL     1       7.209   5.481  15.102  0.00  0.00    +0.000 NA
ENDBRANCH  19  21
ENDBRANCH  18  19
ENDBRANCH  15  18
ENDBRANCH  14  15
ENDBRANCH   1  14
TORSDOF 8
ENDMDL
MODEL 9
REMARK VINA RESULT:      -6.6      4.795      7.526
REMARK  Name = 
REMARK  10 active torsions:
REMARK  status: ('A' for Active; 'I' for Inactive)
REMARK    1  A    between atoms: C_1  and  C_2
REMARK    2  A    between atoms: C_2  and  N_3
REMARK    3  A    between atoms: C_2  and  C_17
REMARK    4  A    between atoms: N_3  and  C_4
REMARK    5  A    between atoms: C_4  and  C_5
REMARK    6  A    between atoms: C_5  and  C_6
REMARK    7  A    between atoms: N_8  and  C_9
REMARK    8  A    between atoms: C_9  and  C_10
REMARK    9  A    between atoms: C_17  and  C_18
REMARK   10  A    between atoms: C_17  and  N_19
REMARK                            x       y       z     vdW  Elec       q    Type
REMARK                         _______ _______ _______ _____ _____    ______ ____
ROOT
ATOM      1  C   UNL     1       2.040   4.965  18.654  0.00  0.00    +0.000 C 
ENDROOT
BRANCH   1   2
ATOM      2  C   UNL     1       1.593   4.989  20.100  0.00  0.00    +0.000 C 
ATOM      3  O   UNL     1       1.116   4.017  20.686  0.00  0.00    +0.000 OA
ATOM      4  N   UNL     1       1.732   6.168  20.770  0.00  0.00    +0.000 N 
ATOM      5  H   UNL     1       1.377   6.156  21.718  0.00  0.00    +0.000 HD
BRANCH   4   6
ATOM      6  C   UNL     1       2.171   7.430  20.199  0.00  0.00    +0.000 C 
BRANCH   6   7
ATOM      7  C   UNL     1       1.207   8.563  20.466  0.00  0.00    +0.000 A 
ATOM      8  C   UNL     1       0.687   8.754  21.761  0.00  0.00    +0.000 A 
ATOM      9  C   UNL     1      -0.163   9.822  22.050  0.00  0.00    +0.000 A 
ATOM     10  C   UNL     1      -0.504  10.730  21.052  0.00  0.00    +0.000 A 
ATOM     11  C   UNL     1      -0.004  10.561  19.764  0.00  0.00    +0.000 A 
ATOM     12  C   UNL     1       0.847   9.490  19.470  0.00  0.00    +0.000 A 
ATOM     13 CL   UNL     1       1.420   9.362  17.844  0.00  0.00    +0.000 Cl
ENDBRANCH   6   7
ENDBRANCH   4   6
ENDBRANCH   1   2
BRANCH   1  14
ATOM     14  C   UNL     1       3.552   5.012  18.556  0.00  0.00    +0.000 C 
BRANCH  14  15
ATOM     15  N   UNL     1       3.938   5.290  17.172  0.00  0.00    +0.000 NA
ATOM     16  H   UNL     1       3.136   5.636  16.643  0.00  0.00    +0.000 HD
BRANCH  15  18
ATOM     17  C   UNL     1       4.290   2.859  17.267  0.00  0.00    +0.000 C 
ATOM     18  C   UNL     1       4.541   4.143  16.460  0.00  0.00    +0.000 C 
BRANCH  18  19
ATOM     19  C   UNL     1       6.043   4.337  16.084  0.00  0.00    +0.000 C 
ATOM     20  C   UNL     1       6.247   4.700  14.610  0.00  0.00    +0.000 C 
BRANCH  19  21
ATOM     21  N   UNL     1       6.709   5.323  16.941  0.00  0.00    +0.000 N 
ATOM     22  C   UNL     1       7.359   5.068  18.120  0.00  0.00    +0.000 A 
ATOM     23  C   UNL     1       7.827   6.276  18.573  0.00  0.00    +0.000 A 
ATOM     24  C   UNL     1       7.438   7.200  17.584  0.00  0.00    +0.000 A 
ATOM     25  N   UNL     1       6.787   6.620  16.571  0.00  0.00    +0.000 NA
ENDBRANCH  19  21
ENDBRANCH  18  19
ENDBRANCH  15  18
ENDBRANCH  14  15
ENDBRANCH   1  14
TORSDOF 8
ENDMDL
