MODEL 1
REMARK VINA RESULT:      -7.7      0.000      0.000
REMARK  Name = 
REMARK  3 active torsions:
REMARK  status: ('A' for Active; 'I' for Inactive)
REMARK    1  A    between atoms: C_1  and  S_2
REMARK    2  A    between atoms: S_2  and  C_3
REMARK    3  A    between atoms: N_7  and  C_8
REMARK                            x       y       z     vdW  Elec       q    Type
REMARK                         _______ _______ _______ _____ _____    ______ ____
ROOT
ATOM      1  C   UNL     1       3.868   3.747  19.869  0.00  0.00    +0.000 A 
ATOM      2  N   UNL     1       4.945   3.329  19.234  0.00  0.00    +0.000 NA
ATOM      3  N   UNL     1       5.263   4.231  18.318  0.00  0.00    +0.000 NA
ATOM      4  C   UNL     1       4.435   5.233  18.398  0.00  0.00    +0.000 A 
ATOM      5  N   UNL     1       4.499   6.376  17.603  0.00  0.00    +0.000 N 
ATOM      6  C   UNL     1       3.570   7.390  17.830  0.00  0.00    +0.000 A 
ATOM      7  O   UNL     1       3.536   8.417  17.161  0.00  0.00    +0.000 OA
ATOM      8  C   UNL     1       2.636   7.189  18.944  0.00  0.00    +0.000 A 
ATOM      9  C   UNL     1       1.713   8.159  19.447  0.00  0.00    +0.000 A 
ATOM     10  C   UNL     1       1.015   7.674  20.536  0.00  0.00    +0.000 A 
ATOM     11  S   UNL     1       1.459   6.053  20.928  0.00  0.00    +0.000 S 
ATOM     12  C   UNL     1       2.596   6.025  19.691  0.00  0.00    +0.000 A 
ATOM     13  N   UNL     1       3.504   5.008  19.416  0.00  0.00    +0.000 N 
ATOM     14  C   UNL     1      -0.009   8.478  21.288  0.00  0.00    +0.000 C 
ATOM     15  C   UNL     1       0.146   9.988  20.989  0.00  0.00    +0.000 C 
ATOM     16  C   UNL     1       0.335  10.271  19.495  0.00  0.00    +0.000 C 
ATOM     17  C   UNL     1       1.572   9.568  18.943  0.00  0.00    +0.000 C 
ENDROOT
BRANCH   5  18
ATOM     18  C   UNL     1       5.528   6.573  16.563  0.00  0.00    +0.000 C 
ATOM     19  C   UNL     1       6.946   6.191  17.012  0.00  0.00    +0.000 C 
ATOM     20  C   UNL     1       7.321   4.717  16.894  0.00  0.00    +0.000 C 
ATOM     21  C   UNL     1       6.750   3.972  15.682  0.00  0.00    +0.000 C 
ATOM     22  C   UNL     1       5.413   4.448  15.104  0.00  0.00    +0.000 C 
ATOM     23  C   UNL     1       5.183   5.950  15.198  0.00  0.00    +0.000 C 
ENDBRANCH   5  18
BRANCH   1  25
ATOM     24  C   UNL     1       1.574   2.350  20.089  0.00  0.00    +0.000 C 
ATOM     25  S   UNL     1       3.161   2.667  21.018  0.00  0.00    +0.000 S 
ENDBRANCH   1  25
TORSDOF 2
ENDMDL
MODEL 2
REMARK VINA RESULT:      -7.2      1.104      1.787
REMARK  Name = 
REMARK  3 active torsions:
REMARK  status: ('A' for Active; 'I' for Inactive)
REMARK    1  A    between atoms: C_1  and  S_2
REMARK    2  A    between atoms: S_2  and  C_3
REMARK    3  A    between atoms: N_7  and  C_8
REMARK                            x       y       z     vdW  Elec       q    Type
REMARK                         _______ _______ _______ _____ _____    ______ ____
ROOT
ATOM      1  C   UNL     1       3.261   3.604  20.482  0.00  0.00    +0.000 A 
ATOM      2  N   UNL     1       4.338   2.927  20.135  0.00  0.00    +0.000 NA
ATOM      3  N   UNL     1       4.967   3.606  19.187  0.00  0.00    +0.000 NA
ATOM      4  C   UNL     1       4.332   4.722  18.967  0.00  0.00    +0.000 A 
ATOM      5  N   UNL     1       4.736   5.694  18.053  0.00  0.00    +0.000 N 
ATOM      6  C   UNL     1       3.981   6.861  17.954  0.00  0.00    +0.000 A 
ATOM      7  O   UNL     1       4.249   7.756  17.160  0.00  0.00    +0.000 OA
ATOM      8  C   UNL     1       2.849   6.992  18.879  0.00  0.00    +0.000 A 
ATOM      9  C   UNL     1       2.044   8.161  19.054  0.00  0.00    +0.000 A 
ATOM     10  C   UNL     1       1.093   7.976  20.040  0.00  0.00    +0.000 A 
ATOM     11  S   UNL     1       1.162   6.393  20.725  0.00  0.00    +0.000 S 
ATOM     12  C   UNL     1       2.472   5.988  19.752  0.00  0.00    +0.000 A 
ATOM     13  N   UNL     1       3.215   4.813  19.801  0.00  0.00    +0.000 N 
ATOM     14  C   UNL     1       0.117   9.040  20.459  0.00  0.00    +0.000 C 
ATOM     15  C   UNL     1       0.592  10.437  19.997  0.00  0.00    +0.000 C 
ATOM     16  C   UNL     1       1.082  10.437  18.545  0.00  0.00    +0.000 C 
ATOM     17  C   UNL     1       2.249   9.472  18.348  0.00  0.00    +0.000 C 
ENDROOT
BRANCH   5  18
ATOM     18  C   UNL     1       5.948   5.557  17.221  0.00  0.00    +0.000 C 
ATOM     19  C   UNL     1       6.426   6.876  16.597  0.00  0.00    +0.000 C 
ATOM     20  C   UNL     1       7.307   7.762  17.472  0.00  0.00    +0.000 C 
ATOM     21  C   UNL     1       8.290   7.031  18.394  0.00  0.00    +0.000 C 
ATOM     22  C   UNL     1       7.913   5.632  18.892  0.00  0.00    +0.000 C 
ATOM     23  C   UNL     1       7.107   4.804  17.901  0.00  0.00    +0.000 C 
ENDBRANCH   5  18
BRANCH   1  25
ATOM     24  C   UNL     1       0.728   2.687  20.448  0.00  0.00    +0.000 C 
ATOM     25  S   UNL     1       2.184   2.850  21.603  0.00  0.00    +0.000 S 
ENDBRANCH   1  25
TORSDOF 2
ENDMDL
MODEL 3
REMARK VINA RESULT:      -6.9      2.282      4.416
REMARK  Name = 
REMARK  3 active torsions:
REMARK  status: ('A' for Active; 'I' for Inactive)
REMARK    1  A    between atoms: C_1  and  S_2
REMARK    2  A    between atoms: S_2  and  C_3
REMARK    3  A    between atoms: N_7  and  C_8
REMARK                            x       y       z     vdW  Elec       q    Type
REMARK                         _______ _______ _______ _____ _____    ______ ____
ROOT
ATOM      1  C   UNL     1       4.527   5.770  16.850  0.00  0.00    +0.000 A 
ATOM      2  N   UNL     1       4.774   4.480  16.953  0.00  0.00    +0.000 NA
ATOM      3  N   UNL     1       4.202   4.035  18.063  0.00  0.00    +0.000 NA
ATOM      4  C   UNL     1       3.556   5.013  18.632  0.00  0.00    +0.000 A 
ATOM      5  N   UNL     1       2.812   4.891  19.804  0.00  0.00    +0.000 N 
ATOM      6  C   UNL     1       2.136   6.015  20.276  0.00  0.00    +0.000 A 
ATOM      7  O   UNL     1       1.479   6.004  21.312  0.00  0.00    +0.000 OA
ATOM      8  C   UNL     1       2.218   7.226  19.452  0.00  0.00    +0.000 A 
ATOM      9  C   UNL     1       1.483   8.434  19.666  0.00  0.00    +0.000 A 
ATOM     10  C   UNL     1       1.748   9.366  18.681  0.00  0.00    +0.000 A 
ATOM     11  S   UNL     1       2.895   8.791  17.526  0.00  0.00    +0.000 S 
ATOM     12  C   UNL     1       2.992   7.306  18.308  0.00  0.00    +0.000 A 
ATOM     13  N   UNL     1       3.694   6.183  17.881  0.00  0.00    +0.000 N 
ATOM     14  C   UNL     1       1.103  10.724  18.631  0.00  0.00    +0.000 C 
ATOM     15  C   UNL     1      -0.169  10.763  19.510  0.00  0.00    +0.000 C 
ATOM     16  C   UNL     1       0.048  10.115  20.882  0.00  0.00    +0.000 C 
ATOM     17  C   UNL     1       0.466   8.652  20.751  0.00  0.00    +0.000 C 
ENDROOT
BRANCH   5  18
ATOM     18  C   UNL     1       2.676   3.617  20.538  0.00  0.00    +0.000 C 
ATOM     19  C   UNL     1       1.225   3.137  20.686  0.00  0.00    +0.000 C 
ATOM     20  C   UNL     1       0.647   2.351  19.513  0.00  0.00    +0.000 C 
ATOM     21  C   UNL     1       1.620   1.415  18.785  0.00  0.00    +0.000 C 
ATOM     22  C   UNL     1       3.107   1.785  18.774  0.00  0.00    +0.000 C 
ATOM     23  C   UNL     1       3.594   2.489  20.032  0.00  0.00    +0.000 C 
ENDBRANCH   5  18
BRANCH   1  25
ATOM     24  C   UNL     1       6.169   5.152  14.805  0.00  0.00    +0.000 C 
ATOM     25  S   UNL     1       5.297   6.620  15.557  0.00  0.00    +0.000 S 
ENDBRANCH   1  25
TORSDOF 2
ENDMDL
MODEL 4
REMARK VINA RESULT:      -6.9      7.301      9.823
REMARK  Name = 
REMARK  3 active torsions:
REMARK  status: ('A' for Active; 'I' for Inactive)
REMARK    1  A    between atoms: C_1  and  S_2
REMARK    2  A    between atoms: S_2  and  C_3
REMARK    3  A    between atoms: N_7  and  C_8
REMARK                            x       y       z     vdW  Elec       q    Type
REMARK                         _______ _______ _______ _____ _____    ______ ____
ROOT
ATOM      1  C   UNL     1      -3.371  11.461  17.628  0.00  0.00    +0.000 A 
ATOM      2  N   UNL     1      -2.145  11.007  17.456  0.00  0.00    +0.000 NA
ATOM      3  N   UNL     1      -1.462  11.226  18.570  0.00  0.00    +0.000 NA
ATOM      4  C   UNL     1      -2.250  11.763  19.457  0.00  0.00    +0.000 A 
ATOM      5  N   UNL     1      -1.868  12.095  20.755  0.00  0.00    +0.000 N 
ATOM      6  C   UNL     1      -2.832  12.625  21.612  0.00  0.00    +0.000 A 
ATOM      7  O   UNL     1      -2.578  12.969  22.761  0.00  0.00    +0.000 OA
ATOM      8  C   UNL     1      -4.197  12.727  21.082  0.00  0.00    +0.000 A 
ATOM      9  C   UNL     1      -5.359  13.093  21.831  0.00  0.00    +0.000 A 
ATOM     10  C   UNL     1      -6.498  13.043  21.051  0.00  0.00    +0.000 A 
ATOM     11  S   UNL     1      -6.157  12.582  19.423  0.00  0.00    +0.000 S 
ATOM     12  C   UNL     1      -4.523  12.407  19.776  0.00  0.00    +0.000 A 
ATOM     13  N   UNL     1      -3.533  11.923  18.927  0.00  0.00    +0.000 N 
ATOM     14  C   UNL     1      -7.874  13.355  21.573  0.00  0.00    +0.000 C 
ATOM     15  C   UNL     1      -7.905  13.290  23.118  0.00  0.00    +0.000 C 
ATOM     16  C   UNL     1      -6.709  14.004  23.758  0.00  0.00    +0.000 C 
ATOM     17  C   UNL     1      -5.385  13.394  23.304  0.00  0.00    +0.000 C 
ENDROOT
BRANCH   5  18
ATOM     18  C   UNL     1      -0.503  11.871  21.272  0.00  0.00    +0.000 C 
ATOM     19  C   UNL     1      -0.456  11.476  22.754  0.00  0.00    +0.000 C 
ATOM     20  C   UNL     1      -0.658   9.998  23.070  0.00  0.00    +0.000 C 
ATOM     21  C   UNL     1      -0.057   9.007  22.066  0.00  0.00    +0.000 C 
ATOM     22  C   UNL     1       0.069   9.446  20.603  0.00  0.00    +0.000 C 
ATOM     23  C   UNL     1       0.357  10.928  20.410  0.00  0.00    +0.000 C 
ENDBRANCH   5  18
BRANCH   1  25
ATOM     24  C   UNL     1      -3.258  10.551  15.094  0.00  0.00    +0.000 C 
ATOM     25  S   UNL     1      -4.422  11.431  16.256  0.00  0.00    +0.000 S 
ENDBRANCH   1  25
TORSDOF 2
ENDMDL
MODEL 5
REMARK VINA RESULT:      -6.9      0.762      1.064
REMARK  Name = 
REMARK  3 active torsions:
REMARK  status: ('A' for Active; 'I' for Inactive)
REMARK    1  A    between atoms: C_1  and  S_2
REMARK    2  A    between atoms: S_2  and  C_3
REMARK    3  A    between atoms: N_7  and  C_8
REMARK                            x       y       z     vdW  Elec       q    Type
REMARK                         _______ _______ _______ _____ _____    ______ ____
ROOT
ATOM      1  C   UNL     1       3.622   3.553  20.316  0.00  0.00    +0.000 A 
ATOM      2  N   UNL     1       4.715   2.923  19.934  0.00  0.00    +0.000 NA
ATOM      3  N   UNL     1       5.294   3.637  18.980  0.00  0.00    +0.000 NA
ATOM      4  C   UNL     1       4.612   4.731  18.791  0.00  0.00    +0.000 A 
ATOM      5  N   UNL     1       4.956   5.730  17.882  0.00  0.00    +0.000 N 
ATOM      6  C   UNL     1       4.155   6.868  17.817  0.00  0.00    +0.000 A 
ATOM      7  O   UNL     1       4.368   7.783  17.029  0.00  0.00    +0.000 OA
ATOM      8  C   UNL     1       3.042   6.944  18.771  0.00  0.00    +0.000 A 
ATOM      9  C   UNL     1       2.197   8.078  18.982  0.00  0.00    +0.000 A 
ATOM     10  C   UNL     1       1.279   7.844  19.987  0.00  0.00    +0.000 A 
ATOM     11  S   UNL     1       1.425   6.256  20.649  0.00  0.00    +0.000 S 
ATOM     12  C   UNL     1       2.725   5.915  19.639  0.00  0.00    +0.000 A 
ATOM     13  N   UNL     1       3.513   4.768  19.653  0.00  0.00    +0.000 N 
ATOM     14  C   UNL     1       0.274   8.864  20.446  0.00  0.00    +0.000 C 
ATOM     15  C   UNL     1       0.683  10.285  19.991  0.00  0.00    +0.000 C 
ATOM     16  C   UNL     1       1.137  10.322  18.528  0.00  0.00    +0.000 C 
ATOM     17  C   UNL     1       2.335   9.405  18.289  0.00  0.00    +0.000 C 
ENDROOT
BRANCH   5  18
ATOM     18  C   UNL     1       6.151   5.650  17.018  0.00  0.00    +0.000 C 
ATOM     19  C   UNL     1       6.658   4.220  16.789  0.00  0.00    +0.000 C 
ATOM     20  C   UNL     1       5.982   3.430  15.673  0.00  0.00    +0.000 C 
ATOM     21  C   UNL     1       5.576   4.232  14.431  0.00  0.00    +0.000 C 
ATOM     22  C   UNL     1       5.232   5.715  14.608  0.00  0.00    +0.000 C 
ATOM     23  C   UNL     1       6.031   6.424  15.692  0.00  0.00    +0.000 C 
ENDBRANCH   5  18
BRANCH   1  25
ATOM     24  C   UNL     1       1.115   2.565  20.340  0.00  0.00    +0.000 C 
ATOM     25  S   UNL     1       2.602   2.744  21.452  0.00  0.00    +0.000 S 
ENDBRANCH   1  25
TORSDOF 2
ENDMDL
MODEL 6
REMARK VINA RESULT:      -6.7      7.581     11.482
REMARK  Name = 
REMARK  3 active torsions:
REMARK  status: ('A' for Active; 'I' for Inactive)
REMARK    1  A    between atoms: C_1  and  S_2
REMARK    2  A    between atoms: S_2  and  C_3
REMARK    3  A    between atoms: N_7  and  C_8
REMARK                            x       y       z     vdW  Elec       q    Type
REMARK                         _______ _______ _______ _____ _____    ______ ____
ROOT
ATOM      1  C   UNL     1      -3.826  14.700  22.053  0.00  0.00    +0.000 A 
ATOM      2  N   UNL     1      -5.128  14.880  22.149  0.00  0.00    +0.000 NA
ATOM      3  N   UNL     1      -5.718  14.148  21.216  0.00  0.00    +0.000 NA
ATOM      4  C   UNL     1      -4.813  13.471  20.567  0.00  0.00    +0.000 A 
ATOM      5  N   UNL     1      -5.085  12.572  19.538  0.00  0.00    +0.000 N 
ATOM      6  C   UNL     1      -4.018  11.885  18.962  0.00  0.00    +0.000 A 
ATOM      7  O   UNL     1      -4.163  11.096  18.035  0.00  0.00    +0.000 OA
ATOM      8  C   UNL     1      -2.692  12.125  19.543  0.00  0.00    +0.000 A 
ATOM      9  C   UNL     1      -1.494  11.417  19.213  0.00  0.00    +0.000 A 
ATOM     10  C   UNL     1      -0.426  11.848  19.977  0.00  0.00    +0.000 A 
ATOM     11  S   UNL     1      -0.868  13.115  21.063  0.00  0.00    +0.000 S 
ATOM     12  C   UNL     1      -2.468  13.047  20.550  0.00  0.00    +0.000 A 
ATOM     13  N   UNL     1      -3.543  13.754  21.078  0.00  0.00    +0.000 N 
ATOM     14  C   UNL     1       0.958  11.270  19.866  0.00  0.00    +0.000 C 
ATOM     15  C   UNL     1       0.927   9.895  19.159  0.00  0.00    +0.000 C 
ATOM     16  C   UNL     1       0.043   9.900  17.907  0.00  0.00    +0.000 C 
ATOM     17  C   UNL     1      -1.400  10.273  18.242  0.00  0.00    +0.000 C 
ENDROOT
BRANCH   5  18
ATOM     18  C   UNL     1      -6.454  12.288  19.063  0.00  0.00    +0.000 C 
ATOM     19  C   UNL     1      -6.620  10.893  18.445  0.00  0.00    +0.000 C 
ATOM     20  C   UNL     1      -6.879   9.746  19.417  0.00  0.00    +0.000 C 
ATOM     21  C   UNL     1      -7.753  10.078  20.632  0.00  0.00    +0.000 C 
ATOM     22  C   UNL     1      -7.738  11.516  21.163  0.00  0.00    +0.000 C 
ATOM     23  C   UNL     1      -7.560  12.583  20.093  0.00  0.00    +0.000 C 
ENDBRANCH   5  18
BRANCH   1  25
ATOM     24  C   UNL     1      -3.913  15.632  24.580  0.00  0.00    +0.000 C 
ATOM     25  S   UNL     1      -2.819  15.670  23.069  0.00  0.00    +0.000 S 
ENDBRANCH   1  25
TORSDOF 2
ENDMDL
MODEL 7
REMARK VINA RESULT:      -6.6      1.906      4.651
REMARK  Name = 
REMARK  3 active torsions:
REMARK  status: ('A' for Active; 'I' for Inactive)
REMARK    1  A    between atoms: C_1  and  S_2
REMARK    2  A    between atoms: S_2  and  C_3
REMARK    3  A    between atoms: N_7  and  C_8
REMARK                            x       y       z     vdW  Elec       q    Type
REMARK                         _______ _______ _______ _____ _____    ______ ____
ROOT
ATOM      1  C   UNL     1       1.892   8.604  18.546  0.00  0.00    +0.000 A 
ATOM      2  N   UNL     1       2.403   9.262  17.524  0.00  0.00    +0.000 NA
ATOM      3  N   UNL     1       3.466   8.599  17.093  0.00  0.00    +0.000 NA
ATOM      4  C   UNL     1       3.603   7.509  17.793  0.00  0.00    +0.000 A 
ATOM      5  N   UNL     1       4.601   6.559  17.587  0.00  0.00    +0.000 N 
ATOM      6  C   UNL     1       4.600   5.417  18.386  0.00  0.00    +0.000 A 
ATOM      7  O   UNL     1       5.455   4.542  18.291  0.00  0.00    +0.000 OA
ATOM      8  C   UNL     1       3.496   5.285  19.343  0.00  0.00    +0.000 A 
ATOM      9  C   UNL     1       3.216   4.134  20.144  0.00  0.00    +0.000 A 
ATOM     10  C   UNL     1       2.074   4.311  20.902  0.00  0.00    +0.000 A 
ATOM     11  S   UNL     1       1.365   5.867  20.662  0.00  0.00    +0.000 S 
ATOM     12  C   UNL     1       2.541   6.269  19.529  0.00  0.00    +0.000 A 
ATOM     13  N   UNL     1       2.589   7.421  18.751  0.00  0.00    +0.000 N 
ATOM     14  C   UNL     1       1.521   3.261  21.825  0.00  0.00    +0.000 C 
ATOM     15  C   UNL     1       2.100   1.867  21.485  0.00  0.00    +0.000 C 
ATOM     16  C   UNL     1       3.615   1.904  21.255  0.00  0.00    +0.000 C 
ATOM     17  C   UNL     1       3.985   2.842  20.109  0.00  0.00    +0.000 C 
ENDROOT
BRANCH   5  18
ATOM     18  C   UNL     1       5.629   6.690  16.535  0.00  0.00    +0.000 C 
ATOM     19  C   UNL     1       7.021   6.203  16.962  0.00  0.00    +0.000 C 
ATOM     20  C   UNL     1       7.288   4.708  16.829  0.00  0.00    +0.000 C 
ATOM     21  C   UNL     1       6.649   4.015  15.619  0.00  0.00    +0.000 C 
ATOM     22  C   UNL     1       5.343   4.591  15.062  0.00  0.00    +0.000 C 
ATOM     23  C   UNL     1       5.222   6.104  15.170  0.00  0.00    +0.000 C 
ENDBRANCH   5  18
BRANCH   1  25
ATOM     24  C   UNL     1       1.098  11.117  19.105  0.00  0.00    +0.000 C 
ATOM     25  S   UNL     1       0.578   9.348  19.386  0.00  0.00    +0.000 S 
ENDBRANCH   1  25
TORSDOF 2
ENDMDL
MODEL 8
REMARK VINA RESULT:      -6.6      8.794     12.358
REMARK  Name = 
REMARK  3 active torsions:
REMARK  status: ('A' for Active; 'I' for Inactive)
REMARK    1  A    between atoms: C_1  and  S_2
REMARK    2  A    between atoms: S_2  and  C_3
REMARK    3  A    between atoms: N_7  and  C_8
REMARK                            x       y       z     vdW  Elec       q    Type
REMARK                         _______ _______ _______ _____ _____    ______ ____
ROOT
ATOM      1  C   UNL     1      -2.936  13.057  22.769  0.00  0.00    +0.000 A 
ATOM      2  N   UNL     1      -3.815  13.300  23.721  0.00  0.00    +0.000 NA
ATOM      3  N   UNL     1      -5.027  13.258  23.187  0.00  0.00    +0.000 NA
ATOM      4  C   UNL     1      -4.928  12.942  21.926  0.00  0.00    +0.000 A 
ATOM      5  N   UNL     1      -6.012  12.778  21.066  0.00  0.00    +0.000 N 
ATOM      6  C   UNL     1      -5.758  12.396  19.750  0.00  0.00    +0.000 A 
ATOM      7  O   UNL     1      -6.649  12.254  18.919  0.00  0.00    +0.000 OA
ATOM      8  C   UNL     1      -4.357  12.136  19.400  0.00  0.00    +0.000 A 
ATOM      9  C   UNL     1      -3.893  11.589  18.163  0.00  0.00    +0.000 A 
ATOM     10  C   UNL     1      -2.521  11.418  18.170  0.00  0.00    +0.000 A 
ATOM     11  S   UNL     1      -1.805  11.939  19.652  0.00  0.00    +0.000 S 
ATOM     12  C   UNL     1      -3.312  12.336  20.283  0.00  0.00    +0.000 A 
ATOM     13  N   UNL     1      -3.587  12.762  21.579  0.00  0.00    +0.000 N 
ATOM     14  C   UNL     1      -1.752  10.842  17.013  0.00  0.00    +0.000 C 
ATOM     15  C   UNL     1      -2.693  10.079  16.051  0.00  0.00    +0.000 C 
ATOM     16  C   UNL     1      -3.978  10.857  15.750  0.00  0.00    +0.000 C 
ATOM     17  C   UNL     1      -4.769  11.148  17.023  0.00  0.00    +0.000 C 
ENDROOT
BRANCH   5  18
ATOM     18  C   UNL     1      -7.413  12.950  21.500  0.00  0.00    +0.000 C 
ATOM     19  C   UNL     1      -7.741  12.261  22.832  0.00  0.00    +0.000 C 
ATOM     20  C   UNL     1      -7.408  13.042  24.100  0.00  0.00    +0.000 C 
ATOM     21  C   UNL     1      -7.617  14.559  24.031  0.00  0.00    +0.000 C 
ATOM     22  C   UNL     1      -7.467  15.249  22.670  0.00  0.00    +0.000 C 
ATOM     23  C   UNL     1      -7.911  14.407  21.482  0.00  0.00    +0.000 C 
ENDBRANCH   5  18
BRANCH   1  25
ATOM     24  C   UNL     1      -1.420  14.754  24.212  0.00  0.00    +0.000 C 
ATOM     25  S   UNL     1      -1.264  13.205  23.183  0.00  0.00    +0.000 S 
ENDBRANCH   1  25
TORSDOF 2
ENDMDL
MODEL 9
REMARK VINA RESULT:      -6.5      9.082     10.096
REMARK  Name = 
REMARK  3 active torsions:
REMARK  status: ('A' for Active; 'I' for Inactive)
REMARK    1  A    between atoms: C_1  and  S_2
REMARK    2  A    between atoms: S_2  and  C_3
REMARK    3  A    between atoms: N_7  and  C_8
REMARK                            x       y       z     vdW  Elec       q    Type
REMARK                         _______ _______ _______ _____ _____    ______ ____
ROOT
ATOM      1  C   UNL     1       6.620  15.503  18.980  0.00  0.00    +0.000 A 
ATOM      2  N   UNL     1       7.056  15.148  17.788  0.00  0.00    +0.000 NA
ATOM      3  N   UNL     1       7.983  14.215  17.946  0.00  0.00    +0.000 NA
ATOM      4  C   UNL     1       8.101  13.940  19.214  0.00  0.00    +0.000 A 
ATOM      5  N   UNL     1       8.963  12.978  19.737  0.00  0.00    +0.000 N 
ATOM      6  C   UNL     1       8.953  12.761  21.114  0.00  0.00    +0.000 A 
ATOM      7  O   UNL     1       9.696  11.954  21.662  0.00  0.00    +0.000 OA
ATOM      8  C   UNL     1       7.975  13.529  21.893  0.00  0.00    +0.000 A 
ATOM      9  C   UNL     1       7.688  13.352  23.283  0.00  0.00    +0.000 A 
ATOM     10  C   UNL     1       6.678  14.197  23.702  0.00  0.00    +0.000 A 
ATOM     11  S   UNL     1       6.103  15.210  22.428  0.00  0.00    +0.000 S 
ATOM     12  C   UNL     1       7.155  14.492  21.331  0.00  0.00    +0.000 A 
ATOM     13  N   UNL     1       7.216  14.723  19.961  0.00  0.00    +0.000 N 
ATOM     14  C   UNL     1       6.148  14.220  25.109  0.00  0.00    +0.000 C 
ATOM     15  C   UNL     1       6.536  12.928  25.866  0.00  0.00    +0.000 C 
ATOM     16  C   UNL     1       8.004  12.544  25.652  0.00  0.00    +0.000 C 
ATOM     17  C   UNL     1       8.314  12.315  24.174  0.00  0.00    +0.000 C 
ENDROOT
BRANCH   5  18
ATOM     18  C   UNL     1       9.854  12.156  18.894  0.00  0.00    +0.000 C 
ATOM     19  C   UNL     1       9.998  12.671  17.455  0.00  0.00    +0.000 C 
ATOM     20  C   UNL     1      11.036  13.765  17.226  0.00  0.00    +0.000 C 
ATOM     21  C   UNL     1      12.319  13.661  18.060  0.00  0.00    +0.000 C 
ATOM     22  C   UNL     1      12.235  12.989  19.435  0.00  0.00    +0.000 C 
ATOM     23  C   UNL     1      11.226  11.853  19.523  0.00  0.00    +0.000 C 
ENDBRANCH   5  18
BRANCH   1  25
ATOM     24  C   UNL     1       3.943  15.812  18.955  0.00  0.00    +0.000 C 
ATOM     25  S   UNL     1       5.507  16.824  19.051  0.00  0.00    +0.000 S 
ENDBRANCH   1  25
TORSDOF 2
ENDMDL
