MODEL 1
REMARK VINA RESULT:      -7.4      0.000      0.000
REMARK  Name = 
REMARK  3 active torsions:
REMARK  status: ('A' for Active; 'I' for Inactive)
REMARK    1  A    between atoms: C_2  and  N_3
REMARK    2  A    between atoms: C_2  and  N_15
REMARK    3  A    between atoms: N_3  and  C_4
REMARK                            x       y       z     vdW  Elec       q    Type
REMARK                         _______ _______ _______ _____ _____    ______ ____
ROOT
ATOM      1  N   UNL     1       5.091   4.909  19.228  0.00  0.00    +0.000 N 
ATOM      2  H   UNL     1       5.478   4.134  19.748  0.00  0.00    +0.000 HD
ENDROOT
BRANCH   1   3
ATOM      3  C   UNL     1       5.906   5.481  18.210  0.00  0.00    +0.000 A 
ATOM      4  C   UNL     1       6.802   6.499  18.545  0.00  0.00    +0.000 A 
ATOM      5  C   UNL     1       7.641   6.988  17.567  0.00  0.00    +0.000 A 
ATOM      6  N   UNL     1       7.680   6.516  16.308  0.00  0.00    +0.000 NA
ATOM      7  C   UNL     1       6.841   5.528  15.978  0.00  0.00    +0.000 A 
ATOM      8  C   UNL     1       6.918   5.056  14.678  0.00  0.00    +0.000 A 
ATOM      9  C   UNL     1       6.079   4.044  14.226  0.00  0.00    +0.000 A 
ATOM     10 CL   UNL     1       6.221   3.470  12.612  0.00  0.00    +0.000 Cl
ATOM     11  C   UNL     1       5.124   3.501  15.074  0.00  0.00    +0.000 A 
ATOM     12  C   UNL     1       5.036   3.955  16.393  0.00  0.00    +0.000 A 
ATOM     13  C   UNL     1       5.906   4.964  16.884  0.00  0.00    +0.000 A 
ENDBRANCH   1   3
BRANCH   1  15
ATOM     14  S   UNL     1       2.923   6.537  19.230  0.00  0.00    +0.000 S 
ATOM     15  C   UNL     1       3.723   5.066  19.425  0.00  0.00    +0.000 C 
BRANCH  15  16
ATOM     16  N   UNL     1       3.070   3.858  19.710  0.00  0.00    +0.000 N 
ATOM     17  C   UNL     1       1.603   3.738  19.829  0.00  0.00    +0.000 C 
ATOM     18  C   UNL     1       1.021   2.759  18.777  0.00  0.00    +0.000 C 
ATOM     19  N   UNL     1       1.700   1.453  18.743  0.00  0.00    +0.000 NA
ATOM     20  C   UNL     1       3.150   1.649  18.563  0.00  0.00    +0.000 C 
ATOM     21  C   UNL     1       3.738   2.543  19.667  0.00  0.00    +0.000 C 
ATOM     22  H   UNL     1       1.340   0.901  17.965  0.00  0.00    +0.000 HD
ENDBRANCH  15  16
ENDBRANCH   1  15
TORSDOF 3
ENDMDL
MODEL 2
REMARK VINA RESULT:      -7.4      5.294      6.994
REMARK  Name = 
REMARK  3 active torsions:
REMARK  status: ('A' for Active; 'I' for Inactive)
REMARK    1  A    between atoms: C_2  and  N_3
REMARK    2  A    between atoms: C_2  and  N_15
REMARK    3  A    between atoms: N_3  and  C_4
REMARK                            x       y       z     vdW  Elec       q    Type
REMARK                         _______ _______ _______ _____ _____    ______ ____
ROOT
ATOM      1  N   UNL     1       2.587   6.590  20.141  0.00  0.00    +0.000 N 
ATOM      2  H   UNL     1       2.803   6.539  21.127  0.00  0.00    +0.000 HD
ENDROOT
BRANCH   1   3
ATOM      3  C   UNL     1       2.049   7.816  19.655  0.00  0.00    +0.000 A 
ATOM      4  C   UNL     1       2.194   8.135  18.302  0.00  0.00    +0.000 A 
ATOM      5  C   UNL     1       1.599   9.283  17.828  0.00  0.00    +0.000 A 
ATOM      6  N   UNL     1       0.849  10.106  18.583  0.00  0.00    +0.000 NA
ATOM      7  C   UNL     1       0.686   9.804  19.876  0.00  0.00    +0.000 A 
ATOM      8  C   UNL     1      -0.105  10.663  20.620  0.00  0.00    +0.000 A 
ATOM      9  C   UNL     1      -0.324  10.451  21.976  0.00  0.00    +0.000 A 
ATOM     10 CL   UNL     1      -1.330  11.528  22.861  0.00  0.00    +0.000 Cl
ATOM     11  C   UNL     1       0.272   9.374  22.618  0.00  0.00    +0.000 A 
ATOM     12  C   UNL     1       1.065   8.488  21.883  0.00  0.00    +0.000 A 
ATOM     13  C   UNL     1       1.274   8.668  20.491  0.00  0.00    +0.000 A 
ENDBRANCH   1   3
BRANCH   1  15
ATOM     14  S   UNL     1       4.792   5.368  19.144  0.00  0.00    +0.000 S 
ATOM     15  C   UNL     1       3.137   5.541  19.410  0.00  0.00    +0.000 C 
BRANCH  15  16
ATOM     16  N   UNL     1       2.181   4.600  19.001  0.00  0.00    +0.000 N 
ATOM     17  C   UNL     1       2.187   3.964  17.669  0.00  0.00    +0.000 C 
ATOM     18  C   UNL     1       2.340   2.425  17.768  0.00  0.00    +0.000 C 
ATOM     19  N   UNL     1       1.388   1.793  18.697  0.00  0.00    +0.000 NA
ATOM     20  C   UNL     1       1.481   2.438  20.020  0.00  0.00    +0.000 C 
ATOM     21  C   UNL     1       1.231   3.952  19.927  0.00  0.00    +0.000 C 
ATOM     22  H   UNL     1       1.611   0.803  18.794  0.00  0.00    +0.000 HD
ENDBRANCH  15  16
ENDBRANCH   1  15
TORSDOF 3
ENDMDL
MODEL 3
REMARK VINA RESULT:      -7.2      4.994      6.649
REMARK  Name = 
REMARK  3 active torsions:
REMARK  status: ('A' for Active; 'I' for Inactive)
REMARK    1  A    between atoms: C_2  and  N_3
REMARK    2  A    between atoms: C_2  and  N_15
REMARK    3  A    between atoms: N_3  and  C_4
REMARK                            x       y       z     vdW  Elec       q    Type
REMARK                         _______ _______ _______ _____ _____    ______ ____
ROOT
ATOM      1  N   UNL     1       2.615   6.207  20.325  0.00  0.00    +0.000 N 
ATOM      2  H   UNL     1       2.549   6.158  21.332  0.00  0.00    +0.000 HD
ENDROOT
BRANCH   1   3
ATOM      3  C   UNL     1       2.190   7.415  19.703  0.00  0.00    +0.000 A 
ATOM      4  C   UNL     1       2.403   7.588  18.332  0.00  0.00    +0.000 A 
ATOM      5  C   UNL     1       1.915   8.725  17.727  0.00  0.00    +0.000 A 
ATOM      6  N   UNL     1       1.206   9.671  18.369  0.00  0.00    +0.000 NA
ATOM      7  C   UNL     1       0.978   9.510  19.677  0.00  0.00    +0.000 A 
ATOM      8  C   UNL     1       0.231  10.494  20.304  0.00  0.00    +0.000 A 
ATOM      9  C   UNL     1      -0.048  10.433  21.664  0.00  0.00    +0.000 A 
ATOM     10 CL   UNL     1      -0.996  11.664  22.400  0.00  0.00    +0.000 Cl
ATOM     11  C   UNL     1       0.442   9.384  22.429  0.00  0.00    +0.000 A 
ATOM     12  C   UNL     1       1.188   8.374  21.814  0.00  0.00    +0.000 A 
ATOM     13  C   UNL     1       1.456   8.400  20.421  0.00  0.00    +0.000 A 
ENDBRANCH   1   3
BRANCH   1  15
ATOM     14  S   UNL     1       4.924   5.426  19.138  0.00  0.00    +0.000 S 
ATOM     15  C   UNL     1       3.385   5.183  19.781  0.00  0.00    +0.000 C 
BRANCH  15  16
ATOM     16  N   UNL     1       2.787   3.921  19.910  0.00  0.00    +0.000 N 
ATOM     17  C   UNL     1       1.328   3.706  19.847  0.00  0.00    +0.000 C 
ATOM     18  C   UNL     1       0.935   2.772  18.674  0.00  0.00    +0.000 C 
ATOM     19  N   UNL     1       1.700   1.513  18.637  0.00  0.00    +0.000 NA
ATOM     20  C   UNL     1       3.144   1.808  18.641  0.00  0.00    +0.000 C 
ATOM     21  C   UNL     1       3.543   2.654  19.861  0.00  0.00    +0.000 C 
ATOM     22  H   UNL     1       1.468   0.998  17.788  0.00  0.00    +0.000 HD
ENDBRANCH  15  16
ENDBRANCH   1  15
TORSDOF 3
ENDMDL
MODEL 4
REMARK VINA RESULT:      -7.1      5.489      7.325
REMARK  Name = 
REMARK  3 active torsions:
REMARK  status: ('A' for Active; 'I' for Inactive)
REMARK    1  A    between atoms: C_2  and  N_3
REMARK    2  A    between atoms: C_2  and  N_15
REMARK    3  A    between atoms: N_3  and  C_4
REMARK                            x       y       z     vdW  Elec       q    Type
REMARK                         _______ _______ _______ _____ _____    ______ ____
ROOT
ATOM      1  N   UNL     1       2.606   6.819  20.165  0.00  0.00    +0.000 N 
ATOM      2  H   UNL     1       3.458   6.943  20.694  0.00  0.00    +0.000 HD
ENDROOT
BRANCH   1   3
ATOM      3  C   UNL     1       1.949   7.996  19.706  0.00  0.00    +0.000 A 
ATOM      4  C   UNL     1       2.000   8.320  18.347  0.00  0.00    +0.000 A 
ATOM      5  C   UNL     1       1.294   9.416  17.903  0.00  0.00    +0.000 A 
ATOM      6  N   UNL     1       0.519  10.180  18.695  0.00  0.00    +0.000 NA
ATOM      7  C   UNL     1       0.446   9.872  19.994  0.00  0.00    +0.000 A 
ATOM      8  C   UNL     1      -0.373  10.669  20.777  0.00  0.00    +0.000 A 
ATOM      9  C   UNL     1      -0.506  10.446  22.142  0.00  0.00    +0.000 A 
ATOM     10 CL   UNL     1      -1.549  11.445  23.075  0.00  0.00    +0.000 Cl
ATOM     11  C   UNL     1       0.205   9.423  22.753  0.00  0.00    +0.000 A 
ATOM     12  C   UNL     1       1.028   8.599  21.980  0.00  0.00    +0.000 A 
ATOM     13  C   UNL     1       1.151   8.789  20.579  0.00  0.00    +0.000 A 
ENDBRANCH   1   3
BRANCH   1  15
ATOM     14  S   UNL     1       1.274   4.473  20.441  0.00  0.00    +0.000 S 
ATOM     15  C   UNL     1       2.411   5.506  19.746  0.00  0.00    +0.000 C 
BRANCH  15  16
ATOM     16  N   UNL     1       3.191   5.167  18.631  0.00  0.00    +0.000 N 
ATOM     17  C   UNL     1       4.592   5.602  18.459  0.00  0.00    +0.000 C 
ATOM     18  C   UNL     1       5.560   4.394  18.372  0.00  0.00    +0.000 C 
ATOM     19  N   UNL     1       5.153   3.377  17.387  0.00  0.00    +0.000 NA
ATOM     20  C   UNL     1       3.768   2.949  17.657  0.00  0.00    +0.000 C 
ATOM     21  C   UNL     1       2.797   4.140  17.646  0.00  0.00    +0.000 C 
ATOM     22  H   UNL     1       5.770   2.569  17.456  0.00  0.00    +0.000 HD
ENDBRANCH  15  16
ENDBRANCH   1  15
TORSDOF 3
ENDMDL
MODEL 5
REMARK VINA RESULT:      -7.0      1.183      1.509
REMARK  Name = 
REMARK  3 active torsions:
REMARK  status: ('A' for Active; 'I' for Inactive)
REMARK    1  A    between atoms: C_2  and  N_3
REMARK    2  A    between atoms: C_2  and  N_15
REMARK    3  A    between atoms: N_3  and  C_4
REMARK                            x       y       z     vdW  Elec       q    Type
REMARK                         _______ _______ _______ _____ _____    ______ ____
ROOT
ATOM      1  N   UNL     1       4.116   4.823  18.339  0.00  0.00    +0.000 N 
ATOM      2  H   UNL     1       3.984   3.822  18.372  0.00  0.00    +0.000 HD
ENDROOT
BRANCH   1   3
ATOM      3  C   UNL     1       5.290   5.304  17.693  0.00  0.00    +0.000 A 
ATOM      4  C   UNL     1       6.205   6.068  18.421  0.00  0.00    +0.000 A 
ATOM      5  C   UNL     1       7.375   6.459  17.808  0.00  0.00    +0.000 A 
ATOM      6  N   UNL     1       7.713   6.116  16.552  0.00  0.00    +0.000 NA
ATOM      7  C   UNL     1       6.856   5.369  15.848  0.00  0.00    +0.000 A 
ATOM      8  C   UNL     1       7.243   5.021  14.564  0.00  0.00    +0.000 A 
ATOM      9  C   UNL     1       6.418   4.262  13.743  0.00  0.00    +0.000 A 
ATOM     10 CL   UNL     1       6.944   3.832  12.163  0.00  0.00    +0.000 Cl
ATOM     11  C   UNL     1       5.170   3.856  14.192  0.00  0.00    +0.000 A 
ATOM     12  C   UNL     1       4.764   4.186  15.489  0.00  0.00    +0.000 A 
ATOM     13  C   UNL     1       5.605   4.932  16.356  0.00  0.00    +0.000 A 
ENDBRANCH   1   3
BRANCH   1  15
ATOM     14  S   UNL     1       2.684   7.121  18.190  0.00  0.00    +0.000 S 
ATOM     15  C   UNL     1       2.969   5.533  18.681  0.00  0.00    +0.000 C 
BRANCH  15  16
ATOM     16  N   UNL     1       2.039   4.761  19.392  0.00  0.00    +0.000 N 
ATOM     17  C   UNL     1       1.375   3.569  18.827  0.00  0.00    +0.000 C 
ATOM     18  C   UNL     1       1.702   2.290  19.641  0.00  0.00    +0.000 C 
ATOM     19  N   UNL     1       1.478   2.437  21.090  0.00  0.00    +0.000 NA
ATOM     20  C   UNL     1       2.218   3.608  21.593  0.00  0.00    +0.000 C 
ATOM     21  C   UNL     1       1.816   4.891  20.846  0.00  0.00    +0.000 C 
ATOM     22  H   UNL     1       1.810   1.602  21.572  0.00  0.00    +0.000 HD
ENDBRANCH  15  16
ENDBRANCH   1  15
TORSDOF 3
ENDMDL
MODEL 6
REMARK VINA RESULT:      -7.0      5.150      6.988
REMARK  Name = 
REMARK  3 active torsions:
REMARK  status: ('A' for Active; 'I' for Inactive)
REMARK    1  A    between atoms: C_2  and  N_3
REMARK    2  A    between atoms: C_2  and  N_15
REMARK    3  A    between atoms: N_3  and  C_4
REMARK                            x       y       z     vdW  Elec       q    Type
REMARK                         _______ _______ _______ _____ _____    ______ ____
ROOT
ATOM      1  N   UNL     1       2.760   6.407  20.355  0.00  0.00    +0.000 N 
ATOM      2  H   UNL     1       3.567   6.557  20.944  0.00  0.00    +0.000 HD
ENDROOT
BRANCH   1   3
ATOM      3  C   UNL     1       2.196   7.551  19.721  0.00  0.00    +0.000 A 
ATOM      4  C   UNL     1       2.361   7.718  18.344  0.00  0.00    +0.000 A 
ATOM      5  C   UNL     1       1.742   8.784  17.729  0.00  0.00    +0.000 A 
ATOM      6  N   UNL     1       0.951   9.663  18.371  0.00  0.00    +0.000 NA
ATOM      7  C   UNL     1       0.768   9.505  19.686  0.00  0.00    +0.000 A 
ATOM      8  C   UNL     1      -0.065  10.418  20.312  0.00  0.00    +0.000 A 
ATOM      9  C   UNL     1      -0.308  10.355  21.679  0.00  0.00    +0.000 A 
ATOM     10 CL   UNL     1      -1.366  11.493  22.414  0.00  0.00    +0.000 Cl
ATOM     11  C   UNL     1       0.307   9.379  22.451  0.00  0.00    +0.000 A 
ATOM     12  C   UNL     1       1.143   8.441  21.838  0.00  0.00    +0.000 A 
ATOM     13  C   UNL     1       1.377   8.467  20.438  0.00  0.00    +0.000 A 
ENDBRANCH   1   3
BRANCH   1  15
ATOM     14  S   UNL     1       1.051   4.307  20.222  0.00  0.00    +0.000 S 
ATOM     15  C   UNL     1       2.547   5.065  20.056  0.00  0.00    +0.000 C 
BRANCH  15  16
ATOM     16  N   UNL     1       3.681   4.439  19.517  0.00  0.00    +0.000 N 
ATOM     17  C   UNL     1       3.651   3.095  18.907  0.00  0.00    +0.000 C 
ATOM     18  C   UNL     1       4.077   3.132  17.416  0.00  0.00    +0.000 C 
ATOM     19  N   UNL     1       5.348   3.839  17.181  0.00  0.00    +0.000 NA
ATOM     20  C   UNL     1       5.282   5.191  17.764  0.00  0.00    +0.000 C 
ATOM     21  C   UNL     1       4.955   5.141  19.265  0.00  0.00    +0.000 C 
ATOM     22  H   UNL     1       5.514   3.917  16.178  0.00  0.00    +0.000 HD
ENDBRANCH  15  16
ENDBRANCH   1  15
TORSDOF 3
ENDMDL
MODEL 7
REMARK VINA RESULT:      -7.0      3.355      6.399
REMARK  Name = 
REMARK  3 active torsions:
REMARK  status: ('A' for Active; 'I' for Inactive)
REMARK    1  A    between atoms: C_2  and  N_3
REMARK    2  A    between atoms: C_2  and  N_15
REMARK    3  A    between atoms: N_3  and  C_4
REMARK                            x       y       z     vdW  Elec       q    Type
REMARK                         _______ _______ _______ _____ _____    ______ ____
ROOT
ATOM      1  N   UNL     1       4.243   4.619  16.592  0.00  0.00    +0.000 N 
ATOM      2  H   UNL     1       3.825   4.453  15.687  0.00  0.00    +0.000 HD
ENDROOT
BRANCH   1   3
ATOM      3  C   UNL     1       3.471   4.277  17.738  0.00  0.00    +0.000 A 
ATOM      4  C   UNL     1       3.386   2.938  18.128  0.00  0.00    +0.000 A 
ATOM      5  C   UNL     1       2.704   2.629  19.285  0.00  0.00    +0.000 A 
ATOM      6  N   UNL     1       2.140   3.548  20.090  0.00  0.00    +0.000 NA
ATOM      7  C   UNL     1       2.230   4.835  19.740  0.00  0.00    +0.000 A 
ATOM      8  C   UNL     1       1.653   5.755  20.600  0.00  0.00    +0.000 A 
ATOM      9  C   UNL     1       1.674   7.116  20.320  0.00  0.00    +0.000 A 
ATOM     10 CL   UNL     1       0.966   8.228  21.425  0.00  0.00    +0.000 Cl
ATOM     11  C   UNL     1       2.259   7.578  19.151  0.00  0.00    +0.000 A 
ATOM     12  C   UNL     1       2.857   6.668  18.274  0.00  0.00    +0.000 A 
ATOM     13  C   UNL     1       2.877   5.278  18.557  0.00  0.00    +0.000 A 
ENDBRANCH   1   3
BRANCH   1  15
ATOM     14  S   UNL     1       6.595   4.298  15.280  0.00  0.00    +0.000 S 
ATOM     15  C   UNL     1       5.609   4.877  16.519  0.00  0.00    +0.000 C 
BRANCH  15  16
ATOM     16  N   UNL     1       6.056   5.742  17.529  0.00  0.00    +0.000 N 
ATOM     17  C   UNL     1       6.592   5.270  18.821  0.00  0.00    +0.000 C 
ATOM     18  C   UNL     1       8.059   5.723  19.034  0.00  0.00    +0.000 C 
ATOM     19  N   UNL     1       8.271   7.165  18.819  0.00  0.00    +0.000 NA
ATOM     20  C   UNL     1       7.768   7.550  17.488  0.00  0.00    +0.000 C 
ATOM     21  C   UNL     1       6.284   7.185  17.320  0.00  0.00    +0.000 C 
ATOM     22  H   UNL     1       9.267   7.375  18.872  0.00  0.00    +0.000 HD
ENDBRANCH  15  16
ENDBRANCH   1  15
TORSDOF 3
ENDMDL
MODEL 8
REMARK VINA RESULT:      -6.9      0.910      1.468
REMARK  Name = 
REMARK  3 active torsions:
REMARK  status: ('A' for Active; 'I' for Inactive)
REMARK    1  A    between atoms: C_2  and  N_3
REMARK    2  A    between atoms: C_2  and  N_15
REMARK    3  A    between atoms: N_3  and  C_4
REMARK                            x       y       z     vdW  Elec       q    Type
REMARK                         _______ _______ _______ _____ _____    ______ ____
ROOT
ATOM      1  N   UNL     1       4.974   5.049  19.080  0.00  0.00    +0.000 N 
ATOM      2  H   UNL     1       5.309   4.282  19.646  0.00  0.00    +0.000 HD
ENDROOT
BRANCH   1   3
ATOM      3  C   UNL     1       5.860   5.560  18.089  0.00  0.00    +0.000 A 
ATOM      4  C   UNL     1       6.789   6.541  18.447  0.00  0.00    +0.000 A 
ATOM      5  C   UNL     1       7.694   6.969  17.500  0.00  0.00    +0.000 A 
ATOM      6  N   UNL     1       7.764   6.472  16.252  0.00  0.00    +0.000 NA
ATOM      7  C   UNL     1       6.894   5.519  15.901  0.00  0.00    +0.000 A 
ATOM      8  C   UNL     1       7.005   5.018  14.615  0.00  0.00    +0.000 A 
ATOM      9  C   UNL     1       6.139   4.039  14.144  0.00  0.00    +0.000 A 
ATOM     10 CL   UNL     1       6.324   3.427  12.547  0.00  0.00    +0.000 Cl
ATOM     11  C   UNL     1       5.122   3.559  14.957  0.00  0.00    +0.000 A 
ATOM     12  C   UNL     1       4.998   4.043  16.262  0.00  0.00    +0.000 A 
ATOM     13  C   UNL     1       5.894   5.018  16.774  0.00  0.00    +0.000 A 
ENDBRANCH   1   3
BRANCH   1  15
ATOM     14  S   UNL     1       2.861   6.741  18.924  0.00  0.00    +0.000 S 
ATOM     15  C   UNL     1       3.602   5.251  19.195  0.00  0.00    +0.000 C 
BRANCH  15  16
ATOM     16  N   UNL     1       2.896   4.070  19.467  0.00  0.00    +0.000 N 
ATOM     17  C   UNL     1       3.385   3.029  20.393  0.00  0.00    +0.000 C 
ATOM     18  C   UNL     1       2.412   2.814  21.581  0.00  0.00    +0.000 C 
ATOM     19  N   UNL     1       1.014   2.603  21.170  0.00  0.00    +0.000 NA
ATOM     20  C   UNL     1       0.577   3.709  20.300  0.00  0.00    +0.000 C 
ATOM     21  C   UNL     1       1.491   3.853  19.072  0.00  0.00    +0.000 C 
ATOM     22  H   UNL     1       0.416   2.574  21.997  0.00  0.00    +0.000 HD
ENDBRANCH  15  16
ENDBRANCH   1  15
TORSDOF 3
ENDMDL
MODEL 9
REMARK VINA RESULT:      -6.9      3.431      6.294
REMARK  Name = 
REMARK  3 active torsions:
REMARK  status: ('A' for Active; 'I' for Inactive)
REMARK    1  A    between atoms: C_2  and  N_3
REMARK    2  A    between atoms: C_2  and  N_15
REMARK    3  A    between atoms: N_3  and  C_4
REMARK                            x       y       z     vdW  Elec       q    Type
REMARK                         _______ _______ _______ _____ _____    ______ ____
ROOT
ATOM      1  N   UNL     1       4.685   5.419  16.467  0.00  0.00    +0.000 N 
ATOM      2  H   UNL     1       4.165   6.011  15.835  0.00  0.00    +0.000 HD
ENDROOT
BRANCH   1   3
ATOM      3  C   UNL     1       4.001   4.941  17.621  0.00  0.00    +0.000 A 
ATOM      4  C   UNL     1       4.172   3.610  18.012  0.00  0.00    +0.000 A 
ATOM      5  C   UNL     1       3.570   3.182  19.175  0.00  0.00    +0.000 A 
ATOM      6  N   UNL     1       2.853   3.980  19.986  0.00  0.00    +0.000 NA
ATOM      7  C   UNL     1       2.697   5.261  19.635  0.00  0.00    +0.000 A 
ATOM      8  C   UNL     1       1.967   6.059  20.501  0.00  0.00    +0.000 A 
ATOM      9  C   UNL     1       1.731   7.400  20.221  0.00  0.00    +0.000 A 
ATOM     10 CL   UNL     1       0.838   8.362  21.333  0.00  0.00    +0.000 Cl
ATOM     11  C   UNL     1       2.208   7.961  19.046  0.00  0.00    +0.000 A 
ATOM     12  C   UNL     1       2.957   7.177  18.163  0.00  0.00    +0.000 A 
ATOM     13  C   UNL     1       3.238   5.815  18.446  0.00  0.00    +0.000 A 
ENDBRANCH   1   3
BRANCH   1  15
ATOM     14  S   UNL     1       5.957   4.037  14.512  0.00  0.00    +0.000 S 
ATOM     15  C   UNL     1       5.879   4.958  15.921  0.00  0.00    +0.000 C 
BRANCH  15  16
ATOM     16  N   UNL     1       7.010   5.418  16.613  0.00  0.00    +0.000 N 
ATOM     17  C   UNL     1       7.514   6.802  16.513  0.00  0.00    +0.000 C 
ATOM     18  C   UNL     1       7.498   7.519  17.887  0.00  0.00    +0.000 C 
ATOM     19  N   UNL     1       8.148   6.751  18.964  0.00  0.00    +0.000 NA
ATOM     20  C   UNL     1       7.553   5.404  19.043  0.00  0.00    +0.000 C 
ATOM     21  C   UNL     1       7.660   4.661  17.702  0.00  0.00    +0.000 C 
ATOM     22  H   UNL     1       8.010   7.228  19.854  0.00  0.00    +0.000 HD
ENDBRANCH  15  16
ENDBRANCH   1  15
TORSDOF 3
ENDMDL
