MODEL 1
REMARK VINA RESULT:      -7.9      0.000      0.000
REMARK  Name = 
REMARK  8 active torsions:
REMARK  status: ('A' for Active; 'I' for Inactive)
REMARK    1  A    between atoms: C_1  and  O_2
REMARK    2  A    between atoms: O_2  and  C_3
REMARK    3  A    between atoms: C_6  and  N_7
REMARK    4  A    between atoms: N_7  and  C_8
REMARK    5  A    between atoms: N_15  and  C_16
REMARK    6  A    between atoms: C_16  and  C_17
REMARK    7  A    between atoms: C_25  and  O_26
REMARK    8  A    between atoms: O_26  and  C_27
REMARK                            x       y       z     vdW  Elec       q    Type
REMARK                         _______ _______ _______ _____ _____    ______ ____
ROOT
ATOM      1  C   UNL     1       0.594   9.849  19.388  0.00  0.00    +0.000 C 
ATOM      2  C   UNL     1       1.480   8.862  19.618  0.00  0.00    +0.000 C 
ATOM      3  C   UNL     1       1.493   8.285  20.970  0.00  0.00    +0.000 C 
ATOM      4  O   UNL     1       1.074   8.859  21.972  0.00  0.00    +0.000 OA
ATOM      5  N   UNL     1       1.917   6.991  21.011  0.00  0.00    +0.000 N 
ATOM      6  C   UNL     1       2.313   6.199  19.961  0.00  0.00    +0.000 C 
ATOM      7  S   UNL     1       2.544   4.580  20.334  0.00  0.00    +0.000 S 
ATOM      8  N   UNL     1       2.464   6.822  18.725  0.00  0.00    +0.000 N 
ATOM      9  C   UNL     1       2.171   8.174  18.509  0.00  0.00    +0.000 C 
ATOM     10  O   UNL     1       2.382   8.768  17.447  0.00  0.00    +0.000 OA
ATOM     11  H   UNL     1       1.813   6.539  21.911  0.00  0.00    +0.000 HD
ENDROOT
BRANCH   1  12
ATOM     12  N   UNL     1       0.165  10.407  18.194  0.00  0.00    +0.000 N 
ATOM     13  H   UNL     1       0.493   9.862  17.384  0.00  0.00    +0.000 HD
BRANCH  12  17
ATOM     14  C   UNL     1      -3.981  11.053  17.461  0.00  0.00    +0.000 A 
ATOM     15  C   UNL     1      -3.294  10.051  16.786  0.00  0.00    +0.000 A 
ATOM     16  C   UNL     1      -1.941   9.832  17.036  0.00  0.00    +0.000 A 
ATOM     17  C   UNL     1      -1.244  10.601  17.985  0.00  0.00    +0.000 A 
ATOM     18  C   UNL     1      -1.931  11.641  18.639  0.00  0.00    +0.000 A 
ATOM     19  C   UNL     1      -3.295  11.855  18.376  0.00  0.00    +0.000 A 
BRANCH  14  21
ATOM     20  C   UNL     1      -5.965  12.357  17.506  0.00  0.00    +0.000 C 
ATOM     21  O   UNL     1      -5.303  11.156  17.131  0.00  0.00    +0.000 OA
ENDBRANCH  14  21
BRANCH  18  22
ATOM     22  O   UNL     1      -1.203  12.423  19.504  0.00  0.00    +0.000 OA
ATOM     23  C   UNL     1      -1.673  12.448  20.849  0.00  0.00    +0.000 C 
ENDBRANCH  18  22
ENDBRANCH  12  17
ENDBRANCH   1  12
BRANCH   8  24
ATOM     24  C   UNL     1       2.785   6.055  17.507  0.00  0.00    +0.000 C 
BRANCH  24  25
ATOM     25  C   UNL     1       4.248   5.730  17.278  0.00  0.00    +0.000 A 
ATOM     26  C   UNL     1       4.644   4.463  16.823  0.00  0.00    +0.000 A 
ATOM     27  C   UNL     1       5.969   4.217  16.449  0.00  0.00    +0.000 A 
ATOM     28  C   UNL     1       6.917   5.233  16.528  0.00  0.00    +0.000 A 
ATOM     29  C   UNL     1       6.548   6.486  17.009  0.00  0.00    +0.000 A 
ATOM     30  C   UNL     1       5.226   6.731  17.390  0.00  0.00    +0.000 A 
ENDBRANCH  24  25
ENDBRANCH   8  24
TORSDOF 6
ENDMDL
MODEL 2
REMARK VINA RESULT:      -7.8      2.894      8.112
REMARK  Name = 
REMARK  8 active torsions:
REMARK  status: ('A' for Active; 'I' for Inactive)
REMARK    1  A    between atoms: C_1  and  O_2
REMARK    2  A    between atoms: O_2  and  C_3
REMARK    3  A    between atoms: C_6  and  N_7
REMARK    4  A    between atoms: N_7  and  C_8
REMARK    5  A    between atoms: N_15  and  C_16
REMARK    6  A    between atoms: C_16  and  C_17
REMARK    7  A    between atoms: C_25  and  O_26
REMARK    8  A    between atoms: O_26  and  C_27
REMARK                            x       y       z     vdW  Elec       q    Type
REMARK                         _______ _______ _______ _____ _____    ______ ____
ROOT
ATOM      1  C   UNL     1       1.372   8.638  21.472  0.00  0.00    +0.000 C 
ATOM      2  C   UNL     1       0.290   9.438  21.498  0.00  0.00    +0.000 C 
ATOM      3  C   UNL     1      -0.096   9.986  22.807  0.00  0.00    +0.000 C 
ATOM      4  O   UNL     1       0.216   9.489  23.885  0.00  0.00    +0.000 OA
ATOM      5  N   UNL     1      -0.753  11.177  22.730  0.00  0.00    +0.000 N 
ATOM      6  C   UNL     1      -1.076  11.893  21.603  0.00  0.00    +0.000 C 
ATOM      7  S   UNL     1      -1.672  13.435  21.882  0.00  0.00    +0.000 S 
ATOM      8  N   UNL     1      -0.860  11.267  20.377  0.00  0.00    +0.000 N 
ATOM      9  C   UNL     1      -0.284   9.997  20.258  0.00  0.00    +0.000 C 
ATOM     10  O   UNL     1      -0.168   9.386  19.191  0.00  0.00    +0.000 OA
ATOM     11  H   UNL     1      -0.916  11.630  23.621  0.00  0.00    +0.000 HD
ENDROOT
BRANCH   1  12
ATOM     12  N   UNL     1       2.125   8.183  20.400  0.00  0.00    +0.000 N 
ATOM     13  H   UNL     1       3.133   8.312  20.566  0.00  0.00    +0.000 HD
BRANCH  12  17
ATOM     14  C   UNL     1       1.790   4.107  19.212  0.00  0.00    +0.000 A 
ATOM     15  C   UNL     1       1.339   4.516  20.462  0.00  0.00    +0.000 A 
ATOM     16  C   UNL     1       1.437   5.852  20.844  0.00  0.00    +0.000 A 
ATOM     17  C   UNL     1       1.974   6.819  19.975  0.00  0.00    +0.000 A 
ATOM     18  C   UNL     1       2.466   6.396  18.726  0.00  0.00    +0.000 A 
ATOM     19  C   UNL     1       2.365   5.045  18.352  0.00  0.00    +0.000 A 
BRANCH  14  21
ATOM     20  C   UNL     1       2.591   2.161  18.113  0.00  0.00    +0.000 C 
ATOM     21  O   UNL     1       1.626   2.775  18.958  0.00  0.00    +0.000 OA
ENDBRANCH  14  21
BRANCH  18  22
ATOM     22  O   UNL     1       3.053   7.352  17.930  0.00  0.00    +0.000 OA
ATOM     23  C   UNL     1       4.272   6.963  17.305  0.00  0.00    +0.000 C 
ENDBRANCH  18  22
ENDBRANCH  12  17
ENDBRANCH   1  12
BRANCH   8  24
ATOM     24  C   UNL     1      -1.073  11.974  19.101  0.00  0.00    +0.000 C 
BRANCH  24  25
ATOM     25  C   UNL     1      -2.346  11.644  18.348  0.00  0.00    +0.000 A 
ATOM     26  C   UNL     1      -3.605  11.907  18.908  0.00  0.00    +0.000 A 
ATOM     27  C   UNL     1      -4.772  11.763  18.150  0.00  0.00    +0.000 A 
ATOM     28  C   UNL     1      -4.696  11.352  16.822  0.00  0.00    +0.000 A 
ATOM     29  C   UNL     1      -3.457  11.056  16.261  0.00  0.00    +0.000 A 
ATOM     30  C   UNL     1      -2.291  11.192  17.020  0.00  0.00    +0.000 A 
ENDBRANCH  24  25
ENDBRANCH   8  24
TORSDOF 6
ENDMDL
MODEL 3
REMARK VINA RESULT:      -7.6      1.050      1.824
REMARK  Name = 
REMARK  8 active torsions:
REMARK  status: ('A' for Active; 'I' for Inactive)
REMARK    1  A    between atoms: C_1  and  O_2
REMARK    2  A    between atoms: O_2  and  C_3
REMARK    3  A    between atoms: C_6  and  N_7
REMARK    4  A    between atoms: N_7  and  C_8
REMARK    5  A    between atoms: N_15  and  C_16
REMARK    6  A    between atoms: C_16  and  C_17
REMARK    7  A    between atoms: C_25  and  O_26
REMARK    8  A    between atoms: O_26  and  C_27
REMARK                            x       y       z     vdW  Elec       q    Type
REMARK                         _______ _______ _______ _____ _____    ______ ____
ROOT
ATOM      1  C   UNL     1       0.312  10.037  19.541  0.00  0.00    +0.000 C 
ATOM      2  C   UNL     1       1.253   9.093  19.734  0.00  0.00    +0.000 C 
ATOM      3  C   UNL     1       1.371   8.546  21.093  0.00  0.00    +0.000 C 
ATOM      4  O   UNL     1       0.989   9.121  22.108  0.00  0.00    +0.000 OA
ATOM      5  N   UNL     1       1.852   7.271  21.131  0.00  0.00    +0.000 N 
ATOM      6  C   UNL     1       2.219   6.475  20.074  0.00  0.00    +0.000 C 
ATOM      7  S   UNL     1       2.540   4.875  20.461  0.00  0.00    +0.000 S 
ATOM      8  N   UNL     1       2.268   7.079  18.819  0.00  0.00    +0.000 N 
ATOM      9  C   UNL     1       1.905   8.412  18.598  0.00  0.00    +0.000 C 
ATOM     10  O   UNL     1       2.026   8.993  17.515  0.00  0.00    +0.000 OA
ATOM     11  H   UNL     1       1.823   6.833  22.044  0.00  0.00    +0.000 HD
ENDROOT
BRANCH   1  12
ATOM     12  N   UNL     1      -0.211  10.553  18.365  0.00  0.00    +0.000 N 
ATOM     13  H   UNL     1      -0.173   9.862  17.601  0.00  0.00    +0.000 HD
BRANCH  12  17
ATOM     14  C   UNL     1      -4.236  11.941  18.461  0.00  0.00    +0.000 A 
ATOM     15  C   UNL     1      -3.344  12.297  19.467  0.00  0.00    +0.000 A 
ATOM     16  C   UNL     1      -2.025  11.852  19.427  0.00  0.00    +0.000 A 
ATOM     17  C   UNL     1      -1.558  11.054  18.367  0.00  0.00    +0.000 A 
ATOM     18  C   UNL     1      -2.472  10.663  17.371  0.00  0.00    +0.000 A 
ATOM     19  C   UNL     1      -3.802  11.115  17.423  0.00  0.00    +0.000 A 
BRANCH  14  21
ATOM     20  C   UNL     1      -6.539  11.804  17.897  0.00  0.00    +0.000 C 
ATOM     21  O   UNL     1      -5.495  12.451  18.614  0.00  0.00    +0.000 OA
ENDBRANCH  14  21
BRANCH  18  22
ATOM     22  O   UNL     1      -2.004   9.822  16.389  0.00  0.00    +0.000 OA
ATOM     23  C   UNL     1      -2.751   9.821  15.177  0.00  0.00    +0.000 C 
ENDBRANCH  18  22
ENDBRANCH  12  17
ENDBRANCH   1  12
BRANCH   8  24
ATOM     24  C   UNL     1       2.548   6.301  17.599  0.00  0.00    +0.000 C 
BRANCH  24  25
ATOM     25  C   UNL     1       3.997   5.928  17.351  0.00  0.00    +0.000 A 
ATOM     26  C   UNL     1       4.358   4.613  17.021  0.00  0.00    +0.000 A 
ATOM     27  C   UNL     1       5.664   4.305  16.626  0.00  0.00    +0.000 A 
ATOM     28  C   UNL     1       6.627   5.307  16.559  0.00  0.00    +0.000 A 
ATOM     29  C   UNL     1       6.294   6.611  16.915  0.00  0.00    +0.000 A 
ATOM     30  C   UNL     1       4.991   6.919  17.317  0.00  0.00    +0.000 A 
ENDBRANCH  24  25
ENDBRANCH   8  24
TORSDOF 6
ENDMDL
MODEL 4
REMARK VINA RESULT:      -7.5      2.923      8.354
REMARK  Name = 
REMARK  8 active torsions:
REMARK  status: ('A' for Active; 'I' for Inactive)
REMARK    1  A    between atoms: C_1  and  O_2
REMARK    2  A    between atoms: O_2  and  C_3
REMARK    3  A    between atoms: C_6  and  N_7
REMARK    4  A    between atoms: N_7  and  C_8
REMARK    5  A    between atoms: N_15  and  C_16
REMARK    6  A    between atoms: C_16  and  C_17
REMARK    7  A    between atoms: C_25  and  O_26
REMARK    8  A    between atoms: O_26  and  C_27
REMARK                            x       y       z     vdW  Elec       q    Type
REMARK                         _______ _______ _______ _____ _____    ______ ____
ROOT
ATOM      1  C   UNL     1       1.229   8.573  21.206  0.00  0.00    +0.000 C 
ATOM      2  C   UNL     1       0.193   9.421  21.352  0.00  0.00    +0.000 C 
ATOM      3  C   UNL     1      -0.080   9.903  22.714  0.00  0.00    +0.000 C 
ATOM      4  O   UNL     1       0.274   9.326  23.738  0.00  0.00    +0.000 OA
ATOM      5  N   UNL     1      -0.678  11.127  22.752  0.00  0.00    +0.000 N 
ATOM      6  C   UNL     1      -1.034  11.926  21.694  0.00  0.00    +0.000 C 
ATOM      7  S   UNL     1      -1.532  13.475  22.103  0.00  0.00    +0.000 S 
ATOM      8  N   UNL     1      -0.930  11.369  20.422  0.00  0.00    +0.000 N 
ATOM      9  C   UNL     1      -0.430  10.083  20.189  0.00  0.00    +0.000 C 
ATOM     10  O   UNL     1      -0.413   9.536  19.082  0.00  0.00    +0.000 OA
ATOM     11  H   UNL     1      -0.760  11.530  23.678  0.00  0.00    +0.000 HD
ENDROOT
BRANCH   1  12
ATOM     12  N   UNL     1       1.887   8.152  20.061  0.00  0.00    +0.000 N 
ATOM     13  H   UNL     1       2.817   8.588  19.979  0.00  0.00    +0.000 HD
BRANCH  12  17
ATOM     14  C   UNL     1       2.621   3.986  19.565  0.00  0.00    +0.000 A 
ATOM     15  C   UNL     1       1.856   4.444  20.631  0.00  0.00    +0.000 A 
ATOM     16  C   UNL     1       1.606   5.806  20.784  0.00  0.00    +0.000 A 
ATOM     17  C   UNL     1       2.101   6.745  19.861  0.00  0.00    +0.000 A 
ATOM     18  C   UNL     1       2.908   6.283  18.805  0.00  0.00    +0.000 A 
ATOM     19  C   UNL     1       3.157   4.907  18.662  0.00  0.00    +0.000 A 
BRANCH  14  21
ATOM     20  C   UNL     1       2.953   2.044  18.239  0.00  0.00    +0.000 C 
ATOM     21  O   UNL     1       2.782   2.630  19.524  0.00  0.00    +0.000 OA
ENDBRANCH  14  21
BRANCH  18  22
ATOM     22  O   UNL     1       3.439   7.232  17.964  0.00  0.00    +0.000 OA
ATOM     23  C   UNL     1       4.522   6.791  17.150  0.00  0.00    +0.000 C 
ENDBRANCH  18  22
ENDBRANCH  12  17
ENDBRANCH   1  12
BRANCH   8  24
ATOM     24  C   UNL     1      -1.187  12.164  19.207  0.00  0.00    +0.000 C 
BRANCH  24  25
ATOM     25  C   UNL     1      -2.519  11.939  18.519  0.00  0.00    +0.000 A 
ATOM     26  C   UNL     1      -2.580  11.439  17.209  0.00  0.00    +0.000 A 
ATOM     27  C   UNL     1      -3.802  11.071  16.638  0.00  0.00    +0.000 A 
ATOM     28  C   UNL     1      -4.980  11.200  17.367  0.00  0.00    +0.000 A 
ATOM     29  C   UNL     1      -4.941  11.725  18.656  0.00  0.00    +0.000 A 
ATOM     30  C   UNL     1      -3.721  12.101  19.225  0.00  0.00    +0.000 A 
ENDBRANCH  24  25
ENDBRANCH   8  24
TORSDOF 6
ENDMDL
MODEL 5
REMARK VINA RESULT:      -7.5      2.707      8.685
REMARK  Name = 
REMARK  8 active torsions:
REMARK  status: ('A' for Active; 'I' for Inactive)
REMARK    1  A    between atoms: C_1  and  O_2
REMARK    2  A    between atoms: O_2  and  C_3
REMARK    3  A    between atoms: C_6  and  N_7
REMARK    4  A    between atoms: N_7  and  C_8
REMARK    5  A    between atoms: N_15  and  C_16
REMARK    6  A    between atoms: C_16  and  C_17
REMARK    7  A    between atoms: C_25  and  O_26
REMARK    8  A    between atoms: O_26  and  C_27
REMARK                            x       y       z     vdW  Elec       q    Type
REMARK                         _______ _______ _______ _____ _____    ______ ____
ROOT
ATOM      1  C   UNL     1       4.083   6.338  18.359  0.00  0.00    +0.000 C 
ATOM      2  C   UNL     1       2.913   6.771  18.865  0.00  0.00    +0.000 C 
ATOM      3  C   UNL     1       2.439   6.114  20.092  0.00  0.00    +0.000 C 
ATOM      4  O   UNL     1       2.787   4.995  20.458  0.00  0.00    +0.000 OA
ATOM      5  N   UNL     1       1.647   6.906  20.867  0.00  0.00    +0.000 N 
ATOM      6  C   UNL     1       1.264   8.204  20.633  0.00  0.00    +0.000 C 
ATOM      7  S   UNL     1       0.482   8.961  21.910  0.00  0.00    +0.000 S 
ATOM      8  N   UNL     1       1.576   8.737  19.384  0.00  0.00    +0.000 N 
ATOM      9  C   UNL     1       2.301   8.036  18.414  0.00  0.00    +0.000 C 
ATOM     10  O   UNL     1       2.510   8.452  17.270  0.00  0.00    +0.000 OA
ATOM     11  H   UNL     1       1.414   6.518  21.773  0.00  0.00    +0.000 HD
ENDROOT
BRANCH   1  12
ATOM     12  N   UNL     1       4.906   6.900  17.395  0.00  0.00    +0.000 N 
ATOM     13  H   UNL     1       5.709   7.385  17.821  0.00  0.00    +0.000 HD
BRANCH  12  17
ATOM     14  C   UNL     1       6.510   4.276  14.449  0.00  0.00    +0.000 A 
ATOM     15  C   UNL     1       5.149   4.557  14.475  0.00  0.00    +0.000 A 
ATOM     16  C   UNL     1       4.627   5.426  15.431  0.00  0.00    +0.000 A 
ATOM     17  C   UNL     1       5.461   6.052  16.376  0.00  0.00    +0.000 A 
ATOM     18  C   UNL     1       6.832   5.735  16.373  0.00  0.00    +0.000 A 
ATOM     19  C   UNL     1       7.346   4.855  15.405  0.00  0.00    +0.000 A 
BRANCH  14  21
ATOM     20  C   UNL     1       6.111   3.425  12.268  0.00  0.00    +0.000 C 
ATOM     21  O   UNL     1       6.892   3.419  13.456  0.00  0.00    +0.000 OA
ENDBRANCH  14  21
BRANCH  18  22
ATOM     22  O   UNL     1       7.607   6.305  17.356  0.00  0.00    +0.000 OA
ATOM     23  C   UNL     1       7.749   5.535  18.545  0.00  0.00    +0.000 C 
ENDBRANCH  18  22
ENDBRANCH  12  17
ENDBRANCH   1  12
BRANCH   8  24
ATOM     24  C   UNL     1       1.306  10.149  19.057  0.00  0.00    +0.000 C 
BRANCH  24  25
ATOM     25  C   UNL     1      -0.134  10.509  18.747  0.00  0.00    +0.000 A 
ATOM     26  C   UNL     1      -0.765  11.583  19.392  0.00  0.00    +0.000 A 
ATOM     27  C   UNL     1      -2.029  12.022  18.985  0.00  0.00    +0.000 A 
ATOM     28  C   UNL     1      -2.680  11.391  17.929  0.00  0.00    +0.000 A 
ATOM     29  C   UNL     1      -2.082  10.303  17.299  0.00  0.00    +0.000 A 
ATOM     30  C   UNL     1      -0.822   9.859  17.710  0.00  0.00    +0.000 A 
ENDBRANCH  24  25
ENDBRANCH   8  24
TORSDOF 6
ENDMDL
MODEL 6
REMARK VINA RESULT:      -7.5      3.486      7.684
REMARK  Name = 
REMARK  8 active torsions:
REMARK  status: ('A' for Active; 'I' for Inactive)
REMARK    1  A    between atoms: C_1  and  O_2
REMARK    2  A    between atoms: O_2  and  C_3
REMARK    3  A    between atoms: C_6  and  N_7
REMARK    4  A    between atoms: N_7  and  C_8
REMARK    5  A    between atoms: N_15  and  C_16
REMARK    6  A    between atoms: C_16  and  C_17
REMARK    7  A    between atoms: C_25  and  O_26
REMARK    8  A    between atoms: O_26  and  C_27
REMARK                            x       y       z     vdW  Elec       q    Type
REMARK                         _______ _______ _______ _____ _____    ______ ____
ROOT
ATOM      1  C   UNL     1       1.283   8.541  21.422  0.00  0.00    +0.000 C 
ATOM      2  C   UNL     1       0.302   9.462  21.448  0.00  0.00    +0.000 C 
ATOM      3  C   UNL     1      -0.138   9.923  22.774  0.00  0.00    +0.000 C 
ATOM      4  O   UNL     1       0.016   9.290  23.814  0.00  0.00    +0.000 OA
ATOM      5  N   UNL     1      -0.644  11.188  22.774  0.00  0.00    +0.000 N 
ATOM      6  C   UNL     1      -0.778  12.044  21.708  0.00  0.00    +0.000 C 
ATOM      7  S   UNL     1      -1.218  13.614  22.103  0.00  0.00    +0.000 S 
ATOM      8  N   UNL     1      -0.525  11.519  20.443  0.00  0.00    +0.000 N 
ATOM      9  C   UNL     1      -0.090  10.205  20.234  0.00  0.00    +0.000 C 
ATOM     10  O   UNL     1       0.054   9.691  19.120  0.00  0.00    +0.000 OA
ATOM     11  H   UNL     1      -0.835  11.569  23.693  0.00  0.00    +0.000 HD
ENDROOT
BRANCH   1  12
ATOM     12  N   UNL     1       2.074   8.104  20.371  0.00  0.00    +0.000 N 
ATOM     13  H   UNL     1       3.073   8.270  20.557  0.00  0.00    +0.000 HD
BRANCH  12  17
ATOM     14  C   UNL     1       1.910   4.008  19.214  0.00  0.00    +0.000 A 
ATOM     15  C   UNL     1       1.443   4.407  20.461  0.00  0.00    +0.000 A 
ATOM     16  C   UNL     1       1.485   5.749  20.833  0.00  0.00    +0.000 A 
ATOM     17  C   UNL     1       1.980   6.731  19.956  0.00  0.00    +0.000 A 
ATOM     18  C   UNL     1       2.489   6.320  18.710  0.00  0.00    +0.000 A 
ATOM     19  C   UNL     1       2.445   4.963  18.347  0.00  0.00    +0.000 A 
BRANCH  14  21
ATOM     20  C   UNL     1       2.504   2.165  17.841  0.00  0.00    +0.000 C 
ATOM     21  O   UNL     1       1.802   2.668  18.971  0.00  0.00    +0.000 OA
ENDBRANCH  14  21
BRANCH  18  22
ATOM     22  O   UNL     1       3.035   7.294  17.907  0.00  0.00    +0.000 OA
ATOM     23  C   UNL     1       4.295   6.972  17.326  0.00  0.00    +0.000 C 
ENDBRANCH  18  22
ENDBRANCH  12  17
ENDBRANCH   1  12
BRANCH   8  24
ATOM     24  C   UNL     1      -0.537  12.368  19.238  0.00  0.00    +0.000 C 
BRANCH  24  25
ATOM     25  C   UNL     1       0.691  13.225  19.000  0.00  0.00    +0.000 A 
ATOM     26  C   UNL     1       1.908  12.649  18.607  0.00  0.00    +0.000 A 
ATOM     27  C   UNL     1       2.989  13.449  18.223  0.00  0.00    +0.000 A 
ATOM     28  C   UNL     1       2.869  14.835  18.229  0.00  0.00    +0.000 A 
ATOM     29  C   UNL     1       1.678  15.423  18.648  0.00  0.00    +0.000 A 
ATOM     30  C   UNL     1       0.600  14.625  19.039  0.00  0.00    +0.000 A 
ENDBRANCH  24  25
ENDBRANCH   8  24
TORSDOF 6
ENDMDL
MODEL 7
REMARK VINA RESULT:      -7.4      2.568      8.488
REMARK  Name = 
REMARK  8 active torsions:
REMARK  status: ('A' for Active; 'I' for Inactive)
REMARK    1  A    between atoms: C_1  and  O_2
REMARK    2  A    between atoms: O_2  and  C_3
REMARK    3  A    between atoms: C_6  and  N_7
REMARK    4  A    between atoms: N_7  and  C_8
REMARK    5  A    between atoms: N_15  and  C_16
REMARK    6  A    between atoms: C_16  and  C_17
REMARK    7  A    between atoms: C_25  and  O_26
REMARK    8  A    between atoms: O_26  and  C_27
REMARK                            x       y       z     vdW  Elec       q    Type
REMARK                         _______ _______ _______ _____ _____    ______ ____
ROOT
ATOM      1  C   UNL     1       3.662   6.364  18.878  0.00  0.00    +0.000 C 
ATOM      2  C   UNL     1       2.499   6.874  19.324  0.00  0.00    +0.000 C 
ATOM      3  C   UNL     1       1.934   6.270  20.540  0.00  0.00    +0.000 C 
ATOM      4  O   UNL     1       2.200   5.139  20.940  0.00  0.00    +0.000 OA
ATOM      5  N   UNL     1       1.157   7.122  21.265  0.00  0.00    +0.000 N 
ATOM      6  C   UNL     1       0.861   8.435  20.992  0.00  0.00    +0.000 C 
ATOM      7  S   UNL     1       0.071   9.260  22.220  0.00  0.00    +0.000 S 
ATOM      8  N   UNL     1       1.258   8.924  19.750  0.00  0.00    +0.000 N 
ATOM      9  C   UNL     1       1.981   8.163  18.824  0.00  0.00    +0.000 C 
ATOM     10  O   UNL     1       2.264   8.544  17.684  0.00  0.00    +0.000 OA
ATOM     11  H   UNL     1       0.863   6.765  22.167  0.00  0.00    +0.000 HD
ENDROOT
BRANCH   1  12
ATOM     12  N   UNL     1       4.556   6.858  17.941  0.00  0.00    +0.000 N 
ATOM     13  H   UNL     1       5.400   7.242  18.392  0.00  0.00    +0.000 HD
BRANCH  12  17
ATOM     14  C   UNL     1       6.021   4.174  14.977  0.00  0.00    +0.000 A 
ATOM     15  C   UNL     1       4.810   3.927  15.614  0.00  0.00    +0.000 A 
ATOM     16  C   UNL     1       4.327   4.813  16.574  0.00  0.00    +0.000 A 
ATOM     17  C   UNL     1       5.035   5.981  16.908  0.00  0.00    +0.000 A 
ATOM     18  C   UNL     1       6.279   6.209  16.290  0.00  0.00    +0.000 A 
ATOM     19  C   UNL     1       6.759   5.307  15.325  0.00  0.00    +0.000 A 
BRANCH  14  21
ATOM     20  C   UNL     1       6.328   3.632  12.685  0.00  0.00    +0.000 C 
ATOM     21  O   UNL     1       6.376   3.235  14.050  0.00  0.00    +0.000 OA
ENDBRANCH  14  21
BRANCH  18  22
ATOM     22  O   UNL     1       6.981   7.321  16.693  0.00  0.00    +0.000 OA
ATOM     23  C   UNL     1       7.726   7.170  17.898  0.00  0.00    +0.000 C 
ENDBRANCH  18  22
ENDBRANCH  12  17
ENDBRANCH   1  12
BRANCH   8  24
ATOM     24  C   UNL     1       1.086  10.342  19.387  0.00  0.00    +0.000 C 
BRANCH  24  25
ATOM     25  C   UNL     1      -0.292  10.757  18.909  0.00  0.00    +0.000 A 
ATOM     26  C   UNL     1      -0.942  10.054  17.884  0.00  0.00    +0.000 A 
ATOM     27  C   UNL     1      -2.276  10.327  17.560  0.00  0.00    +0.000 A 
ATOM     28  C   UNL     1      -2.976  11.308  18.257  0.00  0.00    +0.000 A 
ATOM     29  C   UNL     1      -2.336  12.037  19.255  0.00  0.00    +0.000 A 
ATOM     30  C   UNL     1      -1.001  11.770  19.573  0.00  0.00    +0.000 A 
ENDBRANCH  24  25
ENDBRANCH   8  24
TORSDOF 6
ENDMDL
MODEL 8
REMARK VINA RESULT:      -7.3      2.697      8.582
REMARK  Name = 
REMARK  8 active torsions:
REMARK  status: ('A' for Active; 'I' for Inactive)
REMARK    1  A    between atoms: C_1  and  O_2
REMARK    2  A    between atoms: O_2  and  C_3
REMARK    3  A    between atoms: C_6  and  N_7
REMARK    4  A    between atoms: N_7  and  C_8
REMARK    5  A    between atoms: N_15  and  C_16
REMARK    6  A    between atoms: C_16  and  C_17
REMARK    7  A    between atoms: C_25  and  O_26
REMARK    8  A    between atoms: O_26  and  C_27
REMARK                            x       y       z     vdW  Elec       q    Type
REMARK                         _______ _______ _______ _____ _____    ______ ____
ROOT
ATOM      1  C   UNL     1       4.031   6.321  18.683  0.00  0.00    +0.000 C 
ATOM      2  C   UNL     1       2.832   6.791  19.074  0.00  0.00    +0.000 C 
ATOM      3  C   UNL     1       2.225   6.156  20.254  0.00  0.00    +0.000 C 
ATOM      4  O   UNL     1       2.504   5.030  20.655  0.00  0.00    +0.000 OA
ATOM      5  N   UNL     1       1.387   6.976  20.947  0.00  0.00    +0.000 N 
ATOM      6  C   UNL     1       1.065   8.283  20.673  0.00  0.00    +0.000 C 
ATOM      7  S   UNL     1       0.189   9.070  21.867  0.00  0.00    +0.000 S 
ATOM      8  N   UNL     1       1.509   8.798  19.457  0.00  0.00    +0.000 N 
ATOM      9  C   UNL     1       2.302   8.070  18.562  0.00  0.00    +0.000 C 
ATOM     10  O   UNL     1       2.631   8.472  17.442  0.00  0.00    +0.000 OA
ATOM     11  H   UNL     1       1.058   6.600  21.828  0.00  0.00    +0.000 HD
ENDROOT
BRANCH   1  12
ATOM     12  N   UNL     1       4.957   6.853  17.799  0.00  0.00    +0.000 N 
ATOM     13  H   UNL     1       5.776   7.233  18.295  0.00  0.00    +0.000 HD
BRANCH  12  17
ATOM     14  C   UNL     1       6.415   4.286  14.729  0.00  0.00    +0.000 A 
ATOM     15  C   UNL     1       5.522   5.308  14.428  0.00  0.00    +0.000 A 
ATOM     16  C   UNL     1       5.056   6.155  15.431  0.00  0.00    +0.000 A 
ATOM     17  C   UNL     1       5.488   6.012  16.762  0.00  0.00    +0.000 A 
ATOM     18  C   UNL     1       6.361   4.952  17.071  0.00  0.00    +0.000 A 
ATOM     19  C   UNL     1       6.822   4.102  16.052  0.00  0.00    +0.000 A 
BRANCH  14  21
ATOM     20  C   UNL     1       5.903   3.484  12.553  0.00  0.00    +0.000 C 
ATOM     21  O   UNL     1       6.801   3.535  13.654  0.00  0.00    +0.000 OA
ENDBRANCH  14  21
BRANCH  18  22
ATOM     22  O   UNL     1       6.706   4.793  18.393  0.00  0.00    +0.000 OA
ATOM     23  C   UNL     1       7.831   5.550  18.828  0.00  0.00    +0.000 C 
ENDBRANCH  18  22
ENDBRANCH  12  17
ENDBRANCH   1  12
BRANCH   8  24
ATOM     24  C   UNL     1       1.313  10.215  19.101  0.00  0.00    +0.000 C 
BRANCH  24  25
ATOM     25  C   UNL     1      -0.053  10.596  18.566  0.00  0.00    +0.000 A 
ATOM     26  C   UNL     1      -0.770   9.727  17.730  0.00  0.00    +0.000 A 
ATOM     27  C   UNL     1      -2.096  10.001  17.377  0.00  0.00    +0.000 A 
ATOM     28  C   UNL     1      -2.722  11.149  17.854  0.00  0.00    +0.000 A 
ATOM     29  C   UNL     1      -2.014  12.038  18.657  0.00  0.00    +0.000 A 
ATOM     30  C   UNL     1      -0.688  11.770  19.004  0.00  0.00    +0.000 A 
ENDBRANCH  24  25
ENDBRANCH   8  24
TORSDOF 6
ENDMDL
MODEL 9
REMARK VINA RESULT:      -7.3      3.470      7.940
REMARK  Name = 
REMARK  8 active torsions:
REMARK  status: ('A' for Active; 'I' for Inactive)
REMARK    1  A    between atoms: C_1  and  O_2
REMARK    2  A    between atoms: O_2  and  C_3
REMARK    3  A    between atoms: C_6  and  N_7
REMARK    4  A    between atoms: N_7  and  C_8
REMARK    5  A    between atoms: N_15  and  C_16
REMARK    6  A    between atoms: C_16  and  C_17
REMARK    7  A    between atoms: C_25  and  O_26
REMARK    8  A    between atoms: O_26  and  C_27
REMARK                            x       y       z     vdW  Elec       q    Type
REMARK                         _______ _______ _______ _____ _____    ______ ____
ROOT
ATOM      1  C   UNL     1       1.159   8.580  21.017  0.00  0.00    +0.000 C 
ATOM      2  C   UNL     1       0.211   9.527  21.142  0.00  0.00    +0.000 C 
ATOM      3  C   UNL     1      -0.108   9.969  22.508  0.00  0.00    +0.000 C 
ATOM      4  O   UNL     1       0.109   9.307  23.519  0.00  0.00    +0.000 OA
ATOM      5  N   UNL     1      -0.575  11.247  22.575  0.00  0.00    +0.000 N 
ATOM      6  C   UNL     1      -0.768  12.132  21.543  0.00  0.00    +0.000 C 
ATOM      7  S   UNL     1      -1.127  13.704  22.005  0.00  0.00    +0.000 S 
ATOM      8  N   UNL     1      -0.631  11.630  20.251  0.00  0.00    +0.000 N 
ATOM      9  C   UNL     1      -0.253  10.310  19.979  0.00  0.00    +0.000 C 
ATOM     10  O   UNL     1      -0.215   9.819  18.847  0.00  0.00    +0.000 OA
ATOM     11  H   UNL     1      -0.680  11.612  23.515  0.00  0.00    +0.000 HD
ENDROOT
BRANCH   1  12
ATOM     12  N   UNL     1       1.850   8.147  19.896  0.00  0.00    +0.000 N 
ATOM     13  H   UNL     1       2.752   8.635  19.798  0.00  0.00    +0.000 HD
BRANCH  12  17
ATOM     14  C   UNL     1       2.839   4.015  19.601  0.00  0.00    +0.000 A 
ATOM     15  C   UNL     1       2.039   4.475  20.641  0.00  0.00    +0.000 A 
ATOM     16  C   UNL     1       1.705   5.824  20.728  0.00  0.00    +0.000 A 
ATOM     17  C   UNL     1       2.150   6.747  19.765  0.00  0.00    +0.000 A 
ATOM     18  C   UNL     1       2.993   6.286  18.736  0.00  0.00    +0.000 A 
ATOM     19  C   UNL     1       3.326   4.923  18.659  0.00  0.00    +0.000 A 
BRANCH  14  21
ATOM     20  C   UNL     1       3.184   2.016  18.367  0.00  0.00    +0.000 C 
ATOM     21  O   UNL     1       3.082   2.670  19.625  0.00  0.00    +0.000 OA
ENDBRANCH  14  21
BRANCH  18  22
ATOM     22  O   UNL     1       3.473   7.226  17.854  0.00  0.00    +0.000 OA
ATOM     23  C   UNL     1       4.604   6.824  17.088  0.00  0.00    +0.000 C 
ENDBRANCH  18  22
ENDBRANCH  12  17
ENDBRANCH   1  12
BRANCH   8  24
ATOM     24  C   UNL     1      -0.714  12.507  19.069  0.00  0.00    +0.000 C 
BRANCH  24  25
ATOM     25  C   UNL     1       0.514  13.338  18.755  0.00  0.00    +0.000 A 
ATOM     26  C   UNL     1       0.485  14.737  18.857  0.00  0.00    +0.000 A 
ATOM     27  C   UNL     1       1.657  15.490  18.735  0.00  0.00    +0.000 A 
ATOM     28  C   UNL     1       2.874  14.855  18.506  0.00  0.00    +0.000 A 
ATOM     29  C   UNL     1       2.915  13.470  18.369  0.00  0.00    +0.000 A 
ATOM     30  C   UNL     1       1.743  12.718  18.483  0.00  0.00    +0.000 A 
ENDBRANCH  24  25
ENDBRANCH   8  24
TORSDOF 6
ENDMDL
