MODEL 1
REMARK VINA RESULT:      -8.0      0.000      0.000
REMARK  Name = 
REMARK  9 active torsions:
REMARK  status: ('A' for Active; 'I' for Inactive)
REMARK    1  A    between atoms: C_1  and  O_2
REMARK    2  A    between atoms: O_2  and  C_3
REMARK    3  A    between atoms: C_6  and  C_7
REMARK    4  A    between atoms: C_15  and  N_16
REMARK    5  A    between atoms: N_16  and  C_17
REMARK    6  A    between atoms: N_20  and  C_21
REMARK    7  A    between atoms: C_27  and  C_28
REMARK    8  A    between atoms: C_28  and  C_29
REMARK    9  A    between atoms: C_28  and  O_30
REMARK                            x       y       z     vdW  Elec       q    Type
REMARK                         _______ _______ _______ _____ _____    ______ ____
ROOT
ATOM      1  C   UNL     1      -5.380  12.515  19.916  0.00  0.00    +0.000 A 
ATOM      2  C   UNL     1      -6.611  11.995  20.297  0.00  0.00    +0.000 A 
ATOM      3  C   UNL     1      -7.026  12.107  21.634  0.00  0.00    +0.000 A 
ATOM      4  C   UNL     1      -6.237  12.799  22.565  0.00  0.00    +0.000 A 
ATOM      5  C   UNL     1      -5.199  13.627  22.136  0.00  0.00    +0.000 A 
ATOM      6  C   UNL     1      -4.715  13.318  20.863  0.00  0.00    +0.000 A 
ATOM      7  C   UNL     1      -4.453  14.407  23.235  0.00  0.00    +0.000 C 
ATOM      8  C   UNL     1      -3.348  15.448  23.046  0.00  0.00    +0.000 C 
ATOM      9  C   UNL     1      -2.544  15.102  21.737  0.00  0.00    +0.000 C 
ATOM     10  C   UNL     1      -1.892  13.800  22.527  0.00  0.00    +0.000 C 
ATOM     11  C   UNL     1      -2.808  12.765  23.319  0.00  0.00    +0.000 C 
ATOM     12  O   UNL     1      -2.562  11.565  23.397  0.00  0.00    +0.000 OA
ATOM     13  N   UNL     1      -3.883  13.354  23.996  0.00  0.00    +0.000 N 
ATOM     14  C   UNL     1      -4.897  12.629  24.776  0.00  0.00    +0.000 C 
ATOM     15  C   UNL     1      -6.286  12.477  24.050  0.00  0.00    +0.000 C 
ENDROOT
BRANCH   1  19
ATOM     16  C   UNL     1      -3.280  10.732  16.647  0.00  0.00    +0.000 A 
ATOM     17  C   UNL     1      -2.582  11.156  17.772  0.00  0.00    +0.000 A 
ATOM     18  C   UNL     1      -3.238  11.875  18.771  0.00  0.00    +0.000 A 
ATOM     19  C   UNL     1      -4.617  12.161  18.694  0.00  0.00    +0.000 A 
ATOM     20  C   UNL     1      -5.273  11.830  17.499  0.00  0.00    +0.000 A 
ATOM     21  C   UNL     1      -4.608  11.122  16.484  0.00  0.00    +0.000 A 
BRANCH  16  23
ATOM     22  C   UNL     1      -2.942  10.089  14.404  0.00  0.00    +0.000 C 
ATOM     23  O   UNL     1      -2.567   9.962  15.771  0.00  0.00    +0.000 OA
ENDBRANCH  16  23
ENDBRANCH   1  19
BRANCH   9  24
ATOM     24  N   UNL     1      -3.155  16.322  21.057  0.00  0.00    +0.000 N 
ATOM     25  C   UNL     1      -4.267  17.082  21.681  0.00  0.00    +0.000 C 
ATOM     26  C   UNL     1      -2.437  17.160  20.132  0.00  0.00    +0.000 C 
ATOM     27  O   UNL     1      -2.677  18.361  20.005  0.00  0.00    +0.000 OA
ATOM     28  N   UNL     1      -1.480  16.490  19.419  0.00  0.00    +0.000 N 
ATOM     29  H   UNL     1      -1.705  15.533  19.230  0.00  0.00    +0.000 HD
BRANCH  28  30
ATOM     30  C   UNL     1      -0.508  17.036  18.565  0.00  0.00    +0.000 A 
ATOM     31  C   UNL     1      -0.787  17.861  17.476  0.00  0.00    +0.000 A 
ATOM     32  C   UNL     1       0.248  18.316  16.659  0.00  0.00    +0.000 A 
ATOM     33  C   UNL     1       1.572  17.957  16.944  0.00  0.00    +0.000 A 
ATOM     34  C   UNL     1       1.852  17.164  18.049  0.00  0.00    +0.000 A 
ATOM     35  C   UNL     1       0.817  16.713  18.867  0.00  0.00    +0.000 A 
ENDBRANCH  28  30
ENDBRANCH   9  24
BRANCH  10  36
ATOM     36  C   UNL     1      -0.744  13.025  21.791  0.00  0.00    +0.000 C 
ATOM     37  C   UNL     1       0.265  13.801  20.964  0.00  0.00    +0.000 C 
BRANCH  36  38
ATOM     38  O   UNL     1      -0.021  12.236  22.755  0.00  0.00    +0.000 OA
ATOM     39  H   UNL     1      -0.088  11.300  22.514  0.00  0.00    +0.000 HD
ENDBRANCH  36  38
ENDBRANCH  10  36
TORSDOF 6
ENDMDL
MODEL 2
REMARK VINA RESULT:      -7.9      2.289      7.297
REMARK  Name = 
REMARK  9 active torsions:
REMARK  status: ('A' for Active; 'I' for Inactive)
REMARK    1  A    between atoms: C_1  and  O_2
REMARK    2  A    between atoms: O_2  and  C_3
REMARK    3  A    between atoms: C_6  and  C_7
REMARK    4  A    between atoms: C_15  and  N_16
REMARK    5  A    between atoms: N_16  and  C_17
REMARK    6  A    between atoms: N_20  and  C_21
REMARK    7  A    between atoms: C_27  and  C_28
REMARK    8  A    between atoms: C_28  and  C_29
REMARK    9  A    between atoms: C_28  and  O_30
REMARK                            x       y       z     vdW  Elec       q    Type
REMARK                         _______ _______ _______ _____ _____    ______ ____
ROOT
ATOM      1  C   UNL     1      -1.944  15.981  20.222  0.00  0.00    +0.000 A 
ATOM      2  C   UNL     1      -1.392  17.144  19.697  0.00  0.00    +0.000 A 
ATOM      3  C   UNL     1      -0.168  17.081  19.012  0.00  0.00    +0.000 A 
ATOM      4  C   UNL     1       0.461  15.845  18.797  0.00  0.00    +0.000 A 
ATOM      5  C   UNL     1      -0.239  14.653  18.987  0.00  0.00    +0.000 A 
ATOM      6  C   UNL     1      -1.336  14.769  19.843  0.00  0.00    +0.000 A 
ATOM      7  C   UNL     1       0.518  13.357  18.639  0.00  0.00    +0.000 C 
ATOM      8  C   UNL     1      -0.028  11.929  18.662  0.00  0.00    +0.000 C 
ATOM      9  C   UNL     1      -1.151  11.833  19.760  0.00  0.00    +0.000 C 
ATOM     10  C   UNL     1       0.026  11.948  20.920  0.00  0.00    +0.000 C 
ATOM     11  C   UNL     1       1.136  13.091  20.866  0.00  0.00    +0.000 C 
ATOM     12  O   UNL     1       1.615  13.616  21.866  0.00  0.00    +0.000 OA
ATOM     13  N   UNL     1       1.585  13.390  19.574  0.00  0.00    +0.000 N 
ATOM     14  C   UNL     1       2.579  14.420  19.238  0.00  0.00    +0.000 C 
ATOM     15  C   UNL     1       1.967  15.734  18.623  0.00  0.00    +0.000 C 
ENDROOT
BRANCH   1  19
ATOM     16  C   UNL     1      -4.569  16.406  23.570  0.00  0.00    +0.000 A 
ATOM     17  C   UNL     1      -3.455  15.579  23.661  0.00  0.00    +0.000 A 
ATOM     18  C   UNL     1      -2.685  15.317  22.528  0.00  0.00    +0.000 A 
ATOM     19  C   UNL     1      -2.982  15.901  21.279  0.00  0.00    +0.000 A 
ATOM     20  C   UNL     1      -4.175  16.633  21.183  0.00  0.00    +0.000 A 
ATOM     21  C   UNL     1      -4.961  16.882  22.320  0.00  0.00    +0.000 A 
BRANCH  16  23
ATOM     22  C   UNL     1      -4.991  17.973  25.281  0.00  0.00    +0.000 C 
ATOM     23  O   UNL     1      -5.203  16.668  24.752  0.00  0.00    +0.000 OA
ENDBRANCH  16  23
ENDBRANCH   1  19
BRANCH   9  24
ATOM     24  N   UNL     1      -2.199  11.710  18.659  0.00  0.00    +0.000 N 
ATOM     25  C   UNL     1      -1.994  10.818  17.490  0.00  0.00    +0.000 C 
ATOM     26  C   UNL     1      -3.604  11.942  18.869  0.00  0.00    +0.000 C 
ATOM     27  O   UNL     1      -4.474  11.362  18.218  0.00  0.00    +0.000 OA
ATOM     28  N   UNL     1      -3.865  12.862  19.848  0.00  0.00    +0.000 N 
ATOM     29  H   UNL     1      -3.174  13.582  19.928  0.00  0.00    +0.000 HD
BRANCH  28  30
ATOM     30  C   UNL     1      -5.112  13.192  20.403  0.00  0.00    +0.000 A 
ATOM     31  C   UNL     1      -6.127  13.865  19.723  0.00  0.00    +0.000 A 
ATOM     32  C   UNL     1      -7.314  14.189  20.380  0.00  0.00    +0.000 A 
ATOM     33  C   UNL     1      -7.494  13.821  21.719  0.00  0.00    +0.000 A 
ATOM     34  C   UNL     1      -6.497  13.120  22.385  0.00  0.00    +0.000 A 
ATOM     35  C   UNL     1      -5.312  12.795  21.727  0.00  0.00    +0.000 A 
ENDBRANCH  28  30
ENDBRANCH   9  24
BRANCH  10  36
ATOM     36  C   UNL     1      -0.416  11.720  22.407  0.00  0.00    +0.000 C 
ATOM     37  C   UNL     1      -1.896  11.697  22.747  0.00  0.00    +0.000 C 
BRANCH  36  38
ATOM     38  O   UNL     1       0.173  10.497  22.887  0.00  0.00    +0.000 OA
ATOM     39  H   UNL     1       1.049  10.388  22.490  0.00  0.00    +0.000 HD
ENDBRANCH  36  38
ENDBRANCH  10  36
TORSDOF 6
ENDMDL
MODEL 3
REMARK VINA RESULT:      -7.8      2.415      3.788
REMARK  Name = 
REMARK  9 active torsions:
REMARK  status: ('A' for Active; 'I' for Inactive)
REMARK    1  A    between atoms: C_1  and  O_2
REMARK    2  A    between atoms: O_2  and  C_3
REMARK    3  A    between atoms: C_6  and  C_7
REMARK    4  A    between atoms: C_15  and  N_16
REMARK    5  A    between atoms: N_16  and  C_17
REMARK    6  A    between atoms: N_20  and  C_21
REMARK    7  A    between atoms: C_27  and  C_28
REMARK    8  A    between atoms: C_28  and  C_29
REMARK    9  A    between atoms: C_28  and  O_30
REMARK                            x       y       z     vdW  Elec       q    Type
REMARK                         _______ _______ _______ _____ _____    ______ ____
ROOT
ATOM      1  C   UNL     1      -3.175  12.059  19.361  0.00  0.00    +0.000 A 
ATOM      2  C   UNL     1      -4.021  11.385  18.489  0.00  0.00    +0.000 A 
ATOM      3  C   UNL     1      -5.397  11.665  18.505  0.00  0.00    +0.000 A 
ATOM      4  C   UNL     1      -5.906  12.667  19.345  0.00  0.00    +0.000 A 
ATOM      5  C   UNL     1      -5.049  13.589  19.947  0.00  0.00    +0.000 A 
ATOM      6  C   UNL     1      -3.730  13.145  20.065  0.00  0.00    +0.000 A 
ATOM      7  C   UNL     1      -5.720  14.698  20.779  0.00  0.00    +0.000 C 
ATOM      8  C   UNL     1      -5.038  15.883  21.466  0.00  0.00    +0.000 C 
ATOM      9  C   UNL     1      -3.577  15.462  21.873  0.00  0.00    +0.000 C 
ATOM     10  C   UNL     1      -4.225  14.492  23.050  0.00  0.00    +0.000 C 
ATOM     11  C   UNL     1      -5.400  13.465  22.726  0.00  0.00    +0.000 C 
ATOM     12  O   UNL     1      -5.519  12.377  23.281  0.00  0.00    +0.000 OA
ATOM     13  N   UNL     1      -6.342  13.946  21.809  0.00  0.00    +0.000 N 
ATOM     14  C   UNL     1      -7.506  13.195  21.314  0.00  0.00    +0.000 C 
ATOM     15  C   UNL     1      -7.339  12.632  19.853  0.00  0.00    +0.000 C 
ENDROOT
BRANCH   1  19
ATOM     16  C   UNL     1       0.403  10.145  20.707  0.00  0.00    +0.000 A 
ATOM     17  C   UNL     1      -0.342  10.922  21.587  0.00  0.00    +0.000 A 
ATOM     18  C   UNL     1      -1.420  11.671  21.116  0.00  0.00    +0.000 A 
ATOM     19  C   UNL     1      -1.810  11.637  19.760  0.00  0.00    +0.000 A 
ATOM     20  C   UNL     1      -0.974  10.944  18.872  0.00  0.00    +0.000 A 
ATOM     21  C   UNL     1       0.124  10.205  19.343  0.00  0.00    +0.000 A 
BRANCH  16  23
ATOM     22  C   UNL     1       1.319   7.991  20.994  0.00  0.00    +0.000 C 
ATOM     23  O   UNL     1       1.382   9.384  21.283  0.00  0.00    +0.000 OA
ENDBRANCH  16  23
ENDBRANCH   1  19
BRANCH   9  24
ATOM     24  N   UNL     1      -3.025  16.381  20.790  0.00  0.00    +0.000 N 
ATOM     25  C   UNL     1      -3.573  17.745  20.577  0.00  0.00    +0.000 C 
ATOM     26  C   UNL     1      -1.677  16.303  20.291  0.00  0.00    +0.000 C 
ATOM     27  O   UNL     1      -1.070  17.288  19.868  0.00  0.00    +0.000 OA
ATOM     28  N   UNL     1      -1.152  15.040  20.332  0.00  0.00    +0.000 N 
ATOM     29  H   UNL     1      -1.827  14.312  20.201  0.00  0.00    +0.000 HD
BRANCH  28  30
ATOM     30  C   UNL     1       0.174  14.653  20.076  0.00  0.00    +0.000 A 
ATOM     31  C   UNL     1       0.692  14.405  18.805  0.00  0.00    +0.000 A 
ATOM     32  C   UNL     1       2.013  13.980  18.660  0.00  0.00    +0.000 A 
ATOM     33  C   UNL     1       2.823  13.818  19.790  0.00  0.00    +0.000 A 
ATOM     34  C   UNL     1       2.316  14.098  21.053  0.00  0.00    +0.000 A 
ATOM     35  C   UNL     1       0.997  14.527  21.197  0.00  0.00    +0.000 A 
ENDBRANCH  28  30
ENDBRANCH   9  24
BRANCH  10  36
ATOM     36  C   UNL     1      -3.223  13.837  24.062  0.00  0.00    +0.000 C 
ATOM     37  C   UNL     1      -1.761  14.247  24.032  0.00  0.00    +0.000 C 
BRANCH  36  38
ATOM     38  O   UNL     1      -3.715  14.033  25.401  0.00  0.00    +0.000 OA
ATOM     39  H   UNL     1      -2.965  14.153  26.001  0.00  0.00    +0.000 HD
ENDBRANCH  36  38
ENDBRANCH  10  36
TORSDOF 6
ENDMDL
MODEL 4
REMARK VINA RESULT:      -7.8      2.517      7.442
REMARK  Name = 
REMARK  9 active torsions:
REMARK  status: ('A' for Active; 'I' for Inactive)
REMARK    1  A    between atoms: C_1  and  O_2
REMARK    2  A    between atoms: O_2  and  C_3
REMARK    3  A    between atoms: C_6  and  C_7
REMARK    4  A    between atoms: C_15  and  N_16
REMARK    5  A    between atoms: N_16  and  C_17
REMARK    6  A    between atoms: N_20  and  C_21
REMARK    7  A    between atoms: C_27  and  C_28
REMARK    8  A    between atoms: C_28  and  C_29
REMARK    9  A    between atoms: C_28  and  O_30
REMARK                            x       y       z     vdW  Elec       q    Type
REMARK                         _______ _______ _______ _____ _____    ______ ____
ROOT
ATOM      1  C   UNL     1      -0.874  15.678  20.627  0.00  0.00    +0.000 A 
ATOM      2  C   UNL     1       0.011  16.533  19.981  0.00  0.00    +0.000 A 
ATOM      3  C   UNL     1       0.908  16.014  19.034  0.00  0.00    +0.000 A 
ATOM      4  C   UNL     1       0.865  14.654  18.688  0.00  0.00    +0.000 A 
ATOM      5  C   UNL     1      -0.232  13.868  19.043  0.00  0.00    +0.000 A 
ATOM      6  C   UNL     1      -0.959  14.364  20.127  0.00  0.00    +0.000 A 
ATOM      7  C   UNL     1      -0.217  12.413  18.539  0.00  0.00    +0.000 C 
ATOM      8  C   UNL     1      -1.320  11.365  18.697  0.00  0.00    +0.000 C 
ATOM      9  C   UNL     1      -2.113  11.659  20.025  0.00  0.00    +0.000 C 
ATOM     10  C   UNL     1      -0.792  11.144  20.883  0.00  0.00    +0.000 C 
ATOM     11  C   UNL     1       0.670  11.695  20.567  0.00  0.00    +0.000 C 
ATOM     12  O   UNL     1       1.529  11.864  21.427  0.00  0.00    +0.000 OA
ATOM     13  N   UNL     1       0.924  11.892  19.205  0.00  0.00    +0.000 N 
ATOM     14  C   UNL     1       2.176  12.420  18.642  0.00  0.00    +0.000 C 
ATOM     15  C   UNL     1       2.094  13.921  18.175  0.00  0.00    +0.000 C 
ENDROOT
BRANCH   1  19
ATOM     16  C   UNL     1      -3.559  16.070  23.931  0.00  0.00    +0.000 A 
ATOM     17  C   UNL     1      -3.493  17.070  22.967  0.00  0.00    +0.000 A 
ATOM     18  C   UNL     1      -2.514  17.020  21.976  0.00  0.00    +0.000 A 
ATOM     19  C   UNL     1      -1.594  15.954  21.894  0.00  0.00    +0.000 A 
ATOM     20  C   UNL     1      -1.602  15.022  22.943  0.00  0.00    +0.000 A 
ATOM     21  C   UNL     1      -2.576  15.082  23.953  0.00  0.00    +0.000 A 
BRANCH  16  23
ATOM     22  C   UNL     1      -4.966  17.491  25.180  0.00  0.00    +0.000 C 
ATOM     23  O   UNL     1      -4.606  16.166  24.804  0.00  0.00    +0.000 OA
ENDBRANCH  16  23
ENDBRANCH   1  19
BRANCH   9  24
ATOM     24  N   UNL     1      -3.311  12.106  19.195  0.00  0.00    +0.000 N 
ATOM     25  C   UNL     1      -3.558  11.562  17.835  0.00  0.00    +0.000 C 
ATOM     26  C   UNL     1      -4.538  12.593  19.767  0.00  0.00    +0.000 C 
ATOM     27  O   UNL     1      -5.629  12.444  19.216  0.00  0.00    +0.000 OA
ATOM     28  N   UNL     1      -4.366  13.230  20.966  0.00  0.00    +0.000 N 
ATOM     29  H   UNL     1      -3.493  13.713  21.051  0.00  0.00    +0.000 HD
BRANCH  28  30
ATOM     30  C   UNL     1      -5.362  13.672  21.853  0.00  0.00    +0.000 A 
ATOM     31  C   UNL     1      -6.159  14.798  21.647  0.00  0.00    +0.000 A 
ATOM     32  C   UNL     1      -7.090  15.181  22.612  0.00  0.00    +0.000 A 
ATOM     33  C   UNL     1      -7.236  14.425  23.782  0.00  0.00    +0.000 A 
ATOM     34  C   UNL     1      -6.465  13.284  23.970  0.00  0.00    +0.000 A 
ATOM     35  C   UNL     1      -5.537  12.900  23.003  0.00  0.00    +0.000 A 
ENDBRANCH  28  30
ENDBRANCH   9  24
BRANCH  10  36
ATOM     36  C   UNL     1      -0.968  10.988  22.433  0.00  0.00    +0.000 C 
ATOM     37  C   UNL     1      -0.343   9.796  23.135  0.00  0.00    +0.000 C 
BRANCH  36  38
ATOM     38  O   UNL     1      -0.498  12.186  23.079  0.00  0.00    +0.000 OA
ATOM     39  H   UNL     1      -0.263  12.840  22.405  0.00  0.00    +0.000 HD
ENDBRANCH  36  38
ENDBRANCH  10  36
TORSDOF 6
ENDMDL
MODEL 5
REMARK VINA RESULT:      -7.7      1.396      1.871
REMARK  Name = 
REMARK  9 active torsions:
REMARK  status: ('A' for Active; 'I' for Inactive)
REMARK    1  A    between atoms: C_1  and  O_2
REMARK    2  A    between atoms: O_2  and  C_3
REMARK    3  A    between atoms: C_6  and  C_7
REMARK    4  A    between atoms: C_15  and  N_16
REMARK    5  A    between atoms: N_16  and  C_17
REMARK    6  A    between atoms: N_20  and  C_21
REMARK    7  A    between atoms: C_27  and  C_28
REMARK    8  A    between atoms: C_28  and  C_29
REMARK    9  A    between atoms: C_28  and  O_30
REMARK                            x       y       z     vdW  Elec       q    Type
REMARK                         _______ _______ _______ _____ _____    ______ ____
ROOT
ATOM      1  C   UNL     1      -4.899  12.338  19.833  0.00  0.00    +0.000 A 
ATOM      2  C   UNL     1      -6.237  12.273  20.200  0.00  0.00    +0.000 A 
ATOM      3  C   UNL     1      -6.619  12.658  21.495  0.00  0.00    +0.000 A 
ATOM      4  C   UNL     1      -5.669  13.172  22.391  0.00  0.00    +0.000 A 
ATOM      5  C   UNL     1      -4.416  13.582  21.934  0.00  0.00    +0.000 A 
ATOM      6  C   UNL     1      -4.032  12.996  20.727  0.00  0.00    +0.000 A 
ATOM      7  C   UNL     1      -3.482  14.210  22.986  0.00  0.00    +0.000 C 
ATOM      8  C   UNL     1      -2.102  14.827  22.751  0.00  0.00    +0.000 C 
ATOM      9  C   UNL     1      -1.425  14.103  21.527  0.00  0.00    +0.000 C 
ATOM     10  C   UNL     1      -1.230  12.760  22.478  0.00  0.00    +0.000 C 
ATOM     11  C   UNL     1      -2.440  12.158  23.322  0.00  0.00    +0.000 C 
ATOM     12  O   UNL     1      -2.585  10.957  23.535  0.00  0.00    +0.000 OA
ATOM     13  N   UNL     1      -3.285  13.125  23.879  0.00  0.00    +0.000 N 
ATOM     14  C   UNL     1      -4.490  12.843  24.675  0.00  0.00    +0.000 C 
ATOM     15  C   UNL     1      -5.843  13.050  23.896  0.00  0.00    +0.000 C 
ENDROOT
BRANCH   1  19
ATOM     16  C   UNL     1      -3.049  11.026  16.209  0.00  0.00    +0.000 A 
ATOM     17  C   UNL     1      -4.433  10.984  16.337  0.00  0.00    +0.000 A 
ATOM     18  C   UNL     1      -5.029  11.263  17.567  0.00  0.00    +0.000 A 
ATOM     19  C   UNL     1      -4.265  11.629  18.695  0.00  0.00    +0.000 A 
ATOM     20  C   UNL     1      -2.869  11.548  18.575  0.00  0.00    +0.000 A 
ATOM     21  C   UNL     1      -2.268  11.248  17.342  0.00  0.00    +0.000 A 
BRANCH  16  23
ATOM     22  C   UNL     1      -3.435  10.091  14.078  0.00  0.00    +0.000 C 
ATOM     23  O   UNL     1      -2.572  10.821  14.945  0.00  0.00    +0.000 OA
ENDBRANCH  16  23
ENDBRANCH   1  19
BRANCH   9  24
ATOM     24  N   UNL     1      -1.608  15.368  20.696  0.00  0.00    +0.000 N 
ATOM     25  C   UNL     1      -2.624  16.390  21.053  0.00  0.00    +0.000 C 
ATOM     26  C   UNL     1      -0.559  15.962  19.910  0.00  0.00    +0.000 C 
ATOM     27  O   UNL     1      -0.499  17.173  19.696  0.00  0.00    +0.000 OA
ATOM     28  N   UNL     1       0.345  15.053  19.431  0.00  0.00    +0.000 N 
ATOM     29  H   UNL     1      -0.045  14.153  19.232  0.00  0.00    +0.000 HD
BRANCH  28  30
ATOM     30  C   UNL     1       1.560  15.316  18.776  0.00  0.00    +0.000 A 
ATOM     31  C   UNL     1       1.872  16.519  18.143  0.00  0.00    +0.000 A 
ATOM     32  C   UNL     1       3.090  16.664  17.479  0.00  0.00    +0.000 A 
ATOM     33  C   UNL     1       4.008  15.606  17.463  0.00  0.00    +0.000 A 
ATOM     34  C   UNL     1       3.710  14.421  18.123  0.00  0.00    +0.000 A 
ATOM     35  C   UNL     1       2.494  14.278  18.790  0.00  0.00    +0.000 A 
ENDBRANCH  28  30
ENDBRANCH   9  24
BRANCH  10  36
ATOM     36  C   UNL     1      -0.372  11.589  21.886  0.00  0.00    +0.000 C 
ATOM     37  C   UNL     1       0.805  11.913  20.982  0.00  0.00    +0.000 C 
BRANCH  36  38
ATOM     38  O   UNL     1       0.106  10.767  22.967  0.00  0.00    +0.000 OA
ATOM     39  H   UNL     1      -0.277  11.082  23.799  0.00  0.00    +0.000 HD
ENDBRANCH  36  38
ENDBRANCH  10  36
TORSDOF 6
ENDMDL
MODEL 6
REMARK VINA RESULT:      -7.6      2.148      3.388
REMARK  Name = 
REMARK  9 active torsions:
REMARK  status: ('A' for Active; 'I' for Inactive)
REMARK    1  A    between atoms: C_1  and  O_2
REMARK    2  A    between atoms: O_2  and  C_3
REMARK    3  A    between atoms: C_6  and  C_7
REMARK    4  A    between atoms: C_15  and  N_16
REMARK    5  A    between atoms: N_16  and  C_17
REMARK    6  A    between atoms: N_20  and  C_21
REMARK    7  A    between atoms: C_27  and  C_28
REMARK    8  A    between atoms: C_28  and  C_29
REMARK    9  A    between atoms: C_28  and  O_30
REMARK                            x       y       z     vdW  Elec       q    Type
REMARK                         _______ _______ _______ _____ _____    ______ ____
ROOT
ATOM      1  C   UNL     1      -3.803  12.384  19.613  0.00  0.00    +0.000 A 
ATOM      2  C   UNL     1      -4.630  11.504  18.926  0.00  0.00    +0.000 A 
ATOM      3  C   UNL     1      -5.993  11.433  19.259  0.00  0.00    +0.000 A 
ATOM      4  C   UNL     1      -6.531  12.293  20.228  0.00  0.00    +0.000 A 
ATOM      5  C   UNL     1      -5.815  13.411  20.657  0.00  0.00    +0.000 A 
ATOM      6  C   UNL     1      -4.436  13.312  20.462  0.00  0.00    +0.000 A 
ATOM      7  C   UNL     1      -6.534  14.335  21.658  0.00  0.00    +0.000 C 
ATOM      8  C   UNL     1      -6.030  15.666  22.219  0.00  0.00    +0.000 C 
ATOM      9  C   UNL     1      -4.457  15.630  22.275  0.00  0.00    +0.000 C 
ATOM     10  C   UNL     1      -4.564  14.554  23.530  0.00  0.00    +0.000 C 
ATOM     11  C   UNL     1      -5.491  13.260  23.438  0.00  0.00    +0.000 C 
ATOM     12  O   UNL     1      -5.210  12.188  23.965  0.00  0.00    +0.000 OA
ATOM     13  N   UNL     1      -6.704  13.473  22.772  0.00  0.00    +0.000 N 
ATOM     14  C   UNL     1      -7.727  12.446  22.521  0.00  0.00    +0.000 C 
ATOM     15  C   UNL     1      -7.759  11.913  21.040  0.00  0.00    +0.000 C 
ENDROOT
BRANCH   1  19
ATOM     16  C   UNL     1       0.424  13.014  19.733  0.00  0.00    +0.000 A 
ATOM     17  C   UNL     1      -0.201  12.729  18.525  0.00  0.00    +0.000 A 
ATOM     18  C   UNL     1      -1.549  12.371  18.504  0.00  0.00    +0.000 A 
ATOM     19  C   UNL     1      -2.322  12.324  19.682  0.00  0.00    +0.000 A 
ATOM     20  C   UNL     1      -1.644  12.497  20.899  0.00  0.00    +0.000 A 
ATOM     21  C   UNL     1      -0.282  12.839  20.922  0.00  0.00    +0.000 A 
BRANCH  16  23
ATOM     22  C   UNL     1       2.325  13.259  18.359  0.00  0.00    +0.000 C 
ATOM     23  O   UNL     1       1.720  13.437  19.637  0.00  0.00    +0.000 OA
ENDBRANCH  16  23
ENDBRANCH   1  19
BRANCH   9  24
ATOM     24  N   UNL     1      -4.407  16.636  21.131  0.00  0.00    +0.000 N 
ATOM     25  C   UNL     1      -5.496  17.622  20.917  0.00  0.00    +0.000 C 
ATOM     26  C   UNL     1      -3.183  17.112  20.542  0.00  0.00    +0.000 C 
ATOM     27  O   UNL     1      -3.078  18.236  20.051  0.00  0.00    +0.000 OA
ATOM     28  N   UNL     1      -2.166  16.196  20.583  0.00  0.00    +0.000 N 
ATOM     29  H   UNL     1      -2.470  15.244  20.520  0.00  0.00    +0.000 HD
BRANCH  28  30
ATOM     30  C   UNL     1      -0.817  16.397  20.247  0.00  0.00    +0.000 A 
ATOM     31  C   UNL     1       0.212  16.552  21.175  0.00  0.00    +0.000 A 
ATOM     32  C   UNL     1       1.515  16.794  20.739  0.00  0.00    +0.000 A 
ATOM     33  C   UNL     1       1.792  16.863  19.368  0.00  0.00    +0.000 A 
ATOM     34  C   UNL     1       0.771  16.674  18.444  0.00  0.00    +0.000 A 
ATOM     35  C   UNL     1      -0.530  16.429  18.881  0.00  0.00    +0.000 A 
ENDBRANCH  28  30
ENDBRANCH   9  24
BRANCH  10  36
ATOM     36  C   UNL     1      -3.231  14.189  24.269  0.00  0.00    +0.000 C 
ATOM     37  C   UNL     1      -1.973  14.985  23.969  0.00  0.00    +0.000 C 
BRANCH  36  38
ATOM     38  O   UNL     1      -3.458  14.229  25.690  0.00  0.00    +0.000 OA
ATOM     39  H   UNL     1      -2.747  13.748  26.140  0.00  0.00    +0.000 HD
ENDBRANCH  36  38
ENDBRANCH  10  36
TORSDOF 6
ENDMDL
MODEL 7
REMARK VINA RESULT:      -7.6     10.548     13.908
REMARK  Name = 
REMARK  9 active torsions:
REMARK  status: ('A' for Active; 'I' for Inactive)
REMARK    1  A    between atoms: C_1  and  O_2
REMARK    2  A    between atoms: O_2  and  C_3
REMARK    3  A    between atoms: C_6  and  C_7
REMARK    4  A    between atoms: C_15  and  N_16
REMARK    5  A    between atoms: N_16  and  C_17
REMARK    6  A    between atoms: N_20  and  C_21
REMARK    7  A    between atoms: C_27  and  C_28
REMARK    8  A    between atoms: C_28  and  C_29
REMARK    9  A    between atoms: C_28  and  O_30
REMARK                            x       y       z     vdW  Elec       q    Type
REMARK                         _______ _______ _______ _____ _____    ______ ____
ROOT
ATOM      1  C   UNL     1       9.625  12.558  21.243  0.00  0.00    +0.000 A 
ATOM      2  C   UNL     1      10.288  11.510  20.616  0.00  0.00    +0.000 A 
ATOM      3  C   UNL     1      11.226  11.788  19.610  0.00  0.00    +0.000 A 
ATOM      4  C   UNL     1      11.545  13.115  19.285  0.00  0.00    +0.000 A 
ATOM      5  C   UNL     1      11.174  14.159  20.134  0.00  0.00    +0.000 A 
ATOM      6  C   UNL     1      10.100  13.856  20.971  0.00  0.00    +0.000 A 
ATOM      7  C   UNL     1      11.650  15.567  19.727  0.00  0.00    +0.000 C 
ATOM      8  C   UNL     1      11.471  16.869  20.510  0.00  0.00    +0.000 C 
ATOM      9  C   UNL     1      10.148  16.773  21.358  0.00  0.00    +0.000 C 
ATOM     10  C   UNL     1       9.282  16.899  19.951  0.00  0.00    +0.000 C 
ATOM     11  C   UNL     1       9.610  15.983  18.689  0.00  0.00    +0.000 C 
ATOM     12  O   UNL     1       8.755  15.573  17.909  0.00  0.00    +0.000 OA
ATOM     13  N   UNL     1      10.976  15.750  18.491  0.00  0.00    +0.000 N 
ATOM     14  C   UNL     1      11.551  14.917  17.424  0.00  0.00    +0.000 C 
ATOM     15  C   UNL     1      12.046  13.501  17.903  0.00  0.00    +0.000 C 
ENDROOT
BRANCH   1  19
ATOM     16  C   UNL     1       6.367  12.752  24.004  0.00  0.00    +0.000 A 
ATOM     17  C   UNL     1       7.279  11.706  24.079  0.00  0.00    +0.000 A 
ATOM     18  C   UNL     1       8.250  11.554  23.089  0.00  0.00    +0.000 A 
ATOM     19  C   UNL     1       8.362  12.461  22.016  0.00  0.00    +0.000 A 
ATOM     20  C   UNL     1       7.360  13.436  21.895  0.00  0.00    +0.000 A 
ATOM     21  C   UNL     1       6.371  13.578  22.882  0.00  0.00    +0.000 A 
BRANCH  16  23
ATOM     22  C   UNL     1       5.479  11.738  25.939  0.00  0.00    +0.000 C 
ATOM     23  O   UNL     1       5.514  12.863  25.067  0.00  0.00    +0.000 OA
ENDBRANCH  16  23
ENDBRANCH   1  19
BRANCH   9  24
ATOM     24  N   UNL     1      10.985  16.678  22.628  0.00  0.00    +0.000 N 
ATOM     25  C   UNL     1      12.333  17.295  22.716  0.00  0.00    +0.000 C 
ATOM     26  C   UNL     1      10.421  16.526  23.944  0.00  0.00    +0.000 C 
ATOM     27  O   UNL     1      10.968  16.972  24.953  0.00  0.00    +0.000 OA
ATOM     28  N   UNL     1       9.235  15.843  23.953  0.00  0.00    +0.000 N 
ATOM     29  H   UNL     1       9.161  15.143  23.241  0.00  0.00    +0.000 HD
BRANCH  28  30
ATOM     30  C   UNL     1       8.356  15.666  25.034  0.00  0.00    +0.000 A 
ATOM     31  C   UNL     1       8.570  14.779  26.088  0.00  0.00    +0.000 A 
ATOM     32  C   UNL     1       7.611  14.642  27.092  0.00  0.00    +0.000 A 
ATOM     33  C   UNL     1       6.441  15.410  27.051  0.00  0.00    +0.000 A 
ATOM     34  C   UNL     1       6.245  16.319  26.018  0.00  0.00    +0.000 A 
ATOM     35  C   UNL     1       7.206  16.457  25.017  0.00  0.00    +0.000 A 
ENDBRANCH  28  30
ENDBRANCH   9  24
BRANCH  10  36
ATOM     36  C   UNL     1       7.729  17.067  20.085  0.00  0.00    +0.000 C 
ATOM     37  C   UNL     1       7.145  17.559  21.398  0.00  0.00    +0.000 C 
BRANCH  36  38
ATOM     38  O   UNL     1       7.260  17.932  19.034  0.00  0.00    +0.000 OA
ATOM     39  H   UNL     1       7.998  18.146  18.445  0.00  0.00    +0.000 HD
ENDBRANCH  36  38
ENDBRANCH  10  36
TORSDOF 6
ENDMDL
MODEL 8
REMARK VINA RESULT:      -7.6      3.048      4.297
REMARK  Name = 
REMARK  9 active torsions:
REMARK  status: ('A' for Active; 'I' for Inactive)
REMARK    1  A    between atoms: C_1  and  O_2
REMARK    2  A    between atoms: O_2  and  C_3
REMARK    3  A    between atoms: C_6  and  C_7
REMARK    4  A    between atoms: C_15  and  N_16
REMARK    5  A    between atoms: N_16  and  C_17
REMARK    6  A    between atoms: N_20  and  C_21
REMARK    7  A    between atoms: C_27  and  C_28
REMARK    8  A    between atoms: C_28  and  C_29
REMARK    9  A    between atoms: C_28  and  O_30
REMARK                            x       y       z     vdW  Elec       q    Type
REMARK                         _______ _______ _______ _____ _____    ______ ____
ROOT
ATOM      1  C   UNL     1      -3.448  11.911  18.972  0.00  0.00    +0.000 A 
ATOM      2  C   UNL     1      -4.567  12.250  19.722  0.00  0.00    +0.000 A 
ATOM      3  C   UNL     1      -4.412  12.630  21.065  0.00  0.00    +0.000 A 
ATOM      4  C   UNL     1      -3.131  12.734  21.628  0.00  0.00    +0.000 A 
ATOM      5  C   UNL     1      -1.999  12.755  20.812  0.00  0.00    +0.000 A 
ATOM      6  C   UNL     1      -2.194  12.179  19.555  0.00  0.00    +0.000 A 
ATOM      7  C   UNL     1      -0.650  12.960  21.526  0.00  0.00    +0.000 C 
ATOM      8  C   UNL     1       0.727  13.117  20.880  0.00  0.00    +0.000 C 
ATOM      9  C   UNL     1       0.745  12.318  19.524  0.00  0.00    +0.000 C 
ATOM     10  C   UNL     1       0.748  10.910  20.396  0.00  0.00    +0.000 C 
ATOM     11  C   UNL     1      -0.298  10.661  21.574  0.00  0.00    +0.000 C 
ATOM     12  O   UNL     1      -0.766   9.558  21.841  0.00  0.00    +0.000 OA
ATOM     13  N   UNL     1      -0.578  11.799  22.339  0.00  0.00    +0.000 N 
ATOM     14  C   UNL     1      -1.526  11.855  23.462  0.00  0.00    +0.000 C 
ATOM     15  C   UNL     1      -2.896  12.551  23.119  0.00  0.00    +0.000 C 
ENDROOT
BRANCH   1  19
ATOM     16  C   UNL     1      -2.929  10.249  15.067  0.00  0.00    +0.000 A 
ATOM     17  C   UNL     1      -4.001  11.096  15.324  0.00  0.00    +0.000 A 
ATOM     18  C   UNL     1      -4.262  11.515  16.629  0.00  0.00    +0.000 A 
ATOM     19  C   UNL     1      -3.440  11.133  17.709  0.00  0.00    +0.000 A 
ATOM     20  C   UNL     1      -2.439  10.185  17.446  0.00  0.00    +0.000 A 
ATOM     21  C   UNL     1      -2.188   9.747  16.136  0.00  0.00    +0.000 A 
BRANCH  16  23
ATOM     22  C   UNL     1      -3.880   9.855  12.946  0.00  0.00    +0.000 C 
ATOM     23  O   UNL     1      -2.708   9.967  13.748  0.00  0.00    +0.000 OA
ENDBRANCH  16  23
ENDBRANCH   1  19
BRANCH   9  24
ATOM     24  N   UNL     1       0.762  13.639  18.762  0.00  0.00    +0.000 N 
ATOM     25  C   UNL     1      -0.490  14.387  18.481  0.00  0.00    +0.000 C 
ATOM     26  C   UNL     1       1.891  14.531  18.740  0.00  0.00    +0.000 C 
ATOM     27  O   UNL     1       1.768  15.750  18.622  0.00  0.00    +0.000 OA
ATOM     28  N   UNL     1       3.095  13.890  18.860  0.00  0.00    +0.000 N 
ATOM     29  H   UNL     1       3.113  12.974  18.455  0.00  0.00    +0.000 HD
BRANCH  28  30
ATOM     30  C   UNL     1       4.361  14.471  19.035  0.00  0.00    +0.000 A 
ATOM     31  C   UNL     1       4.840  14.969  20.247  0.00  0.00    +0.000 A 
ATOM     32  C   UNL     1       6.098  15.570  20.307  0.00  0.00    +0.000 A 
ATOM     33  C   UNL     1       6.887  15.658  19.154  0.00  0.00    +0.000 A 
ATOM     34  C   UNL     1       6.422  15.131  17.955  0.00  0.00    +0.000 A 
ATOM     35  C   UNL     1       5.167  14.527  17.896  0.00  0.00    +0.000 A 
ENDBRANCH  28  30
ENDBRANCH   9  24
BRANCH  10  36
ATOM     36  C   UNL     1       0.960   9.578  19.597  0.00  0.00    +0.000 C 
ATOM     37  C   UNL     1       1.719   9.614  18.282  0.00  0.00    +0.000 C 
BRANCH  36  38
ATOM     38  O   UNL     1       1.598   8.614  20.456  0.00  0.00    +0.000 OA
ATOM     39  H   UNL     1       1.997   9.074  21.209  0.00  0.00    +0.000 HD
ENDBRANCH  36  38
ENDBRANCH  10  36
TORSDOF 6
ENDMDL
MODEL 9
REMARK VINA RESULT:      -7.6      2.038      2.825
REMARK  Name = 
REMARK  9 active torsions:
REMARK  status: ('A' for Active; 'I' for Inactive)
REMARK    1  A    between atoms: C_1  and  O_2
REMARK    2  A    between atoms: O_2  and  C_3
REMARK    3  A    between atoms: C_6  and  C_7
REMARK    4  A    between atoms: C_15  and  N_16
REMARK    5  A    between atoms: N_16  and  C_17
REMARK    6  A    between atoms: N_20  and  C_21
REMARK    7  A    between atoms: C_27  and  C_28
REMARK    8  A    between atoms: C_28  and  C_29
REMARK    9  A    between atoms: C_28  and  O_30
REMARK                            x       y       z     vdW  Elec       q    Type
REMARK                         _______ _______ _______ _____ _____    ______ ____
ROOT
ATOM      1  C   UNL     1      -3.549  11.971  19.189  0.00  0.00    +0.000 A 
ATOM      2  C   UNL     1      -4.683  11.321  18.718  0.00  0.00    +0.000 A 
ATOM      3  C   UNL     1      -5.938  11.632  19.267  0.00  0.00    +0.000 A 
ATOM      4  C   UNL     1      -6.056  12.641  20.236  0.00  0.00    +0.000 A 
ATOM      5  C   UNL     1      -5.011  13.540  20.452  0.00  0.00    +0.000 A 
ATOM      6  C   UNL     1      -3.762  13.066  20.049  0.00  0.00    +0.000 A 
ATOM      7  C   UNL     1      -5.280  14.659  21.475  0.00  0.00    +0.000 C 
ATOM      8  C   UNL     1      -4.358  15.825  21.838  0.00  0.00    +0.000 C 
ATOM      9  C   UNL     1      -2.864  15.369  21.645  0.00  0.00    +0.000 C 
ATOM     10  C   UNL     1      -3.024  14.409  22.986  0.00  0.00    +0.000 C 
ATOM     11  C   UNL     1      -4.256  13.410  23.149  0.00  0.00    +0.000 C 
ATOM     12  O   UNL     1      -4.174  12.321  23.711  0.00  0.00    +0.000 OA
ATOM     13  N   UNL     1      -5.469  13.916  22.669  0.00  0.00    +0.000 N 
ATOM     14  C   UNL     1      -6.751  13.194  22.669  0.00  0.00    +0.000 C 
ATOM     15  C   UNL     1      -7.179  12.635  21.261  0.00  0.00    +0.000 C 
ENDROOT
BRANCH   1  19
ATOM     16  C   UNL     1       0.211   9.947  18.971  0.00  0.00    +0.000 A 
ATOM     17  C   UNL     1      -0.141  10.636  20.126  0.00  0.00    +0.000 A 
ATOM     18  C   UNL     1      -1.292  11.424  20.146  0.00  0.00    +0.000 A 
ATOM     19  C   UNL     1      -2.146  11.517  19.027  0.00  0.00    +0.000 A 
ATOM     20  C   UNL     1      -1.710  10.912  17.838  0.00  0.00    +0.000 A 
ATOM     21  C   UNL     1      -0.541  10.134  17.812  0.00  0.00    +0.000 A 
BRANCH  16  23
ATOM     22  C   UNL     1       1.973   8.844  17.859  0.00  0.00    +0.000 C 
ATOM     23  O   UNL     1       1.306   9.138  19.083  0.00  0.00    +0.000 OA
ENDBRANCH  16  23
ENDBRANCH   1  19
BRANCH   9  24
ATOM     24  N   UNL     1      -2.756  16.282  20.429  0.00  0.00    +0.000 N 
ATOM     25  C   UNL     1      -3.601  17.495  20.293  0.00  0.00    +0.000 C 
ATOM     26  C   UNL     1      -1.561  16.417  19.639  0.00  0.00    +0.000 C 
ATOM     27  O   UNL     1      -1.272  17.459  19.050  0.00  0.00    +0.000 OA
ATOM     28  N   UNL     1      -0.795  15.282  19.609  0.00  0.00    +0.000 N 
ATOM     29  H   UNL     1      -1.322  14.432  19.666  0.00  0.00    +0.000 HD
BRANCH  28  30
ATOM     30  C   UNL     1       0.494  15.132  19.072  0.00  0.00    +0.000 A 
ATOM     31  C   UNL     1       1.394  16.178  18.875  0.00  0.00    +0.000 A 
ATOM     32  C   UNL     1       2.636  15.931  18.290  0.00  0.00    +0.000 A 
ATOM     33  C   UNL     1       2.986  14.627  17.917  0.00  0.00    +0.000 A 
ATOM     34  C   UNL     1       2.102  13.580  18.147  0.00  0.00    +0.000 A 
ATOM     35  C   UNL     1       0.862  13.828  18.734  0.00  0.00    +0.000 A 
ENDBRANCH  28  30
ENDBRANCH   9  24
BRANCH  10  36
ATOM     36  C   UNL     1      -1.722  13.725  23.531  0.00  0.00    +0.000 C 
ATOM     37  C   UNL     1      -0.593  13.403  22.567  0.00  0.00    +0.000 C 
BRANCH  36  38
ATOM     38  O   UNL     1      -1.185  14.529  24.598  0.00  0.00    +0.000 OA
ATOM     39  H   UNL     1      -1.788  15.264  24.778  0.00  0.00    +0.000 HD
ENDBRANCH  36  38
ENDBRANCH  10  36
TORSDOF 6
ENDMDL
