MODEL 1
REMARK VINA RESULT:      -8.1      0.000      0.000
REMARK  Name = 
REMARK  4 active torsions:
REMARK  status: ('A' for Active; 'I' for Inactive)
REMARK    1  A    between atoms: C_2  and  C_3
REMARK    2  A    between atoms: C_8  and  C_9
REMARK    3  A    between atoms: C_17  and  N_18
REMARK    4  A    between atoms: N_18  and  C_19
REMARK                            x       y       z     vdW  Elec       q    Type
REMARK                         _______ _______ _______ _____ _____    ______ ____
ROOT
ATOM      1  C   UNL     1      -1.635  12.131  21.684  0.00  0.00    +0.000 A 
ATOM      2  C   UNL     1      -1.173  11.612  22.884  0.00  0.00    +0.000 A 
ATOM      3  N   UNL     1      -0.289  10.615  23.016  0.00  0.00    +0.000 NA
ATOM      4  C   UNL     1       0.124  10.101  21.848  0.00  0.00    +0.000 A 
ATOM      5  S   UNL     1       1.179   8.783  21.859  0.00  0.00    +0.000 S 
ATOM      6  C   UNL     1       1.254   8.728  20.150  0.00  0.00    +0.000 A 
ATOM      7  C   UNL     1       0.461   9.718  19.592  0.00  0.00    +0.000 A 
ATOM      8  C   UNL     1      -0.229  10.522  20.570  0.00  0.00    +0.000 A 
ATOM      9  C   UNL     1      -1.139  11.617  20.460  0.00  0.00    +0.000 A 
ENDROOT
BRANCH   6  10
ATOM     10  C   UNL     1       2.078   7.707  19.491  0.00  0.00    +0.000 A 
ATOM     11  C   UNL     1       2.660   7.963  18.243  0.00  0.00    +0.000 A 
ATOM     12  C   UNL     1       3.467   7.006  17.625  0.00  0.00    +0.000 A 
ATOM     13  C   UNL     1       3.701   5.782  18.246  0.00  0.00    +0.000 A 
ATOM     14  C   UNL     1       3.124   5.507  19.482  0.00  0.00    +0.000 A 
ATOM     15  C   UNL     1       2.321   6.463  20.098  0.00  0.00    +0.000 A 
ENDBRANCH   6  10
BRANCH   1  17
ATOM     16  N   UNL     1      -3.556  13.864  21.793  0.00  0.00    +0.000 NA
ATOM     17  C   UNL     1      -2.679  13.109  21.813  0.00  0.00    +0.000 C 
ENDBRANCH   1  17
BRANCH   9  18
ATOM     18  N   UNL     1      -1.510  12.105  19.190  0.00  0.00    +0.000 N 
ATOM     19  H   UNL     1      -1.186  13.034  18.954  0.00  0.00    +0.000 HD
BRANCH  18  20
ATOM     20  C   UNL     1      -2.382  11.549  18.243  0.00  0.00    +0.000 A 
ATOM     21  C   UNL     1      -1.916  10.730  17.198  0.00  0.00    +0.000 A 
ATOM     22  C   UNL     1      -2.730  10.350  16.138  0.00  0.00    +0.000 A 
ATOM     23  C   UNL     1      -4.069  10.739  16.103  0.00  0.00    +0.000 A 
ATOM     24  C   UNL     1      -4.602  11.465  17.184  0.00  0.00    +0.000 A 
ATOM     25  C   UNL     1      -5.891  11.999  17.467  0.00  0.00    +0.000 A 
ATOM     26  C   UNL     1      -5.818  12.651  18.675  0.00  0.00    +0.000 A 
ATOM     27  N   UNL     1      -4.527  12.562  19.118  0.00  0.00    +0.000 N 
ATOM     28  C   UNL     1      -3.758  11.834  18.234  0.00  0.00    +0.000 A 
ATOM     29  H   UNL     1      -4.174  12.984  19.965  0.00  0.00    +0.000 HD
ENDBRANCH  18  20
ENDBRANCH   9  18
TORSDOF 4
ENDMDL
MODEL 2
REMARK VINA RESULT:      -7.7      0.854      2.045
REMARK  Name = 
REMARK  4 active torsions:
REMARK  status: ('A' for Active; 'I' for Inactive)
REMARK    1  A    between atoms: C_2  and  C_3
REMARK    2  A    between atoms: C_8  and  C_9
REMARK    3  A    between atoms: C_17  and  N_18
REMARK    4  A    between atoms: N_18  and  C_19
REMARK                            x       y       z     vdW  Elec       q    Type
REMARK                         _______ _______ _______ _____ _____    ______ ____
ROOT
ATOM      1  C   UNL     1      -1.926  12.352  22.009  0.00  0.00    +0.000 A 
ATOM      2  C   UNL     1      -1.351  11.839  23.162  0.00  0.00    +0.000 A 
ATOM      3  N   UNL     1      -0.410  10.887  23.210  0.00  0.00    +0.000 NA
ATOM      4  C   UNL     1      -0.058  10.415  22.005  0.00  0.00    +0.000 A 
ATOM      5  S   UNL     1       1.061   9.154  21.912  0.00  0.00    +0.000 S 
ATOM      6  C   UNL     1       1.013   9.131  20.202  0.00  0.00    +0.000 A 
ATOM      7  C   UNL     1       0.131  10.086  19.722  0.00  0.00    +0.000 A 
ATOM      8  C   UNL     1      -0.525  10.837  20.765  0.00  0.00    +0.000 A 
ATOM      9  C   UNL     1      -1.496  11.885  20.743  0.00  0.00    +0.000 A 
ENDROOT
BRANCH   6  10
ATOM     10  C   UNL     1       1.838   8.165  19.464  0.00  0.00    +0.000 A 
ATOM     11  C   UNL     1       2.115   6.906  20.010  0.00  0.00    +0.000 A 
ATOM     12  C   UNL     1       2.875   5.975  19.300  0.00  0.00    +0.000 A 
ATOM     13  C   UNL     1       3.368   6.292  18.037  0.00  0.00    +0.000 A 
ATOM     14  C   UNL     1       3.110   7.542  17.482  0.00  0.00    +0.000 A 
ATOM     15  C   UNL     1       2.350   8.468  18.191  0.00  0.00    +0.000 A 
ENDBRANCH   6  10
BRANCH   1  17
ATOM     16  N   UNL     1      -3.925  13.923  22.499  0.00  0.00    +0.000 NA
ATOM     17  C   UNL     1      -3.007  13.271  22.233  0.00  0.00    +0.000 C 
ENDBRANCH   1  17
BRANCH   9  18
ATOM     18  N   UNL     1      -1.984  12.372  19.513  0.00  0.00    +0.000 N 
ATOM     19  H   UNL     1      -1.457  13.124  19.087  0.00  0.00    +0.000 HD
BRANCH  18  20
ATOM     20  C   UNL     1      -3.178  12.064  18.844  0.00  0.00    +0.000 A 
ATOM     21  C   UNL     1      -4.430  12.169  19.478  0.00  0.00    +0.000 A 
ATOM     22  C   UNL     1      -5.592  11.668  18.905  0.00  0.00    +0.000 A 
ATOM     23  C   UNL     1      -5.557  11.076  17.643  0.00  0.00    +0.000 A 
ATOM     24  C   UNL     1      -4.345  11.050  16.929  0.00  0.00    +0.000 A 
ATOM     25  C   UNL     1      -3.968  10.547  15.653  0.00  0.00    +0.000 A 
ATOM     26  C   UNL     1      -2.622  10.776  15.492  0.00  0.00    +0.000 A 
ATOM     27  N   UNL     1      -2.162  11.369  16.636  0.00  0.00    +0.000 N 
ATOM     28  C   UNL     1      -3.192  11.561  17.533  0.00  0.00    +0.000 A 
ATOM     29  H   UNL     1      -1.200  11.618  16.814  0.00  0.00    +0.000 HD
ENDBRANCH  18  20
ENDBRANCH   9  18
TORSDOF 4
ENDMDL
MODEL 3
REMARK VINA RESULT:      -7.6      5.307      9.675
REMARK  Name = 
REMARK  4 active torsions:
REMARK  status: ('A' for Active; 'I' for Inactive)
REMARK    1  A    between atoms: C_2  and  C_3
REMARK    2  A    between atoms: C_8  and  C_9
REMARK    3  A    between atoms: C_17  and  N_18
REMARK    4  A    between atoms: N_18  and  C_19
REMARK                            x       y       z     vdW  Elec       q    Type
REMARK                         _______ _______ _______ _____ _____    ______ ____
ROOT
ATOM      1  C   UNL     1       4.040   2.405  20.626  0.00  0.00    +0.000 A 
ATOM      2  C   UNL     1       2.884   2.381  21.392  0.00  0.00    +0.000 A 
ATOM      3  N   UNL     1       1.984   3.369  21.480  0.00  0.00    +0.000 NA
ATOM      4  C   UNL     1       2.302   4.455  20.761  0.00  0.00    +0.000 A 
ATOM      5  S   UNL     1       1.300   5.812  20.837  0.00  0.00    +0.000 S 
ATOM      6  C   UNL     1       2.269   6.688  19.733  0.00  0.00    +0.000 A 
ATOM      7  C   UNL     1       3.356   5.931  19.324  0.00  0.00    +0.000 A 
ATOM      8  C   UNL     1       3.407   4.624  19.933  0.00  0.00    +0.000 A 
ATOM      9  C   UNL     1       4.327   3.537  19.824  0.00  0.00    +0.000 A 
ENDROOT
BRANCH   6  10
ATOM     10  C   UNL     1       1.893   8.058  19.362  0.00  0.00    +0.000 A 
ATOM     11  C   UNL     1       1.193   8.870  20.263  0.00  0.00    +0.000 A 
ATOM     12  C   UNL     1       0.857  10.182  19.925  0.00  0.00    +0.000 A 
ATOM     13  C   UNL     1       1.216  10.698  18.682  0.00  0.00    +0.000 A 
ATOM     14  C   UNL     1       1.903   9.903  17.771  0.00  0.00    +0.000 A 
ATOM     15  C   UNL     1       2.239   8.596  18.110  0.00  0.00    +0.000 A 
ENDBRANCH   6  10
BRANCH   1  17
ATOM     16  N   UNL     1       5.697   0.448  20.989  0.00  0.00    +0.000 NA
ATOM     17  C   UNL     1       4.906   1.274  20.807  0.00  0.00    +0.000 C 
ENDBRANCH   1  17
BRANCH   9  18
ATOM     18  N   UNL     1       5.450   3.642  18.977  0.00  0.00    +0.000 N 
ATOM     19  H   UNL     1       6.315   3.253  19.330  0.00  0.00    +0.000 HD
BRANCH  18  20
ATOM     20  C   UNL     1       5.588   4.327  17.762  0.00  0.00    +0.000 A 
ATOM     21  C   UNL     1       5.013   3.845  16.571  0.00  0.00    +0.000 A 
ATOM     22  C   UNL     1       5.317   4.393  15.330  0.00  0.00    +0.000 A 
ATOM     23  C   UNL     1       6.180   5.483  15.233  0.00  0.00    +0.000 A 
ATOM     24  C   UNL     1       6.689   6.063  16.410  0.00  0.00    +0.000 A 
ATOM     25  C   UNL     1       7.562   7.158  16.666  0.00  0.00    +0.000 A 
ATOM     26  C   UNL     1       7.735   7.246  18.027  0.00  0.00    +0.000 A 
ATOM     27  N   UNL     1       7.027   6.227  18.603  0.00  0.00    +0.000 N 
ATOM     28  C   UNL     1       6.367   5.490  17.642  0.00  0.00    +0.000 A 
ATOM     29  H   UNL     1       7.002   6.025  19.592  0.00  0.00    +0.000 HD
ENDBRANCH  18  20
ENDBRANCH   9  18
TORSDOF 4
ENDMDL
MODEL 4
REMARK VINA RESULT:      -7.5      0.859      1.867
REMARK  Name = 
REMARK  4 active torsions:
REMARK  status: ('A' for Active; 'I' for Inactive)
REMARK    1  A    between atoms: C_2  and  C_3
REMARK    2  A    between atoms: C_8  and  C_9
REMARK    3  A    between atoms: C_17  and  N_18
REMARK    4  A    between atoms: N_18  and  C_19
REMARK                            x       y       z     vdW  Elec       q    Type
REMARK                         _______ _______ _______ _____ _____    ______ ____
ROOT
ATOM      1  C   UNL     1      -1.648  11.902  22.138  0.00  0.00    +0.000 A 
ATOM      2  C   UNL     1      -1.121  11.259  23.249  0.00  0.00    +0.000 A 
ATOM      3  N   UNL     1      -0.206  10.281  23.225  0.00  0.00    +0.000 NA
ATOM      4  C   UNL     1       0.171   9.924  21.988  0.00  0.00    +0.000 A 
ATOM      5  S   UNL     1       1.261   8.648  21.799  0.00  0.00    +0.000 S 
ATOM      6  C   UNL     1       1.264   8.799  20.095  0.00  0.00    +0.000 A 
ATOM      7  C   UNL     1       0.422   9.823  19.691  0.00  0.00    +0.000 A 
ATOM      8  C   UNL     1      -0.248  10.482  20.785  0.00  0.00    +0.000 A 
ATOM      9  C   UNL     1      -1.190  11.553  20.843  0.00  0.00    +0.000 A 
ENDROOT
BRANCH   6  10
ATOM     10  C   UNL     1       2.087   7.891  19.286  0.00  0.00    +0.000 A 
ATOM     11  C   UNL     1       2.555   8.289  18.027  0.00  0.00    +0.000 A 
ATOM     12  C   UNL     1       3.360   7.440  17.267  0.00  0.00    +0.000 A 
ATOM     13  C   UNL     1       3.706   6.181  17.754  0.00  0.00    +0.000 A 
ATOM     14  C   UNL     1       3.242   5.765  18.998  0.00  0.00    +0.000 A 
ATOM     15  C   UNL     1       2.441   6.614  19.756  0.00  0.00    +0.000 A 
ENDBRANCH   6  10
BRANCH   1  17
ATOM     16  N   UNL     1      -3.475  13.656  22.677  0.00  0.00    +0.000 NA
ATOM     17  C   UNL     1      -2.711  12.823  22.424  0.00  0.00    +0.000 C 
ENDBRANCH   1  17
BRANCH   9  18
ATOM     18  N   UNL     1      -1.629  12.176  19.656  0.00  0.00    +0.000 N 
ATOM     19  H   UNL     1      -1.084  12.968  19.337  0.00  0.00    +0.000 HD
BRANCH  18  20
ATOM     20  C   UNL     1      -2.795  11.950  18.911  0.00  0.00    +0.000 A 
ATOM     21  C   UNL     1      -4.055  12.393  19.355  0.00  0.00    +0.000 A 
ATOM     22  C   UNL     1      -5.237  11.995  18.741  0.00  0.00    +0.000 A 
ATOM     23  C   UNL     1      -5.204  11.166  17.620  0.00  0.00    +0.000 A 
ATOM     24  C   UNL     1      -3.960  10.790  17.080  0.00  0.00    +0.000 A 
ATOM     25  C   UNL     1      -3.575   9.985  15.972  0.00  0.00    +0.000 A 
ATOM     26  C   UNL     1      -2.201   9.943  15.941  0.00  0.00    +0.000 A 
ATOM     27  N   UNL     1      -1.740  10.664  17.008  0.00  0.00    +0.000 N 
ATOM     28  C   UNL     1      -2.790  11.205  17.720  0.00  0.00    +0.000 A 
ATOM     29  H   UNL     1      -0.768  10.774  17.256  0.00  0.00    +0.000 HD
ENDBRANCH  18  20
ENDBRANCH   9  18
TORSDOF 4
ENDMDL
MODEL 5
REMARK VINA RESULT:      -7.5      2.884      4.028
REMARK  Name = 
REMARK  4 active torsions:
REMARK  status: ('A' for Active; 'I' for Inactive)
REMARK    1  A    between atoms: C_2  and  C_3
REMARK    2  A    between atoms: C_8  and  C_9
REMARK    3  A    between atoms: C_17  and  N_18
REMARK    4  A    between atoms: N_18  and  C_19
REMARK                            x       y       z     vdW  Elec       q    Type
REMARK                         _______ _______ _______ _____ _____    ______ ____
ROOT
ATOM      1  C   UNL     1      -0.409  11.037  20.931  0.00  0.00    +0.000 A 
ATOM      2  C   UNL     1      -0.357  10.094  21.946  0.00  0.00    +0.000 A 
ATOM      3  N   UNL     1       0.305   8.930  21.898  0.00  0.00    +0.000 NA
ATOM      4  C   UNL     1       0.927   8.710  20.731  0.00  0.00    +0.000 A 
ATOM      5  S   UNL     1       1.736   7.246  20.495  0.00  0.00    +0.000 S 
ATOM      6  C   UNL     1       2.243   7.689  18.923  0.00  0.00    +0.000 A 
ATOM      7  C   UNL     1       1.778   8.952  18.593  0.00  0.00    +0.000 A 
ATOM      8  C   UNL     1       0.984   9.561  19.632  0.00  0.00    +0.000 A 
ATOM      9  C   UNL     1       0.307  10.814  19.728  0.00  0.00    +0.000 A 
ENDROOT
BRANCH   6  10
ATOM     10  C   UNL     1       3.050   6.753  18.128  0.00  0.00    +0.000 A 
ATOM     11  C   UNL     1       4.123   7.219  17.358  0.00  0.00    +0.000 A 
ATOM     12  C   UNL     1       4.910   6.330  16.624  0.00  0.00    +0.000 A 
ATOM     13  C   UNL     1       4.633   4.965  16.649  0.00  0.00    +0.000 A 
ATOM     14  C   UNL     1       3.566   4.486  17.402  0.00  0.00    +0.000 A 
ATOM     15  C   UNL     1       2.783   5.373  18.135  0.00  0.00    +0.000 A 
ENDBRANCH   6  10
BRANCH   1  17
ATOM     16  N   UNL     1      -1.943  13.093  21.284  0.00  0.00    +0.000 NA
ATOM     17  C   UNL     1      -1.294  12.140  21.179  0.00  0.00    +0.000 C 
ENDBRANCH   1  17
BRANCH   9  18
ATOM     18  N   UNL     1       0.354  11.729  18.656  0.00  0.00    +0.000 N 
ATOM     19  H   UNL     1      -0.196  11.493  17.839  0.00  0.00    +0.000 HD
BRANCH  18  20
ATOM     20  C   UNL     1       1.160  12.865  18.490  0.00  0.00    +0.000 A 
ATOM     21  C   UNL     1       2.536  12.763  18.214  0.00  0.00    +0.000 A 
ATOM     22  C   UNL     1       3.382  13.864  18.259  0.00  0.00    +0.000 A 
ATOM     23  C   UNL     1       2.875  15.132  18.541  0.00  0.00    +0.000 A 
ATOM     24  C   UNL     1       1.488  15.293  18.715  0.00  0.00    +0.000 A 
ATOM     25  C   UNL     1       0.659  16.415  18.998  0.00  0.00    +0.000 A 
ATOM     26  C   UNL     1      -0.637  15.966  19.090  0.00  0.00    +0.000 A 
ATOM     27  N   UNL     1      -0.621  14.610  18.907  0.00  0.00    +0.000 N 
ATOM     28  C   UNL     1       0.663  14.167  18.665  0.00  0.00    +0.000 A 
ATOM     29  H   UNL     1      -1.430  14.008  18.959  0.00  0.00    +0.000 HD
ENDBRANCH  18  20
ENDBRANCH   9  18
TORSDOF 4
ENDMDL
MODEL 6
REMARK VINA RESULT:      -7.5      4.816      9.426
REMARK  Name = 
REMARK  4 active torsions:
REMARK  status: ('A' for Active; 'I' for Inactive)
REMARK    1  A    between atoms: C_2  and  C_3
REMARK    2  A    between atoms: C_8  and  C_9
REMARK    3  A    between atoms: C_17  and  N_18
REMARK    4  A    between atoms: N_18  and  C_19
REMARK                            x       y       z     vdW  Elec       q    Type
REMARK                         _______ _______ _______ _____ _____    ______ ____
ROOT
ATOM      1  C   UNL     1       2.819   3.400  19.289  0.00  0.00    +0.000 A 
ATOM      2  C   UNL     1       2.252   3.531  20.548  0.00  0.00    +0.000 A 
ATOM      3  N   UNL     1       1.765   4.664  21.071  0.00  0.00    +0.000 NA
ATOM      4  C   UNL     1       1.891   5.729  20.267  0.00  0.00    +0.000 A 
ATOM      5  S   UNL     1       1.394   7.243  20.825  0.00  0.00    +0.000 S 
ATOM      6  C   UNL     1       1.815   8.012  19.356  0.00  0.00    +0.000 A 
ATOM      7  C   UNL     1       2.340   7.098  18.456  0.00  0.00    +0.000 A 
ATOM      8  C   UNL     1       2.415   5.756  18.979  0.00  0.00    +0.000 A 
ATOM      9  C   UNL     1       2.886   4.524  18.429  0.00  0.00    +0.000 A 
ENDROOT
BRANCH   6  10
ATOM     10  C   UNL     1       1.607   9.458  19.206  0.00  0.00    +0.000 A 
ATOM     11  C   UNL     1       2.208  10.155  18.150  0.00  0.00    +0.000 A 
ATOM     12  C   UNL     1       1.991  11.524  17.987  0.00  0.00    +0.000 A 
ATOM     13  C   UNL     1       1.171  12.213  18.878  0.00  0.00    +0.000 A 
ATOM     14  C   UNL     1       0.573  11.539  19.938  0.00  0.00    +0.000 A 
ATOM     15  C   UNL     1       0.789  10.173  20.098  0.00  0.00    +0.000 A 
ENDBRANCH   6  10
BRANCH   1  17
ATOM     16  N   UNL     1       3.832   1.100  18.667  0.00  0.00    +0.000 NA
ATOM     17  C   UNL     1       3.385   2.109  19.015  0.00  0.00    +0.000 C 
ENDBRANCH   1  17
BRANCH   9  18
ATOM     18  N   UNL     1       3.402   4.486  17.116  0.00  0.00    +0.000 N 
ATOM     19  H   UNL     1       2.759   4.196  16.390  0.00  0.00    +0.000 HD
BRANCH  18  20
ATOM     20  C   UNL     1       4.720   4.660  16.673  0.00  0.00    +0.000 A 
ATOM     21  C   UNL     1       5.089   4.420  15.336  0.00  0.00    +0.000 A 
ATOM     22  C   UNL     1       6.419   4.382  14.932  0.00  0.00    +0.000 A 
ATOM     23  C   UNL     1       7.441   4.627  15.849  0.00  0.00    +0.000 A 
ATOM     24  C   UNL     1       7.109   4.979  17.170  0.00  0.00    +0.000 A 
ATOM     25  C   UNL     1       7.880   5.294  18.324  0.00  0.00    +0.000 A 
ATOM     26  C   UNL     1       7.006   5.529  19.360  0.00  0.00    +0.000 A 
ATOM     27  N   UNL     1       5.738   5.336  18.886  0.00  0.00    +0.000 N 
ATOM     28  C   UNL     1       5.764   5.008  17.546  0.00  0.00    +0.000 A 
ATOM     29  H   UNL     1       4.896   5.404  19.438  0.00  0.00    +0.000 HD
ENDBRANCH  18  20
ENDBRANCH   9  18
TORSDOF 4
ENDMDL
MODEL 7
REMARK VINA RESULT:      -7.5      3.003      4.271
REMARK  Name = 
REMARK  4 active torsions:
REMARK  status: ('A' for Active; 'I' for Inactive)
REMARK    1  A    between atoms: C_2  and  C_3
REMARK    2  A    between atoms: C_8  and  C_9
REMARK    3  A    between atoms: C_17  and  N_18
REMARK    4  A    between atoms: N_18  and  C_19
REMARK                            x       y       z     vdW  Elec       q    Type
REMARK                         _______ _______ _______ _____ _____    ______ ____
ROOT
ATOM      1  C   UNL     1      -0.126  10.501  20.727  0.00  0.00    +0.000 A 
ATOM      2  C   UNL     1      -0.024   9.511  21.693  0.00  0.00    +0.000 A 
ATOM      3  N   UNL     1       0.692   8.384  21.585  0.00  0.00    +0.000 NA
ATOM      4  C   UNL     1       1.318   8.253  20.406  0.00  0.00    +0.000 A 
ATOM      5  S   UNL     1       2.194   6.843  20.096  0.00  0.00    +0.000 S 
ATOM      6  C   UNL     1       2.671   7.387  18.546  0.00  0.00    +0.000 A 
ATOM      7  C   UNL     1       2.146   8.642  18.282  0.00  0.00    +0.000 A 
ATOM      8  C   UNL     1       1.329   9.159  19.352  0.00  0.00    +0.000 A 
ATOM      9  C   UNL     1       0.593  10.373  19.513  0.00  0.00    +0.000 A 
ENDROOT
BRANCH   6  10
ATOM     10  C   UNL     1       3.518   6.532  17.703  0.00  0.00    +0.000 A 
ATOM     11  C   UNL     1       3.387   5.138  17.750  0.00  0.00    +0.000 A 
ATOM     12  C   UNL     1       4.169   4.323  16.931  0.00  0.00    +0.000 A 
ATOM     13  C   UNL     1       5.093   4.891  16.056  0.00  0.00    +0.000 A 
ATOM     14  C   UNL     1       5.243   6.273  16.003  0.00  0.00    +0.000 A 
ATOM     15  C   UNL     1       4.460   7.085  16.819  0.00  0.00    +0.000 A 
ENDBRANCH   6  10
BRANCH   1  17
ATOM     16  N   UNL     1      -1.904  12.321  21.210  0.00  0.00    +0.000 NA
ATOM     17  C   UNL     1      -1.061  11.547  21.033  0.00  0.00    +0.000 C 
ENDBRANCH   1  17
BRANCH   9  18
ATOM     18  N   UNL     1       0.592  11.342  18.488  0.00  0.00    +0.000 N 
ATOM     19  H   UNL     1       0.084  11.103  17.645  0.00  0.00    +0.000 HD
BRANCH  18  20
ATOM     20  C   UNL     1       1.305  12.546  18.400  0.00  0.00    +0.000 A 
ATOM     21  C   UNL     1       2.685  12.570  18.122  0.00  0.00    +0.000 A 
ATOM     22  C   UNL     1       3.442  13.729  18.243  0.00  0.00    +0.000 A 
ATOM     23  C   UNL     1       2.837  14.932  18.606  0.00  0.00    +0.000 A 
ATOM     24  C   UNL     1       1.442  14.972  18.786  0.00  0.00    +0.000 A 
ATOM     25  C   UNL     1       0.528  16.004  19.140  0.00  0.00    +0.000 A 
ATOM     26  C   UNL     1      -0.729  15.449  19.198  0.00  0.00    +0.000 A 
ATOM     27  N   UNL     1      -0.606  14.114  18.926  0.00  0.00    +0.000 N 
ATOM     28  C   UNL     1       0.708  13.790  18.659  0.00  0.00    +0.000 A 
ATOM     29  H   UNL     1      -1.365  13.448  18.935  0.00  0.00    +0.000 HD
ENDBRANCH  18  20
ENDBRANCH   9  18
TORSDOF 4
ENDMDL
MODEL 8
REMARK VINA RESULT:      -7.4      5.330      9.970
REMARK  Name = 
REMARK  4 active torsions:
REMARK  status: ('A' for Active; 'I' for Inactive)
REMARK    1  A    between atoms: C_2  and  C_3
REMARK    2  A    between atoms: C_8  and  C_9
REMARK    3  A    between atoms: C_17  and  N_18
REMARK    4  A    between atoms: N_18  and  C_19
REMARK                            x       y       z     vdW  Elec       q    Type
REMARK                         _______ _______ _______ _____ _____    ______ ____
ROOT
ATOM      1  C   UNL     1       4.112   2.296  20.564  0.00  0.00    +0.000 A 
ATOM      2  C   UNL     1       3.150   2.401  21.558  0.00  0.00    +0.000 A 
ATOM      3  N   UNL     1       2.329   3.444  21.744  0.00  0.00    +0.000 NA
ATOM      4  C   UNL     1       2.526   4.448  20.877  0.00  0.00    +0.000 A 
ATOM      5  S   UNL     1       1.619   5.863  21.040  0.00  0.00    +0.000 S 
ATOM      6  C   UNL     1       2.359   6.588  19.680  0.00  0.00    +0.000 A 
ATOM      7  C   UNL     1       3.300   5.739  19.120  0.00  0.00    +0.000 A 
ATOM      8  C   UNL     1       3.431   4.485  19.822  0.00  0.00    +0.000 A 
ATOM      9  C   UNL     1       4.262   3.341  19.619  0.00  0.00    +0.000 A 
ENDROOT
BRANCH   6  10
ATOM     10  C   UNL     1       1.964   7.944  19.273  0.00  0.00    +0.000 A 
ATOM     11  C   UNL     1       2.325   8.440  18.014  0.00  0.00    +0.000 A 
ATOM     12  C   UNL     1       1.929   9.717  17.613  0.00  0.00    +0.000 A 
ATOM     13  C   UNL     1       1.168  10.513  18.466  0.00  0.00    +0.000 A 
ATOM     14  C   UNL     1       0.809  10.040  19.724  0.00  0.00    +0.000 A 
ATOM     15  C   UNL     1       1.203   8.766  20.122  0.00  0.00    +0.000 A 
ENDBRANCH   6  10
BRANCH   1  17
ATOM     16  N   UNL     1       5.649   0.234  20.863  0.00  0.00    +0.000 NA
ATOM     17  C   UNL     1       4.951   1.135  20.660  0.00  0.00    +0.000 C 
ENDBRANCH   1  17
BRANCH   9  18
ATOM     18  N   UNL     1       5.178   3.312  18.547  0.00  0.00    +0.000 N 
ATOM     19  H   UNL     1       5.313   2.415  18.098  0.00  0.00    +0.000 HD
BRANCH  18  20
ATOM     20  C   UNL     1       6.042   4.315  18.086  0.00  0.00    +0.000 A 
ATOM     21  C   UNL     1       6.579   5.285  18.954  0.00  0.00    +0.000 A 
ATOM     22  C   UNL     1       7.258   6.402  18.482  0.00  0.00    +0.000 A 
ATOM     23  C   UNL     1       7.468   6.575  17.114  0.00  0.00    +0.000 A 
ATOM     24  C   UNL     1       7.042   5.573  16.223  0.00  0.00    +0.000 A 
ATOM     25  C   UNL     1       7.103   5.428  14.808  0.00  0.00    +0.000 A 
ATOM     26  C   UNL     1       6.490   4.241  14.482  0.00  0.00    +0.000 A 
ATOM     27  N   UNL     1       6.032   3.678  15.640  0.00  0.00    +0.000 N 
ATOM     28  C   UNL     1       6.361   4.462  16.727  0.00  0.00    +0.000 A 
ATOM     29  H   UNL     1       5.508   2.817  15.699  0.00  0.00    +0.000 HD
ENDBRANCH  18  20
ENDBRANCH   9  18
TORSDOF 4
ENDMDL
MODEL 9
REMARK VINA RESULT:      -7.4      5.452      9.758
REMARK  Name = 
REMARK  4 active torsions:
REMARK  status: ('A' for Active; 'I' for Inactive)
REMARK    1  A    between atoms: C_2  and  C_3
REMARK    2  A    between atoms: C_8  and  C_9
REMARK    3  A    between atoms: C_17  and  N_18
REMARK    4  A    between atoms: N_18  and  C_19
REMARK                            x       y       z     vdW  Elec       q    Type
REMARK                         _______ _______ _______ _____ _____    ______ ____
ROOT
ATOM      1  C   UNL     1       4.213   2.223  20.680  0.00  0.00    +0.000 A 
ATOM      2  C   UNL     1       3.054   2.231  21.441  0.00  0.00    +0.000 A 
ATOM      3  N   UNL     1       2.156   3.224  21.487  0.00  0.00    +0.000 NA
ATOM      4  C   UNL     1       2.482   4.282  20.730  0.00  0.00    +0.000 A 
ATOM      5  S   UNL     1       1.484   5.644  20.751  0.00  0.00    +0.000 S 
ATOM      6  C   UNL     1       2.462   6.476  19.621  0.00  0.00    +0.000 A 
ATOM      7  C   UNL     1       3.548   5.701  19.246  0.00  0.00    +0.000 A 
ATOM      8  C   UNL     1       3.592   4.417  19.903  0.00  0.00    +0.000 A 
ATOM      9  C   UNL     1       4.508   3.324  19.839  0.00  0.00    +0.000 A 
ENDROOT
BRANCH   6  10
ATOM     10  C   UNL     1       2.092   7.833  19.198  0.00  0.00    +0.000 A 
ATOM     11  C   UNL     1       1.318   8.649  20.031  0.00  0.00    +0.000 A 
ATOM     12  C   UNL     1       0.987   9.949  19.645  0.00  0.00    +0.000 A 
ATOM     13  C   UNL     1       1.426  10.448  18.421  0.00  0.00    +0.000 A 
ATOM     14  C   UNL     1       2.188   9.649  17.576  0.00  0.00    +0.000 A 
ATOM     15  C   UNL     1       2.519   8.353  17.963  0.00  0.00    +0.000 A 
ENDBRANCH   6  10
BRANCH   1  17
ATOM     16  N   UNL     1       5.846   0.238  20.997  0.00  0.00    +0.000 NA
ATOM     17  C   UNL     1       5.074   1.096  20.907  0.00  0.00    +0.000 C 
ENDBRANCH   1  17
BRANCH   9  18
ATOM     18  N   UNL     1       5.636   3.394  18.995  0.00  0.00    +0.000 N 
ATOM     19  H   UNL     1       6.195   2.553  18.923  0.00  0.00    +0.000 HD
BRANCH  18  20
ATOM     20  C   UNL     1       6.187   4.501  18.335  0.00  0.00    +0.000 A 
ATOM     21  C   UNL     1       6.969   5.454  19.014  0.00  0.00    +0.000 A 
ATOM     22  C   UNL     1       7.340   6.658  18.428  0.00  0.00    +0.000 A 
ATOM     23  C   UNL     1       6.978   6.943  17.112  0.00  0.00    +0.000 A 
ATOM     24  C   UNL     1       6.290   5.970  16.363  0.00  0.00    +0.000 A 
ATOM     25  C   UNL     1       5.791   5.929  15.031  0.00  0.00    +0.000 A 
ATOM     26  C   UNL     1       5.167   4.717  14.854  0.00  0.00    +0.000 A 
ATOM     27  N   UNL     1       5.240   4.035  16.038  0.00  0.00    +0.000 N 
ATOM     28  C   UNL     1       5.930   4.769  16.980  0.00  0.00    +0.000 A 
ATOM     29  H   UNL     1       4.833   3.128  16.211  0.00  0.00    +0.000 HD
ENDBRANCH  18  20
ENDBRANCH   9  18
TORSDOF 4
ENDMDL
