MODEL 1
REMARK VINA RESULT:      -7.6      0.000      0.000
REMARK  Name = 
REMARK  6 active torsions:
REMARK  status: ('A' for Active; 'I' for Inactive)
REMARK    1  A    between atoms: C_1  and  C_2
REMARK    2  A    between atoms: C_2  and  C_3
REMARK    3  A    between atoms: C_2  and  C_4
REMARK    4  A    between atoms: C_10  and  C_11
REMARK    5  A    between atoms: C_11  and  C_12
REMARK    6  A    between atoms: C_15  and  C_16
REMARK                            x       y       z     vdW  Elec       q    Type
REMARK                         _______ _______ _______ _____ _____    ______ ____
ROOT
ATOM      1  C   UNL     1       5.064   3.984  19.092  0.00  0.00    +0.000 C 
ENDROOT
BRANCH   1   8
ATOM      2  C   UNL     1       2.879   6.190  18.583  0.00  0.00    +0.000 C 
ATOM      3  O   UNL     1       3.909   6.494  17.978  0.00  0.00    +0.000 OA
ATOM      4  N   UNL     1       2.659   4.893  19.003  0.00  0.00    +0.000 N 
ATOM      5  C   UNL     1       1.422   4.361  19.541  0.00  0.00    +0.000 C 
ATOM      6  C   UNL     1       1.849   3.084  20.232  0.00  0.00    +0.000 C 
ATOM      7  C   UNL     1       2.928   2.542  19.303  0.00  0.00    +0.000 C 
ATOM      8  C   UNL     1       3.591   3.798  18.687  0.00  0.00    +0.000 C 
BRANCH   2  10
ATOM      9  C   UNL     1       1.967   7.726  20.361  0.00  0.00    +0.000 C 
ATOM     10  C   UNL     1       1.817   7.252  18.911  0.00  0.00    +0.000 C 
ATOM     11  C   UNL     1       1.927   8.461  17.982  0.00  0.00    +0.000 C 
ENDBRANCH   2  10
ENDBRANCH   1   8
BRANCH   1  12
ATOM     12  C   UNL     1       5.993   4.249  17.967  0.00  0.00    +0.000 A 
ATOM     13  N   UNL     1       7.279   4.580  18.140  0.00  0.00    +0.000 NA
ATOM     14  O   UNL     1       7.745   4.745  16.831  0.00  0.00    +0.000 OA
ATOM     15  C   UNL     1       6.682   4.512  16.006  0.00  0.00    +0.000 A 
ATOM     16  N   UNL     1       5.574   4.235  16.663  0.00  0.00    +0.000 NA
BRANCH  15  17
ATOM     17  C   UNL     1       6.912   4.560  14.579  0.00  0.00    +0.000 A 
ATOM     18  C   UNL     1       6.204   3.722  13.722  0.00  0.00    +0.000 A 
ATOM     19  N   UNL     1       6.407   3.699  12.380  0.00  0.00    +0.000 NA
ATOM     20  C   UNL     1       7.351   4.552  11.927  0.00  0.00    +0.000 A 
ATOM     21  C   UNL     1       8.058   5.395  12.773  0.00  0.00    +0.000 A 
ATOM     22  N   UNL     1       7.858   5.417  14.108  0.00  0.00    +0.000 NA
ENDBRANCH  15  17
ENDBRANCH   1  12
TORSDOF 4
ENDMDL
MODEL 2
REMARK VINA RESULT:      -7.3      3.340      8.257
REMARK  Name = 
REMARK  6 active torsions:
REMARK  status: ('A' for Active; 'I' for Inactive)
REMARK    1  A    between atoms: C_1  and  C_2
REMARK    2  A    between atoms: C_2  and  C_3
REMARK    3  A    between atoms: C_2  and  C_4
REMARK    4  A    between atoms: C_10  and  C_11
REMARK    5  A    between atoms: C_11  and  C_12
REMARK    6  A    between atoms: C_15  and  C_16
REMARK                            x       y       z     vdW  Elec       q    Type
REMARK                         _______ _______ _______ _____ _____    ______ ____
ROOT
ATOM      1  C   UNL     1       3.047   7.497  17.492  0.00  0.00    +0.000 C 
ENDROOT
BRANCH   1   8
ATOM      2  C   UNL     1       5.552   5.594  17.412  0.00  0.00    +0.000 C 
ATOM      3  O   UNL     1       5.930   6.753  17.588  0.00  0.00    +0.000 OA
ATOM      4  N   UNL     1       4.245   5.227  17.670  0.00  0.00    +0.000 N 
ATOM      5  C   UNL     1       3.721   3.875  17.699  0.00  0.00    +0.000 C 
ATOM      6  C   UNL     1       2.225   4.067  17.576  0.00  0.00    +0.000 C 
ATOM      7  C   UNL     1       1.976   5.325  18.399  0.00  0.00    +0.000 C 
ATOM      8  C   UNL     1       3.265   6.167  18.237  0.00  0.00    +0.000 C 
BRANCH   2  10
ATOM      9  C   UNL     1       6.858   4.799  15.409  0.00  0.00    +0.000 C 
ATOM     10  C   UNL     1       6.517   4.523  16.878  0.00  0.00    +0.000 C 
ATOM     11  C   UNL     1       7.813   4.482  17.687  0.00  0.00    +0.000 C 
ENDBRANCH   2  10
ENDBRANCH   1   8
BRANCH   1  12
ATOM     12  C   UNL     1       2.141   8.453  18.171  0.00  0.00    +0.000 A 
ATOM     13  N   UNL     1       1.484   9.426  17.527  0.00  0.00    +0.000 NA
ATOM     14  O   UNL     1       0.782  10.071  18.552  0.00  0.00    +0.000 OA
ATOM     15  C   UNL     1       1.105   9.425  19.712  0.00  0.00    +0.000 A 
ATOM     16  N   UNL     1       1.964   8.442  19.530  0.00  0.00    +0.000 NA
BRANCH  15  17
ATOM     17  C   UNL     1       0.457   9.861  20.929  0.00  0.00    +0.000 A 
ATOM     18  C   UNL     1       0.849   9.344  22.160  0.00  0.00    +0.000 A 
ATOM     19  N   UNL     1       0.251   9.691  23.329  0.00  0.00    +0.000 NA
ATOM     20  C   UNL     1      -0.760  10.579  23.215  0.00  0.00    +0.000 A 
ATOM     21  C   UNL     1      -1.154  11.104  21.993  0.00  0.00    +0.000 A 
ATOM     22  N   UNL     1      -0.560  10.758  20.830  0.00  0.00    +0.000 NA
ENDBRANCH  15  17
ENDBRANCH   1  12
TORSDOF 4
ENDMDL
MODEL 3
REMARK VINA RESULT:      -7.3      0.966      1.274
REMARK  Name = 
REMARK  6 active torsions:
REMARK  status: ('A' for Active; 'I' for Inactive)
REMARK    1  A    between atoms: C_1  and  C_2
REMARK    2  A    between atoms: C_2  and  C_3
REMARK    3  A    between atoms: C_2  and  C_4
REMARK    4  A    between atoms: C_10  and  C_11
REMARK    5  A    between atoms: C_11  and  C_12
REMARK    6  A    between atoms: C_15  and  C_16
REMARK                            x       y       z     vdW  Elec       q    Type
REMARK                         _______ _______ _______ _____ _____    ______ ____
ROOT
ATOM      1  C   UNL     1       5.302   5.197  19.227  0.00  0.00    +0.000 C 
ENDROOT
BRANCH   1   8
ATOM      2  C   UNL     1       2.772   6.987  18.682  0.00  0.00    +0.000 C 
ATOM      3  O   UNL     1       3.667   7.303  17.897  0.00  0.00    +0.000 OA
ATOM      4  N   UNL     1       2.795   5.769  19.333  0.00  0.00    +0.000 N 
ATOM      5  C   UNL     1       1.722   5.191  20.118  0.00  0.00    +0.000 C 
ATOM      6  C   UNL     1       2.411   4.122  20.938  0.00  0.00    +0.000 C 
ATOM      7  C   UNL     1       3.441   3.561  19.966  0.00  0.00    +0.000 C 
ATOM      8  C   UNL     1       3.835   4.760  19.069  0.00  0.00    +0.000 C 
BRANCH   2  10
ATOM      9  C   UNL     1       1.716   8.484  20.413  0.00  0.00    +0.000 C 
ATOM     10  C   UNL     1       1.611   7.949  18.980  0.00  0.00    +0.000 C 
ATOM     11  C   UNL     1       1.599   9.132  18.012  0.00  0.00    +0.000 C 
ENDBRANCH   2  10
ENDBRANCH   1   8
BRANCH   1  12
ATOM     12  C   UNL     1       6.169   4.913  18.058  0.00  0.00    +0.000 A 
ATOM     13  N   UNL     1       7.457   4.564  18.167  0.00  0.00    +0.000 NA
ATOM     14  O   UNL     1       7.862   4.417  16.836  0.00  0.00    +0.000 OA
ATOM     15  C   UNL     1       6.775   4.711  16.062  0.00  0.00    +0.000 A 
ATOM     16  N   UNL     1       5.718   5.053  16.772  0.00  0.00    +0.000 NA
BRANCH  15  17
ATOM     17  C   UNL     1       6.910   4.573  14.629  0.00  0.00    +0.000 A 
ATOM     18  C   UNL     1       7.740   5.431  13.914  0.00  0.00    +0.000 A 
ATOM     19  N   UNL     1       7.877   5.370  12.565  0.00  0.00    +0.000 NA
ATOM     20  C   UNL     1       7.145   4.411  11.956  0.00  0.00    +0.000 A 
ATOM     21  C   UNL     1       6.319   3.547  12.662  0.00  0.00    +0.000 A 
ATOM     22  N   UNL     1       6.182   3.609  14.004  0.00  0.00    +0.000 NA
ENDBRANCH  15  17
ENDBRANCH   1  12
TORSDOF 4
ENDMDL
MODEL 4
REMARK VINA RESULT:      -7.3      1.617      2.949
REMARK  Name = 
REMARK  6 active torsions:
REMARK  status: ('A' for Active; 'I' for Inactive)
REMARK    1  A    between atoms: C_1  and  C_2
REMARK    2  A    between atoms: C_2  and  C_3
REMARK    3  A    between atoms: C_2  and  C_4
REMARK    4  A    between atoms: C_10  and  C_11
REMARK    5  A    between atoms: C_11  and  C_12
REMARK    6  A    between atoms: C_15  and  C_16
REMARK                            x       y       z     vdW  Elec       q    Type
REMARK                         _______ _______ _______ _____ _____    ______ ____
ROOT
ATOM      1  C   UNL     1       6.252   4.952  19.223  0.00  0.00    +0.000 C 
ENDROOT
BRANCH   1   8
ATOM      2  C   UNL     1       3.859   2.925  19.486  0.00  0.00    +0.000 C 
ATOM      3  O   UNL     1       4.805   2.524  20.166  0.00  0.00    +0.000 OA
ATOM      4  N   UNL     1       3.782   4.245  19.085  0.00  0.00    +0.000 N 
ATOM      5  C   UNL     1       2.643   4.889  18.461  0.00  0.00    +0.000 C 
ATOM      6  C   UNL     1       3.230   6.140  17.844  0.00  0.00    +0.000 C 
ATOM      7  C   UNL     1       4.266   6.571  18.875  0.00  0.00    +0.000 C 
ATOM      8  C   UNL     1       4.769   5.251  19.509  0.00  0.00    +0.000 C 
BRANCH   2  10
ATOM      9  C   UNL     1       1.426   2.315  19.737  0.00  0.00    +0.000 C 
ATOM     10  C   UNL     1       2.746   1.963  19.041  0.00  0.00    +0.000 C 
ATOM     11  C   UNL     1       2.535   2.010  17.528  0.00  0.00    +0.000 C 
ENDBRANCH   2  10
ENDBRANCH   1   8
BRANCH   1  12
ATOM     12  C   UNL     1       6.700   5.267  17.846  0.00  0.00    +0.000 A 
ATOM     13  N   UNL     1       7.504   6.296  17.552  0.00  0.00    +0.000 NA
ATOM     14  O   UNL     1       7.639   6.210  16.162  0.00  0.00    +0.000 OA
ATOM     15  C   UNL     1       6.886   5.143  15.762  0.00  0.00    +0.000 A 
ATOM     16  N   UNL     1       6.264   4.551  16.762  0.00  0.00    +0.000 NA
BRANCH  15  17
ATOM     17  C   UNL     1       6.903   4.795  14.359  0.00  0.00    +0.000 A 
ATOM     18  C   UNL     1       6.106   3.758  13.880  0.00  0.00    +0.000 A 
ATOM     19  N   UNL     1       6.110   3.366  12.581  0.00  0.00    +0.000 NA
ATOM     20  C   UNL     1       6.947   4.055  11.775  0.00  0.00    +0.000 A 
ATOM     21  C   UNL     1       7.740   5.094  12.242  0.00  0.00    +0.000 A 
ATOM     22  N   UNL     1       7.737   5.483  13.535  0.00  0.00    +0.000 NA
ENDBRANCH  15  17
ENDBRANCH   1  12
TORSDOF 4
ENDMDL
MODEL 5
REMARK VINA RESULT:      -7.2      3.310      8.208
REMARK  Name = 
REMARK  6 active torsions:
REMARK  status: ('A' for Active; 'I' for Inactive)
REMARK    1  A    between atoms: C_1  and  C_2
REMARK    2  A    between atoms: C_2  and  C_3
REMARK    3  A    between atoms: C_2  and  C_4
REMARK    4  A    between atoms: C_10  and  C_11
REMARK    5  A    between atoms: C_11  and  C_12
REMARK    6  A    between atoms: C_15  and  C_16
REMARK                            x       y       z     vdW  Elec       q    Type
REMARK                         _______ _______ _______ _____ _____    ______ ____
ROOT
ATOM      1  C   UNL     1       2.962   7.433  17.367  0.00  0.00    +0.000 C 
ENDROOT
BRANCH   1   8
ATOM      2  C   UNL     1       5.522   5.603  17.385  0.00  0.00    +0.000 C 
ATOM      3  O   UNL     1       5.859   6.771  17.584  0.00  0.00    +0.000 OA
ATOM      4  N   UNL     1       4.217   5.197  17.583  0.00  0.00    +0.000 N 
ATOM      5  C   UNL     1       3.730   3.831  17.580  0.00  0.00    +0.000 C 
ATOM      6  C   UNL     1       2.236   3.981  17.394  0.00  0.00    +0.000 C 
ATOM      7  C   UNL     1       1.916   5.225  18.213  0.00  0.00    +0.000 C 
ATOM      8  C   UNL     1       3.186   6.105  18.113  0.00  0.00    +0.000 C 
BRANCH   2  10
ATOM      9  C   UNL     1       6.900   4.832  15.420  0.00  0.00    +0.000 C 
ATOM     10  C   UNL     1       6.540   4.564  16.886  0.00  0.00    +0.000 C 
ATOM     11  C   UNL     1       7.819   4.586  17.722  0.00  0.00    +0.000 C 
ENDBRANCH   2  10
ENDBRANCH   1   8
BRANCH   1  12
ATOM     12  C   UNL     1       2.213   8.460  18.130  0.00  0.00    +0.000 A 
ATOM     13  N   UNL     1       1.929   9.674  17.643  0.00  0.00    +0.000 NA
ATOM     14  O   UNL     1       1.242  10.288  18.696  0.00  0.00    +0.000 OA
ATOM     15  C   UNL     1       1.199   9.381  19.716  0.00  0.00    +0.000 A 
ATOM     16  N   UNL     1       1.814   8.252  19.424  0.00  0.00    +0.000 NA
BRANCH  15  17
ATOM     17  C   UNL     1       0.481   9.749  20.916  0.00  0.00    +0.000 A 
ATOM     18  C   UNL     1      -0.465  10.769  20.886  0.00  0.00    +0.000 A 
ATOM     19  N   UNL     1      -1.141  11.179  21.990  0.00  0.00    +0.000 NA
ATOM     20  C   UNL     1      -0.832  10.524  23.130  0.00  0.00    +0.000 A 
ATOM     21  C   UNL     1       0.105   9.501  23.168  0.00  0.00    +0.000 A 
ATOM     22  N   UNL     1       0.779   9.094  22.070  0.00  0.00    +0.000 NA
ENDBRANCH  15  17
ENDBRANCH   1  12
TORSDOF 4
ENDMDL
MODEL 6
REMARK VINA RESULT:      -7.2      1.437      2.879
REMARK  Name = 
REMARK  6 active torsions:
REMARK  status: ('A' for Active; 'I' for Inactive)
REMARK    1  A    between atoms: C_1  and  C_2
REMARK    2  A    between atoms: C_2  and  C_3
REMARK    3  A    between atoms: C_2  and  C_4
REMARK    4  A    between atoms: C_10  and  C_11
REMARK    5  A    between atoms: C_11  and  C_12
REMARK    6  A    between atoms: C_15  and  C_16
REMARK                            x       y       z     vdW  Elec       q    Type
REMARK                         _______ _______ _______ _____ _____    ______ ____
ROOT
ATOM      1  C   UNL     1       5.647   4.637  19.057  0.00  0.00    +0.000 C 
ENDROOT
BRANCH   1   8
ATOM      2  C   UNL     1       2.874   3.712  20.221  0.00  0.00    +0.000 C 
ATOM      3  O   UNL     1       3.780   3.173  20.859  0.00  0.00    +0.000 OA
ATOM      4  N   UNL     1       3.114   4.840  19.462  0.00  0.00    +0.000 N 
ATOM      5  C   UNL     1       2.116   5.682  18.831  0.00  0.00    +0.000 C 
ATOM      6  C   UNL     1       2.902   6.462  17.800  0.00  0.00    +0.000 C 
ATOM      7  C   UNL     1       4.224   6.725  18.510  0.00  0.00    +0.000 C 
ATOM      8  C   UNL     1       4.430   5.501  19.434  0.00  0.00    +0.000 C 
BRANCH   2  10
ATOM      9  C   UNL     1       1.299   2.069  19.137  0.00  0.00    +0.000 C 
ATOM     10  C   UNL     1       1.451   3.131  20.233  0.00  0.00    +0.000 C 
ATOM     11  C   UNL     1       1.113   2.500  21.583  0.00  0.00    +0.000 C 
ENDBRANCH   2  10
ENDBRANCH   1   8
BRANCH   1  12
ATOM     12  C   UNL     1       6.302   5.003  17.779  0.00  0.00    +0.000 A 
ATOM     13  N   UNL     1       7.251   5.942  17.682  0.00  0.00    +0.000 NA
ATOM     14  O   UNL     1       7.552   5.953  16.316  0.00  0.00    +0.000 OA
ATOM     15  C   UNL     1       6.738   5.027  15.729  0.00  0.00    +0.000 A 
ATOM     16  N   UNL     1       5.928   4.440  16.587  0.00  0.00    +0.000 NA
BRANCH  15  17
ATOM     17  C   UNL     1       6.894   4.794  14.310  0.00  0.00    +0.000 A 
ATOM     18  C   UNL     1       6.158   3.799  13.674  0.00  0.00    +0.000 A 
ATOM     19  N   UNL     1       6.290   3.514  12.353  0.00  0.00    +0.000 NA
ATOM     20  C   UNL     1       7.195   4.269  11.692  0.00  0.00    +0.000 A 
ATOM     21  C   UNL     1       7.930   5.267  12.316  0.00  0.00    +0.000 A 
ATOM     22  N   UNL     1       7.798   5.549  13.630  0.00  0.00    +0.000 NA
ENDBRANCH  15  17
ENDBRANCH   1  12
TORSDOF 4
ENDMDL
MODEL 7
REMARK VINA RESULT:      -7.1      2.493      6.304
REMARK  Name = 
REMARK  6 active torsions:
REMARK  status: ('A' for Active; 'I' for Inactive)
REMARK    1  A    between atoms: C_1  and  C_2
REMARK    2  A    between atoms: C_2  and  C_3
REMARK    3  A    between atoms: C_2  and  C_4
REMARK    4  A    between atoms: C_10  and  C_11
REMARK    5  A    between atoms: C_11  and  C_12
REMARK    6  A    between atoms: C_15  and  C_16
REMARK                            x       y       z     vdW  Elec       q    Type
REMARK                         _______ _______ _______ _____ _____    ______ ____
ROOT
ATOM      1  C   UNL     1       3.966   3.605  20.269  0.00  0.00    +0.000 C 
ENDROOT
BRANCH   1   8
ATOM      2  C   UNL     1       5.873   4.565  17.957  0.00  0.00    +0.000 C 
ATOM      3  O   UNL     1       6.504   4.532  19.015  0.00  0.00    +0.000 OA
ATOM      4  N   UNL     1       4.691   3.864  17.814  0.00  0.00    +0.000 N 
ATOM      5  C   UNL     1       3.960   3.654  16.579  0.00  0.00    +0.000 C 
ATOM      6  C   UNL     1       2.580   3.241  17.045  0.00  0.00    +0.000 C 
ATOM      7  C   UNL     1       2.878   2.382  18.267  0.00  0.00    +0.000 C 
ATOM      8  C   UNL     1       4.167   2.986  18.874  0.00  0.00    +0.000 C 
BRANCH   2  10
ATOM      9  C   UNL     1       7.233   6.571  17.267  0.00  0.00    +0.000 C 
ATOM     10  C   UNL     1       6.369   5.406  16.771  0.00  0.00    +0.000 C 
ATOM     11  C   UNL     1       7.187   4.566  15.790  0.00  0.00    +0.000 C 
ENDBRANCH   2  10
ENDBRANCH   1   8
BRANCH   1  12
ATOM     12  C   UNL     1       3.032   4.755  20.314  0.00  0.00    +0.000 A 
ATOM     13  N   UNL     1       1.949   4.792  21.101  0.00  0.00    +0.000 NA
ATOM     14  O   UNL     1       1.379   6.034  20.801  0.00  0.00    +0.000 OA
ATOM     15  C   UNL     1       2.172   6.609  19.850  0.00  0.00    +0.000 A 
ATOM     16  N   UNL     1       3.185   5.844  19.496  0.00  0.00    +0.000 NA
BRANCH  15  17
ATOM     17  C   UNL     1       1.833   7.943  19.405  0.00  0.00    +0.000 A 
ATOM     18  C   UNL     1       2.238   8.392  18.152  0.00  0.00    +0.000 A 
ATOM     19  N   UNL     1       1.978   9.646  17.699  0.00  0.00    +0.000 NA
ATOM     20  C   UNL     1       1.295  10.436  18.556  0.00  0.00    +0.000 A 
ATOM     21  C   UNL     1       0.883   9.995  19.805  0.00  0.00    +0.000 A 
ATOM     22  N   UNL     1       1.142   8.748  20.256  0.00  0.00    +0.000 NA
ENDBRANCH  15  17
ENDBRANCH   1  12
TORSDOF 4
ENDMDL
MODEL 8
REMARK VINA RESULT:      -7.0      2.471      6.292
REMARK  Name = 
REMARK  6 active torsions:
REMARK  status: ('A' for Active; 'I' for Inactive)
REMARK    1  A    between atoms: C_1  and  C_2
REMARK    2  A    between atoms: C_2  and  C_3
REMARK    3  A    between atoms: C_2  and  C_4
REMARK    4  A    between atoms: C_10  and  C_11
REMARK    5  A    between atoms: C_11  and  C_12
REMARK    6  A    between atoms: C_15  and  C_16
REMARK                            x       y       z     vdW  Elec       q    Type
REMARK                         _______ _______ _______ _____ _____    ______ ____
ROOT
ATOM      1  C   UNL     1       4.326   3.814  20.087  0.00  0.00    +0.000 C 
ENDROOT
BRANCH   1   8
ATOM      2  C   UNL     1       5.172   4.111  17.071  0.00  0.00    +0.000 C 
ATOM      3  O   UNL     1       6.134   4.390  17.789  0.00  0.00    +0.000 OA
ATOM      4  N   UNL     1       4.108   3.379  17.560  0.00  0.00    +0.000 N 
ATOM      5  C   UNL     1       3.021   2.817  16.783  0.00  0.00    +0.000 C 
ATOM      6  C   UNL     1       1.952   2.531  17.815  0.00  0.00    +0.000 C 
ATOM      7  C   UNL     1       2.759   2.057  19.016  0.00  0.00    +0.000 C 
ATOM      8  C   UNL     1       4.098   2.829  18.926  0.00  0.00    +0.000 C 
BRANCH   2  10
ATOM      9  C   UNL     1       5.269   6.115  15.545  0.00  0.00    +0.000 C 
ATOM     10  C   UNL     1       5.117   4.591  15.611  0.00  0.00    +0.000 C 
ATOM     11  C   UNL     1       6.217   3.948  14.767  0.00  0.00    +0.000 C 
ENDBRANCH   2  10
ENDBRANCH   1   8
BRANCH   1  12
ATOM     12  C   UNL     1       3.322   4.900  20.192  0.00  0.00    +0.000 A 
ATOM     13  N   UNL     1       2.237   4.824  20.972  0.00  0.00    +0.000 NA
ATOM     14  O   UNL     1       1.591   6.044  20.741  0.00  0.00    +0.000 OA
ATOM     15  C   UNL     1       2.351   6.722  19.831  0.00  0.00    +0.000 A 
ATOM     16  N   UNL     1       3.411   6.042  19.440  0.00  0.00    +0.000 NA
BRANCH  15  17
ATOM     17  C   UNL     1       1.932   8.056  19.463  0.00  0.00    +0.000 A 
ATOM     18  C   UNL     1       1.170   8.822  20.340  0.00  0.00    +0.000 A 
ATOM     19  N   UNL     1       0.719  10.065  20.032  0.00  0.00    +0.000 NA
ATOM     20  C   UNL     1       1.063  10.513  18.804  0.00  0.00    +0.000 A 
ATOM     21  C   UNL     1       1.828   9.758  17.925  0.00  0.00    +0.000 A 
ATOM     22  N   UNL     1       2.275   8.521  18.232  0.00  0.00    +0.000 NA
ENDBRANCH  15  17
ENDBRANCH   1  12
TORSDOF 4
ENDMDL
MODEL 9
REMARK VINA RESULT:      -6.9      4.926      6.663
REMARK  Name = 
REMARK  6 active torsions:
REMARK  status: ('A' for Active; 'I' for Inactive)
REMARK    1  A    between atoms: C_1  and  C_2
REMARK    2  A    between atoms: C_2  and  C_3
REMARK    3  A    between atoms: C_2  and  C_4
REMARK    4  A    between atoms: C_10  and  C_11
REMARK    5  A    between atoms: C_11  and  C_12
REMARK    6  A    between atoms: C_15  and  C_16
REMARK                            x       y       z     vdW  Elec       q    Type
REMARK                         _______ _______ _______ _____ _____    ______ ____
ROOT
ATOM      1  C   UNL     1       7.435   6.096  17.940  0.00  0.00    +0.000 C 
ENDROOT
BRANCH   1   8
ATOM      2  C   UNL     1       4.876   4.350  18.488  0.00  0.00    +0.000 C 
ATOM      3  O   UNL     1       4.981   5.202  19.372  0.00  0.00    +0.000 OA
ATOM      4  N   UNL     1       5.533   4.494  17.282  0.00  0.00    +0.000 N 
ATOM      5  C   UNL     1       5.342   3.681  16.096  0.00  0.00    +0.000 C 
ATOM      6  C   UNL     1       6.576   3.961  15.266  0.00  0.00    +0.000 C 
ATOM      7  C   UNL     1       6.821   5.444  15.514  0.00  0.00    +0.000 C 
ATOM      8  C   UNL     1       6.321   5.695  16.957  0.00  0.00    +0.000 C 
BRANCH   2  10
ATOM      9  C   UNL     1       4.300   2.499  20.099  0.00  0.00    +0.000 C 
ATOM     10  C   UNL     1       4.028   3.087  18.710  0.00  0.00    +0.000 C 
ATOM     11  C   UNL     1       2.534   3.385  18.584  0.00  0.00    +0.000 C 
ENDBRANCH   2  10
ENDBRANCH   1   8
BRANCH   1  12
ATOM     12  C   UNL     1       7.750   7.545  17.971  0.00  0.00    +0.000 A 
ATOM     13  N   UNL     1       7.178   8.438  17.154  0.00  0.00    +0.000 NA
ATOM     14  O   UNL     1       7.781   9.644  17.528  0.00  0.00    +0.000 OA
ATOM     15  C   UNL     1       8.668   9.346  18.522  0.00  0.00    +0.000 A 
ATOM     16  N   UNL     1       8.706   8.059  18.806  0.00  0.00    +0.000 NA
BRANCH  15  17
ATOM     17  C   UNL     1       9.388  10.441  19.134  0.00  0.00    +0.000 A 
ATOM     18  C   UNL     1      10.238  11.238  18.374  0.00  0.00    +0.000 A 
ATOM     19  N   UNL     1      10.965  12.255  18.903  0.00  0.00    +0.000 NA
ATOM     20  C   UNL     1      10.807  12.442  20.232  0.00  0.00    +0.000 A 
ATOM     21  C   UNL     1       9.957  11.656  20.997  0.00  0.00    +0.000 A 
ATOM     22  N   UNL     1       9.235  10.644  20.470  0.00  0.00    +0.000 NA
ENDBRANCH  15  17
ENDBRANCH   1  12
TORSDOF 4
ENDMDL
