MODEL 1
REMARK VINA RESULT:      -8.0      0.000      0.000
REMARK  Name = 
REMARK  5 active torsions:
REMARK  status: ('A' for Active; 'I' for Inactive)
REMARK    1  A    between atoms: C_1  and  O_2
REMARK    2  A    between atoms: O_2  and  C_3
REMARK    3  A    between atoms: C_7  and  C_8
REMARK    4  A    between atoms: C_10  and  C_11
REMARK    5  A    between atoms: N_22  and  C_23
REMARK                            x       y       z     vdW  Elec       q    Type
REMARK                         _______ _______ _______ _____ _____    ______ ____
ROOT
ATOM      1  C   UNL     1       2.781   4.864  17.465  0.00  0.00    +0.000 C 
ATOM      2  C   UNL     1       1.743   5.758  18.152  0.00  0.00    +0.000 C 
ATOM      3  C   UNL     1       2.552   7.001  18.311  0.00  0.00    +0.000 C 
ATOM      4  N   UNL     1       3.760   6.971  17.842  0.00  0.00    +0.000 NA
ATOM      5  N   UNL     1       3.955   5.729  17.330  0.00  0.00    +0.000 N 
ENDROOT
BRANCH   3   6
ATOM      6  C   UNL     1       1.991   8.216  18.897  0.00  0.00    +0.000 A 
ATOM      7  C   UNL     1       1.553   9.281  18.108  0.00  0.00    +0.000 A 
ATOM      8  C   UNL     1       0.806  10.299  18.707  0.00  0.00    +0.000 A 
ATOM      9  C   UNL     1       0.515  10.243  20.073  0.00  0.00    +0.000 A 
ATOM     10  C   UNL     1       1.057   9.225  20.858  0.00  0.00    +0.000 A 
ATOM     11  C   UNL     1       1.788   8.204  20.275  0.00  0.00    +0.000 A 
ATOM     12  O   UNL     1       0.868   9.152  22.209  0.00  0.00    +0.000 OA
ATOM     13  C   UNL     1      -0.449   9.610  22.504  0.00  0.00    +0.000 C 
ATOM     14  C   UNL     1      -0.699  11.003  21.942  0.00  0.00    +0.000 C 
ATOM     15  O   UNL     1      -0.352  11.179  20.562  0.00  0.00    +0.000 OA
ENDBRANCH   3   6
BRANCH   1  20
ATOM     16  C   UNL     1       3.008   2.556  20.486  0.00  0.00    +0.000 A 
ATOM     17  C   UNL     1       3.501   1.386  19.913  0.00  0.00    +0.000 A 
ATOM     18  C   UNL     1       3.784   1.329  18.546  0.00  0.00    +0.000 A 
ATOM     19  C   UNL     1       3.556   2.441  17.743  0.00  0.00    +0.000 A 
ATOM     20  C   UNL     1       3.042   3.621  18.299  0.00  0.00    +0.000 A 
ATOM     21  C   UNL     1       2.781   3.670  19.678  0.00  0.00    +0.000 A 
BRANCH  16  23
ATOM     22  C   UNL     1       1.437   2.620  22.266  0.00  0.00    +0.000 C 
ATOM     23  O   UNL     1       2.786   2.493  21.835  0.00  0.00    +0.000 OA
ENDBRANCH  16  23
ENDBRANCH   1  20
BRANCH   5  24
ATOM     24  C   UNL     1       5.116   5.435  16.621  0.00  0.00    +0.000 A 
ATOM     25  C   UNL     1       6.301   5.089  17.296  0.00  0.00    +0.000 A 
ATOM     26  C   UNL     1       7.478   4.772  16.611  0.00  0.00    +0.000 A 
ATOM     27  C   UNL     1       7.500   4.804  15.221  0.00  0.00    +0.000 A 
ATOM     28  C   UNL     1       6.347   5.145  14.524  0.00  0.00    +0.000 A 
ATOM     29  C   UNL     1       5.169   5.451  15.219  0.00  0.00    +0.000 A 
ENDBRANCH   5  24
TORSDOF 4
ENDMDL
MODEL 2
REMARK VINA RESULT:      -7.9      2.901      9.084
REMARK  Name = 
REMARK  5 active torsions:
REMARK  status: ('A' for Active; 'I' for Inactive)
REMARK    1  A    between atoms: C_1  and  O_2
REMARK    2  A    between atoms: O_2  and  C_3
REMARK    3  A    between atoms: C_7  and  C_8
REMARK    4  A    between atoms: C_10  and  C_11
REMARK    5  A    between atoms: N_22  and  C_23
REMARK                            x       y       z     vdW  Elec       q    Type
REMARK                         _______ _______ _______ _____ _____    ______ ____
ROOT
ATOM      1  C   UNL     1       0.745  10.027  18.521  0.00  0.00    +0.000 C 
ATOM      2  C   UNL     1       1.567   9.097  17.621  0.00  0.00    +0.000 C 
ATOM      3  C   UNL     1       2.078   8.145  18.648  0.00  0.00    +0.000 C 
ATOM      4  N   UNL     1       1.693   8.346  19.869  0.00  0.00    +0.000 NA
ATOM      5  N   UNL     1       0.903   9.449  19.858  0.00  0.00    +0.000 N 
ENDROOT
BRANCH   3   6
ATOM      6  C   UNL     1       2.911   6.998  18.289  0.00  0.00    +0.000 A 
ATOM      7  C   UNL     1       2.581   5.698  18.675  0.00  0.00    +0.000 A 
ATOM      8  C   UNL     1       3.272   4.629  18.098  0.00  0.00    +0.000 A 
ATOM      9  C   UNL     1       4.278   4.873  17.158  0.00  0.00    +0.000 A 
ATOM     10  C   UNL     1       4.661   6.183  16.873  0.00  0.00    +0.000 A 
ATOM     11  C   UNL     1       3.976   7.250  17.428  0.00  0.00    +0.000 A 
ATOM     12  O   UNL     1       5.682   6.485  16.016  0.00  0.00    +0.000 OA
ATOM     13  C   UNL     1       5.677   5.533  14.956  0.00  0.00    +0.000 C 
ATOM     14  C   UNL     1       5.746   4.106  15.484  0.00  0.00    +0.000 C 
ATOM     15  O   UNL     1       4.801   3.786  16.514  0.00  0.00    +0.000 OA
ENDBRANCH   3   6
BRANCH   1  20
ATOM     16  C   UNL     1       0.780  13.835  18.512  0.00  0.00    +0.000 A 
ATOM     17  C   UNL     1       2.120  14.106  18.242  0.00  0.00    +0.000 A 
ATOM     18  C   UNL     1       3.029  13.065  18.041  0.00  0.00    +0.000 A 
ATOM     19  C   UNL     1       2.602  11.744  18.129  0.00  0.00    +0.000 A 
ATOM     20  C   UNL     1       1.261  11.452  18.419  0.00  0.00    +0.000 A 
ATOM     21  C   UNL     1       0.355  12.510  18.599  0.00  0.00    +0.000 A 
BRANCH  16  23
ATOM     22  C   UNL     1       0.649  16.167  18.942  0.00  0.00    +0.000 C 
ATOM     23  O   UNL     1      -0.013  14.938  18.672  0.00  0.00    +0.000 OA
ENDBRANCH  16  23
ENDBRANCH   1  20
BRANCH   5  24
ATOM     24  C   UNL     1       0.216   9.834  21.006  0.00  0.00    +0.000 A 
ATOM     25  C   UNL     1       0.452   9.187  22.233  0.00  0.00    +0.000 A 
ATOM     26  C   UNL     1      -0.209   9.562  23.407  0.00  0.00    +0.000 A 
ATOM     27  C   UNL     1      -1.138  10.596  23.378  0.00  0.00    +0.000 A 
ATOM     28  C   UNL     1      -1.397  11.253  22.181  0.00  0.00    +0.000 A 
ATOM     29  C   UNL     1      -0.721  10.877  21.012  0.00  0.00    +0.000 A 
ENDBRANCH   5  24
TORSDOF 4
ENDMDL
MODEL 3
REMARK VINA RESULT:      -7.7      3.423      8.523
REMARK  Name = 
REMARK  5 active torsions:
REMARK  status: ('A' for Active; 'I' for Inactive)
REMARK    1  A    between atoms: C_1  and  O_2
REMARK    2  A    between atoms: O_2  and  C_3
REMARK    3  A    between atoms: C_7  and  C_8
REMARK    4  A    between atoms: C_10  and  C_11
REMARK    5  A    between atoms: N_22  and  C_23
REMARK                            x       y       z     vdW  Elec       q    Type
REMARK                         _______ _______ _______ _____ _____    ______ ____
ROOT
ATOM      1  C   UNL     1      -0.413  10.640  19.869  0.00  0.00    +0.000 C 
ATOM      2  C   UNL     1      -0.219   9.145  20.150  0.00  0.00    +0.000 C 
ATOM      3  C   UNL     1       1.189   8.986  19.684  0.00  0.00    +0.000 C 
ATOM      4  N   UNL     1       1.781  10.055  19.250  0.00  0.00    +0.000 NA
ATOM      5  N   UNL     1       0.881  11.067  19.333  0.00  0.00    +0.000 N 
ENDROOT
BRANCH   3   6
ATOM      6  C   UNL     1       1.892   7.709  19.779  0.00  0.00    +0.000 A 
ATOM      7  C   UNL     1       1.579   6.766  20.760  0.00  0.00    +0.000 A 
ATOM      8  C   UNL     1       2.107   5.477  20.647  0.00  0.00    +0.000 A 
ATOM      9  C   UNL     1       2.937   5.153  19.570  0.00  0.00    +0.000 A 
ATOM     10  C   UNL     1       3.321   6.143  18.666  0.00  0.00    +0.000 A 
ATOM     11  C   UNL     1       2.795   7.420  18.759  0.00  0.00    +0.000 A 
ATOM     12  O   UNL     1       4.184   5.907  17.633  0.00  0.00    +0.000 OA
ATOM     13  C   UNL     1       3.947   4.591  17.139  0.00  0.00    +0.000 C 
ATOM     14  C   UNL     1       4.045   3.551  18.247  0.00  0.00    +0.000 C 
ATOM     15  O   UNL     1       3.288   3.839  19.430  0.00  0.00    +0.000 OA
ENDBRANCH   3   6
BRANCH   1  20
ATOM     16  C   UNL     1      -2.604  10.279  16.774  0.00  0.00    +0.000 A 
ATOM     17  C   UNL     1      -3.635  11.173  17.051  0.00  0.00    +0.000 A 
ATOM     18  C   UNL     1      -3.631  11.920  18.231  0.00  0.00    +0.000 A 
ATOM     19  C   UNL     1      -2.600  11.759  19.151  0.00  0.00    +0.000 A 
ATOM     20  C   UNL     1      -1.563  10.848  18.898  0.00  0.00    +0.000 A 
ATOM     21  C   UNL     1      -1.571  10.119  17.698  0.00  0.00    +0.000 A 
BRANCH  16  23
ATOM     22  C   UNL     1      -3.373  10.311  14.527  0.00  0.00    +0.000 C 
ATOM     23  O   UNL     1      -2.712   9.620  15.580  0.00  0.00    +0.000 OA
ENDBRANCH  16  23
ENDBRANCH   1  20
BRANCH   5  24
ATOM     24  C   UNL     1       1.272  12.378  19.072  0.00  0.00    +0.000 A 
ATOM     25  C   UNL     1       2.393  12.645  18.266  0.00  0.00    +0.000 A 
ATOM     26  C   UNL     1       2.800  13.951  17.973  0.00  0.00    +0.000 A 
ATOM     27  C   UNL     1       2.093  15.029  18.492  0.00  0.00    +0.000 A 
ATOM     28  C   UNL     1       0.981  14.799  19.295  0.00  0.00    +0.000 A 
ATOM     29  C   UNL     1       0.575  13.487  19.575  0.00  0.00    +0.000 A 
ENDBRANCH   5  24
TORSDOF 4
ENDMDL
MODEL 4
REMARK VINA RESULT:      -7.7      3.552      8.569
REMARK  Name = 
REMARK  5 active torsions:
REMARK  status: ('A' for Active; 'I' for Inactive)
REMARK    1  A    between atoms: C_1  and  O_2
REMARK    2  A    between atoms: O_2  and  C_3
REMARK    3  A    between atoms: C_7  and  C_8
REMARK    4  A    between atoms: C_10  and  C_11
REMARK    5  A    between atoms: N_22  and  C_23
REMARK                            x       y       z     vdW  Elec       q    Type
REMARK                         _______ _______ _______ _____ _____    ______ ____
ROOT
ATOM      1  C   UNL     1       0.219  10.258  19.337  0.00  0.00    +0.000 C 
ATOM      2  C   UNL     1       0.555   8.762  19.304  0.00  0.00    +0.000 C 
ATOM      3  C   UNL     1       1.876   8.820  18.614  0.00  0.00    +0.000 C 
ATOM      4  N   UNL     1       2.319   9.998  18.305  0.00  0.00    +0.000 NA
ATOM      5  N   UNL     1       1.379  10.891  18.706  0.00  0.00    +0.000 N 
ENDROOT
BRANCH   3   6
ATOM      6  C   UNL     1       2.668   7.617  18.365  0.00  0.00    +0.000 A 
ATOM      7  C   UNL     1       2.280   6.366  18.849  0.00  0.00    +0.000 A 
ATOM      8  C   UNL     1       2.937   5.227  18.373  0.00  0.00    +0.000 A 
ATOM      9  C   UNL     1       3.965   5.354  17.434  0.00  0.00    +0.000 A 
ATOM     10  C   UNL     1       4.404   6.622  17.051  0.00  0.00    +0.000 A 
ATOM     11  C   UNL     1       3.754   7.756  17.506  0.00  0.00    +0.000 A 
ATOM     12  O   UNL     1       5.449   6.813  16.191  0.00  0.00    +0.000 OA
ATOM     13  C   UNL     1       5.422   5.778  15.212  0.00  0.00    +0.000 C 
ATOM     14  C   UNL     1       5.425   4.398  15.854  0.00  0.00    +0.000 C 
ATOM     15  O   UNL     1       4.454   4.200  16.890  0.00  0.00    +0.000 OA
ENDBRANCH   3   6
BRANCH   1  20
ATOM     16  C   UNL     1      -2.484  10.095  16.659  0.00  0.00    +0.000 A 
ATOM     17  C   UNL     1      -3.448  10.957  17.177  0.00  0.00    +0.000 A 
ATOM     18  C   UNL     1      -3.234  11.618  18.388  0.00  0.00    +0.000 A 
ATOM     19  C   UNL     1      -2.057  11.402  19.098  0.00  0.00    +0.000 A 
ATOM     20  C   UNL     1      -1.083  10.523  18.602  0.00  0.00    +0.000 A 
ATOM     21  C   UNL     1      -1.305   9.881  17.372  0.00  0.00    +0.000 A 
BRANCH  16  23
ATOM     22  C   UNL     1      -3.572  10.310  14.559  0.00  0.00    +0.000 C 
ATOM     23  O   UNL     1      -2.803   9.522  15.459  0.00  0.00    +0.000 OA
ENDBRANCH  16  23
ENDBRANCH   1  20
BRANCH   5  24
ATOM     24  C   UNL     1       1.636  12.258  18.640  0.00  0.00    +0.000 A 
ATOM     25  C   UNL     1       0.764  13.181  19.247  0.00  0.00    +0.000 A 
ATOM     26  C   UNL     1       1.004  14.559  19.212  0.00  0.00    +0.000 A 
ATOM     27  C   UNL     1       2.126  15.050  18.556  0.00  0.00    +0.000 A 
ATOM     28  C   UNL     1       3.006  14.164  17.944  0.00  0.00    +0.000 A 
ATOM     29  C   UNL     1       2.763  12.785  17.992  0.00  0.00    +0.000 A 
ENDBRANCH   5  24
TORSDOF 4
ENDMDL
MODEL 5
REMARK VINA RESULT:      -7.6      1.165      1.696
REMARK  Name = 
REMARK  5 active torsions:
REMARK  status: ('A' for Active; 'I' for Inactive)
REMARK    1  A    between atoms: C_1  and  O_2
REMARK    2  A    between atoms: O_2  and  C_3
REMARK    3  A    between atoms: C_7  and  C_8
REMARK    4  A    between atoms: C_10  and  C_11
REMARK    5  A    between atoms: N_22  and  C_23
REMARK                            x       y       z     vdW  Elec       q    Type
REMARK                         _______ _______ _______ _____ _____    ______ ____
ROOT
ATOM      1  C   UNL     1       2.624   4.986  18.395  0.00  0.00    +0.000 C 
ATOM      2  C   UNL     1       1.551   5.992  18.823  0.00  0.00    +0.000 C 
ATOM      3  C   UNL     1       2.347   7.251  18.748  0.00  0.00    +0.000 C 
ATOM      4  N   UNL     1       3.577   7.138  18.356  0.00  0.00    +0.000 NA
ATOM      5  N   UNL     1       3.801   5.818  18.134  0.00  0.00    +0.000 N 
ENDROOT
BRANCH   3   6
ATOM      6  C   UNL     1       1.753   8.556  19.031  0.00  0.00    +0.000 A 
ATOM      7  C   UNL     1       1.251   9.373  18.016  0.00  0.00    +0.000 A 
ATOM      8  C   UNL     1       0.480  10.485  18.367  0.00  0.00    +0.000 A 
ATOM      9  C   UNL     1       0.229  10.765  19.714  0.00  0.00    +0.000 A 
ATOM     10  C   UNL     1       0.833   9.996  20.708  0.00  0.00    +0.000 A 
ATOM     11  C   UNL     1       1.589   8.886  20.374  0.00  0.00    +0.000 A 
ATOM     12  O   UNL     1       0.683  10.260  22.041  0.00  0.00    +0.000 OA
ATOM     13  C   UNL     1      -0.643  10.734  22.259  0.00  0.00    +0.000 C 
ATOM     14  C   UNL     1      -0.963  11.932  21.375  0.00  0.00    +0.000 C 
ATOM     15  O   UNL     1      -0.661  11.766  19.983  0.00  0.00    +0.000 OA
ENDBRANCH   3   6
BRANCH   1  20
ATOM     16  C   UNL     1       4.228   2.166  20.391  0.00  0.00    +0.000 A 
ATOM     17  C   UNL     1       3.338   2.029  21.455  0.00  0.00    +0.000 A 
ATOM     18  C   UNL     1       2.197   2.832  21.534  0.00  0.00    +0.000 A 
ATOM     19  C   UNL     1       1.953   3.791  20.557  0.00  0.00    +0.000 A 
ATOM     20  C   UNL     1       2.849   3.956  19.490  0.00  0.00    +0.000 A 
ATOM     21  C   UNL     1       3.981   3.128  19.412  0.00  0.00    +0.000 A 
BRANCH  16  23
ATOM     22  C   UNL     1       5.633   0.748  21.678  0.00  0.00    +0.000 C 
ATOM     23  O   UNL     1       5.297   1.313  20.417  0.00  0.00    +0.000 OA
ENDBRANCH  16  23
ENDBRANCH   1  20
BRANCH   5  24
ATOM     24  C   UNL     1       4.997   5.394  17.560  0.00  0.00    +0.000 A 
ATOM     25  C   UNL     1       6.217   5.562  18.241  0.00  0.00    +0.000 A 
ATOM     26  C   UNL     1       7.433   5.132  17.699  0.00  0.00    +0.000 A 
ATOM     27  C   UNL     1       7.457   4.526  16.447  0.00  0.00    +0.000 A 
ATOM     28  C   UNL     1       6.268   4.349  15.748  0.00  0.00    +0.000 A 
ATOM     29  C   UNL     1       5.054   4.774  16.304  0.00  0.00    +0.000 A 
ENDBRANCH   5  24
TORSDOF 4
ENDMDL
MODEL 6
REMARK VINA RESULT:      -7.6      1.482      1.666
REMARK  Name = 
REMARK  5 active torsions:
REMARK  status: ('A' for Active; 'I' for Inactive)
REMARK    1  A    between atoms: C_1  and  O_2
REMARK    2  A    between atoms: O_2  and  C_3
REMARK    3  A    between atoms: C_7  and  C_8
REMARK    4  A    between atoms: C_10  and  C_11
REMARK    5  A    between atoms: N_22  and  C_23
REMARK                            x       y       z     vdW  Elec       q    Type
REMARK                         _______ _______ _______ _____ _____    ______ ____
ROOT
ATOM      1  C   UNL     1       2.562   5.987  17.509  0.00  0.00    +0.000 C 
ATOM      2  C   UNL     1       1.355   6.892  17.782  0.00  0.00    +0.000 C 
ATOM      3  C   UNL     1       2.003   7.913  18.654  0.00  0.00    +0.000 C 
ATOM      4  N   UNL     1       3.272   7.766  18.878  0.00  0.00    +0.000 NA
ATOM      5  N   UNL     1       3.659   6.640  18.227  0.00  0.00    +0.000 N 
ENDROOT
BRANCH   3   6
ATOM      6  C   UNL     1       1.266   9.064  19.172  0.00  0.00    +0.000 A 
ATOM      7  C   UNL     1       0.462   9.856  18.349  0.00  0.00    +0.000 A 
ATOM      8  C   UNL     1      -0.404  10.779  18.942  0.00  0.00    +0.000 A 
ATOM      9  C   UNL     1      -0.449  10.902  20.334  0.00  0.00    +0.000 A 
ATOM     10  C   UNL     1       0.442  10.177  21.125  0.00  0.00    +0.000 A 
ATOM     11  C   UNL     1       1.295   9.251  20.552  0.00  0.00    +0.000 A 
ATOM     12  O   UNL     1       0.495  10.303  22.485  0.00  0.00    +0.000 OA
ATOM     13  C   UNL     1      -0.829  10.512  22.970  0.00  0.00    +0.000 C 
ATOM     14  C   UNL     1      -1.495  11.700  22.287  0.00  0.00    +0.000 C 
ATOM     15  O   UNL     1      -1.427  11.702  20.854  0.00  0.00    +0.000 OA
ENDBRANCH   3   6
BRANCH   1  20
ATOM     16  C   UNL     1       1.417   3.126  19.747  0.00  0.00    +0.000 A 
ATOM     17  C   UNL     1       1.739   2.013  18.972  0.00  0.00    +0.000 A 
ATOM     18  C   UNL     1       2.346   2.168  17.724  0.00  0.00    +0.000 A 
ATOM     19  C   UNL     1       2.617   3.443  17.237  0.00  0.00    +0.000 A 
ATOM     20  C   UNL     1       2.283   4.575  17.995  0.00  0.00    +0.000 A 
ATOM     21  C   UNL     1       1.690   4.402  19.257  0.00  0.00    +0.000 A 
BRANCH  16  23
ATOM     22  C   UNL     1       1.724   2.514  22.021  0.00  0.00    +0.000 C 
ATOM     23  O   UNL     1       0.841   2.844  20.956  0.00  0.00    +0.000 OA
ENDBRANCH  16  23
ENDBRANCH   1  20
BRANCH   5  24
ATOM     24  C   UNL     1       5.007   6.295  18.160  0.00  0.00    +0.000 A 
ATOM     25  C   UNL     1       5.588   5.478  19.147  0.00  0.00    +0.000 A 
ATOM     26  C   UNL     1       6.934   5.101  19.097  0.00  0.00    +0.000 A 
ATOM     27  C   UNL     1       7.739   5.545  18.053  0.00  0.00    +0.000 A 
ATOM     28  C   UNL     1       7.195   6.356  17.064  0.00  0.00    +0.000 A 
ATOM     29  C   UNL     1       5.843   6.720  17.117  0.00  0.00    +0.000 A 
ENDBRANCH   5  24
TORSDOF 4
ENDMDL
MODEL 7
REMARK VINA RESULT:      -7.5      3.127      9.218
REMARK  Name = 
REMARK  5 active torsions:
REMARK  status: ('A' for Active; 'I' for Inactive)
REMARK    1  A    between atoms: C_1  and  O_2
REMARK    2  A    between atoms: O_2  and  C_3
REMARK    3  A    between atoms: C_7  and  C_8
REMARK    4  A    between atoms: C_10  and  C_11
REMARK    5  A    between atoms: N_22  and  C_23
REMARK                            x       y       z     vdW  Elec       q    Type
REMARK                         _______ _______ _______ _____ _____    ______ ____
ROOT
ATOM      1  C   UNL     1       1.041  11.220  18.767  0.00  0.00    +0.000 C 
ATOM      2  C   UNL     1       1.857  10.241  17.914  0.00  0.00    +0.000 C 
ATOM      3  C   UNL     1       1.812   9.043  18.800  0.00  0.00    +0.000 C 
ATOM      4  N   UNL     1       1.141   9.161  19.904  0.00  0.00    +0.000 NA
ATOM      5  N   UNL     1       0.662  10.430  19.941  0.00  0.00    +0.000 N 
ENDROOT
BRANCH   3   6
ATOM      6  C   UNL     1       2.430   7.776  18.415  0.00  0.00    +0.000 A 
ATOM      7  C   UNL     1       3.496   7.719  17.515  0.00  0.00    +0.000 A 
ATOM      8  C   UNL     1       4.198   6.518  17.378  0.00  0.00    +0.000 A 
ATOM      9  C   UNL     1       3.825   5.401  18.131  0.00  0.00    +0.000 A 
ATOM     10  C   UNL     1       2.690   5.454  18.940  0.00  0.00    +0.000 A 
ATOM     11  C   UNL     1       1.994   6.641  19.093  0.00  0.00    +0.000 A 
ATOM     12  O   UNL     1       2.234   4.377  19.646  0.00  0.00    +0.000 OA
ATOM     13  C   UNL     1       3.358   3.628  20.101  0.00  0.00    +0.000 C 
ATOM     14  C   UNL     1       4.276   3.240  18.950  0.00  0.00    +0.000 C 
ATOM     15  O   UNL     1       4.648   4.311  18.073  0.00  0.00    +0.000 OA
ENDBRANCH   3   6
BRANCH   1  20
ATOM     16  C   UNL     1       3.104  14.391  18.326  0.00  0.00    +0.000 A 
ATOM     17  C   UNL     1       3.419  14.709  19.646  0.00  0.00    +0.000 A 
ATOM     18  C   UNL     1       2.987  13.897  20.696  0.00  0.00    +0.000 A 
ATOM     19  C   UNL     1       2.218  12.769  20.430  0.00  0.00    +0.000 A 
ATOM     20  C   UNL     1       1.874  12.443  19.109  0.00  0.00    +0.000 A 
ATOM     21  C   UNL     1       2.333  13.259  18.062  0.00  0.00    +0.000 A 
BRANCH  16  23
ATOM     22  C   UNL     1       3.113  16.590  17.429  0.00  0.00    +0.000 C 
ATOM     23  O   UNL     1       3.598  15.254  17.387  0.00  0.00    +0.000 OA
ENDBRANCH  16  23
ENDBRANCH   1  20
BRANCH   5  24
ATOM     24  C   UNL     1      -0.225  10.817  20.942  0.00  0.00    +0.000 A 
ATOM     25  C   UNL     1      -0.181  10.214  22.212  0.00  0.00    +0.000 A 
ATOM     26  C   UNL     1      -1.047  10.594  23.242  0.00  0.00    +0.000 A 
ATOM     27  C   UNL     1      -1.993  11.588  23.021  0.00  0.00    +0.000 A 
ATOM     28  C   UNL     1      -2.065  12.201  21.775  0.00  0.00    +0.000 A 
ATOM     29  C   UNL     1      -1.186  11.822  20.752  0.00  0.00    +0.000 A 
ENDBRANCH   5  24
TORSDOF 4
ENDMDL
MODEL 8
REMARK VINA RESULT:      -7.5      3.097      9.237
REMARK  Name = 
REMARK  5 active torsions:
REMARK  status: ('A' for Active; 'I' for Inactive)
REMARK    1  A    between atoms: C_1  and  O_2
REMARK    2  A    between atoms: O_2  and  C_3
REMARK    3  A    between atoms: C_7  and  C_8
REMARK    4  A    between atoms: C_10  and  C_11
REMARK    5  A    between atoms: N_22  and  C_23
REMARK                            x       y       z     vdW  Elec       q    Type
REMARK                         _______ _______ _______ _____ _____    ______ ____
ROOT
ATOM      1  C   UNL     1       0.792  11.010  19.010  0.00  0.00    +0.000 C 
ATOM      2  C   UNL     1       1.656   9.819  18.578  0.00  0.00    +0.000 C 
ATOM      3  C   UNL     1       1.388   8.893  19.716  0.00  0.00    +0.000 C 
ATOM      4  N   UNL     1       0.566   9.313  20.626  0.00  0.00    +0.000 NA
ATOM      5  N   UNL     1       0.181  10.563  20.264  0.00  0.00    +0.000 N 
ENDROOT
BRANCH   3   6
ATOM      6  C   UNL     1       1.963   7.550  19.769  0.00  0.00    +0.000 A 
ATOM      7  C   UNL     1       1.578   6.621  20.738  0.00  0.00    +0.000 A 
ATOM      8  C   UNL     1       1.975   5.289  20.587  0.00  0.00    +0.000 A 
ATOM      9  C   UNL     1       2.746   4.910  19.485  0.00  0.00    +0.000 A 
ATOM     10  C   UNL     1       3.208   5.877  18.592  0.00  0.00    +0.000 A 
ATOM     11  C   UNL     1       2.812   7.197  18.723  0.00  0.00    +0.000 A 
ATOM     12  O   UNL     1       4.021   5.580  17.535  0.00  0.00    +0.000 OA
ATOM     13  C   UNL     1       3.645   4.305  17.021  0.00  0.00    +0.000 C 
ATOM     14  C   UNL     1       3.663   3.236  18.105  0.00  0.00    +0.000 C 
ATOM     15  O   UNL     1       2.962   3.571  19.311  0.00  0.00    +0.000 OA
ENDBRANCH   3   6
BRANCH   1  20
ATOM     16  C   UNL     1       2.780  13.806  20.662  0.00  0.00    +0.000 A 
ATOM     17  C   UNL     1       3.220  14.533  19.558  0.00  0.00    +0.000 A 
ATOM     18  C   UNL     1       2.867  14.142  18.264  0.00  0.00    +0.000 A 
ATOM     19  C   UNL     1       2.086  13.008  18.070  0.00  0.00    +0.000 A 
ATOM     20  C   UNL     1       1.650  12.253  19.169  0.00  0.00    +0.000 A 
ATOM     21  C   UNL     1       1.996  12.670  20.465  0.00  0.00    +0.000 A 
BRANCH  16  23
ATOM     22  C   UNL     1       4.579  14.366  22.109  0.00  0.00    +0.000 C 
ATOM     23  O   UNL     1       3.177  14.298  21.876  0.00  0.00    +0.000 OA
ENDBRANCH  16  23
ENDBRANCH   1  20
BRANCH   5  24
ATOM     24  C   UNL     1      -0.818  11.224  20.973  0.00  0.00    +0.000 A 
ATOM     25  C   UNL     1      -1.767  12.018  20.303  0.00  0.00    +0.000 A 
ATOM     26  C   UNL     1      -2.793  12.680  20.985  0.00  0.00    +0.000 A 
ATOM     27  C   UNL     1      -2.888  12.570  22.368  0.00  0.00    +0.000 A 
ATOM     28  C   UNL     1      -1.964  11.795  23.060  0.00  0.00    +0.000 A 
ATOM     29  C   UNL     1      -0.946  11.127  22.366  0.00  0.00    +0.000 A 
ENDBRANCH   5  24
TORSDOF 4
ENDMDL
MODEL 9
REMARK VINA RESULT:      -7.5      3.258      8.385
REMARK  Name = 
REMARK  5 active torsions:
REMARK  status: ('A' for Active; 'I' for Inactive)
REMARK    1  A    between atoms: C_1  and  O_2
REMARK    2  A    between atoms: O_2  and  C_3
REMARK    3  A    between atoms: C_7  and  C_8
REMARK    4  A    between atoms: C_10  and  C_11
REMARK    5  A    between atoms: N_22  and  C_23
REMARK                            x       y       z     vdW  Elec       q    Type
REMARK                         _______ _______ _______ _____ _____    ______ ____
ROOT
ATOM      1  C   UNL     1       0.282  10.395  19.472  0.00  0.00    +0.000 C 
ATOM      2  C   UNL     1       0.577   8.894  19.380  0.00  0.00    +0.000 C 
ATOM      3  C   UNL     1       1.807   8.934  18.538  0.00  0.00    +0.000 C 
ATOM      4  N   UNL     1       2.237  10.107  18.192  0.00  0.00    +0.000 NA
ATOM      5  N   UNL     1       1.372  11.014  18.714  0.00  0.00    +0.000 N 
ENDROOT
BRANCH   3   6
ATOM      6  C   UNL     1       2.536   7.719  18.180  0.00  0.00    +0.000 A 
ATOM      7  C   UNL     1       3.725   7.761  17.449  0.00  0.00    +0.000 A 
ATOM      8  C   UNL     1       4.497   6.599  17.354  0.00  0.00    +0.000 A 
ATOM      9  C   UNL     1       4.072   5.424  17.979  0.00  0.00    +0.000 A 
ATOM     10  C   UNL     1       2.829   5.381  18.610  0.00  0.00    +0.000 A 
ATOM     11  C   UNL     1       2.061   6.527  18.722  0.00  0.00    +0.000 A 
ATOM     12  O   UNL     1       2.326   4.245  19.179  0.00  0.00    +0.000 OA
ATOM     13  C   UNL     1       3.406   3.515  19.756  0.00  0.00    +0.000 C 
ATOM     14  C   UNL     1       4.502   3.236  18.736  0.00  0.00    +0.000 C 
ATOM     15  O   UNL     1       4.947   4.373  17.985  0.00  0.00    +0.000 OA
ENDBRANCH   3   6
BRANCH   1  20
ATOM     16  C   UNL     1      -2.754  10.273  17.176  0.00  0.00    +0.000 A 
ATOM     17  C   UNL     1      -3.603  11.199  17.779  0.00  0.00    +0.000 A 
ATOM     18  C   UNL     1      -3.202  11.891  18.924  0.00  0.00    +0.000 A 
ATOM     19  C   UNL     1      -1.953  11.642  19.483  0.00  0.00    +0.000 A 
ATOM     20  C   UNL     1      -1.093  10.699  18.901  0.00  0.00    +0.000 A 
ATOM     21  C   UNL     1      -1.502  10.026  17.739  0.00  0.00    +0.000 A 
BRANCH  16  23
ATOM     22  C   UNL     1      -3.060  10.363  14.822  0.00  0.00    +0.000 C 
ATOM     23  O   UNL     1      -3.254   9.675  16.052  0.00  0.00    +0.000 OA
ENDBRANCH  16  23
ENDBRANCH   1  20
BRANCH   5  24
ATOM     24  C   UNL     1       1.650  12.376  18.635  0.00  0.00    +0.000 A 
ATOM     25  C   UNL     1       0.840  13.313  19.303  0.00  0.00    +0.000 A 
ATOM     26  C   UNL     1       1.103  14.686  19.256  0.00  0.00    +0.000 A 
ATOM     27  C   UNL     1       2.187  15.158  18.525  0.00  0.00    +0.000 A 
ATOM     28  C   UNL     1       3.005  14.259  17.851  0.00  0.00    +0.000 A 
ATOM     29  C   UNL     1       2.739  12.884  17.912  0.00  0.00    +0.000 A 
ENDBRANCH   5  24
TORSDOF 4
ENDMDL
