MODEL 1
REMARK VINA RESULT:      -7.1      0.000      0.000
REMARK  Name = 
REMARK  4 active torsions:
REMARK  status: ('A' for Active; 'I' for Inactive)
REMARK    1  A    between atoms: C_1  and  N_2
REMARK    2  A    between atoms: N_2  and  C_3
REMARK    3  A    between atoms: N_2  and  C_4
REMARK    4  A    between atoms: C_7  and  N_8
REMARK                            x       y       z     vdW  Elec       q    Type
REMARK                         _______ _______ _______ _____ _____    ______ ____
ROOT
ATOM      1  N   UNL     1       1.458   8.558  20.478  0.00  0.00    +0.000 N 
ATOM      2  C   UNL     1       1.442   8.776  21.909  0.00  0.00    +0.000 C 
ATOM      3  C   UNL     1       0.339   9.749  22.076  0.00  0.00    +0.000 A 
ATOM      4  C   UNL     1      -0.458   9.974  23.176  0.00  0.00    +0.000 A 
ATOM      5  C   UNL     1      -1.381  11.014  23.095  0.00  0.00    +0.000 A 
ATOM      6  C   UNL     1      -1.427  11.830  21.949  0.00  0.00    +0.000 A 
ATOM      7 CL   UNL     1      -2.463  13.207  21.959  0.00  0.00    +0.000 Cl
ATOM      8  C   UNL     1      -0.678  11.526  20.807  0.00  0.00    +0.000 A 
ATOM      9  C   UNL     1       0.142  10.420  20.881  0.00  0.00    +0.000 A 
ATOM     10  C   UNL     1       0.784   9.591  19.818  0.00  0.00    +0.000 C 
ATOM     11  O   UNL     1       0.627   9.796  18.631  0.00  0.00    +0.000 OA
ENDROOT
BRANCH   1  15
ATOM     12  C   UNL     1       2.458   4.671  18.952  0.00  0.00    +0.000 A 
ATOM     13  C   UNL     1       2.812   5.845  18.254  0.00  0.00    +0.000 A 
ATOM     14  C   UNL     1       2.540   7.142  18.752  0.00  0.00    +0.000 A 
ATOM     15  C   UNL     1       1.905   7.304  19.977  0.00  0.00    +0.000 A 
ATOM     16  C   UNL     1       1.607   6.147  20.704  0.00  0.00    +0.000 A 
ATOM     17  C   UNL     1       1.866   4.872  20.202  0.00  0.00    +0.000 A 
BRANCH  12  19
ATOM     18  C   UNL     1       3.790   3.113  17.557  0.00  0.00    +0.000 C 
ATOM     19  N   UNL     1       2.694   3.380  18.481  0.00  0.00    +0.000 N 
ATOM     20  C   UNL     1       1.596   2.414  18.505  0.00  0.00    +0.000 C 
ENDBRANCH  12  19
ENDBRANCH   1  15
TORSDOF 2
ENDMDL
MODEL 2
REMARK VINA RESULT:      -6.9      0.572      1.204
REMARK  Name = 
REMARK  4 active torsions:
REMARK  status: ('A' for Active; 'I' for Inactive)
REMARK    1  A    between atoms: C_1  and  N_2
REMARK    2  A    between atoms: N_2  and  C_3
REMARK    3  A    between atoms: N_2  and  C_4
REMARK    4  A    between atoms: C_7  and  N_8
REMARK                            x       y       z     vdW  Elec       q    Type
REMARK                         _______ _______ _______ _____ _____    ______ ____
ROOT
ATOM      1  N   UNL     1       1.454   8.541  20.431  0.00  0.00    +0.000 N 
ATOM      2  C   UNL     1       1.456   8.736  21.865  0.00  0.00    +0.000 C 
ATOM      3  C   UNL     1       0.357   9.709  22.060  0.00  0.00    +0.000 A 
ATOM      4  C   UNL     1      -0.427   9.918  23.173  0.00  0.00    +0.000 A 
ATOM      5  C   UNL     1      -1.348  10.962  23.118  0.00  0.00    +0.000 A 
ATOM      6  C   UNL     1      -1.405  11.795  21.985  0.00  0.00    +0.000 A 
ATOM      7 CL   UNL     1      -2.438  13.174  22.028  0.00  0.00    +0.000 Cl
ATOM      8  C   UNL     1      -0.671  11.508  20.830  0.00  0.00    +0.000 A 
ATOM      9  C   UNL     1       0.148  10.399  20.878  0.00  0.00    +0.000 A 
ATOM     10  C   UNL     1       0.776   9.585  19.795  0.00  0.00    +0.000 C 
ATOM     11  O   UNL     1       0.605   9.809  18.614  0.00  0.00    +0.000 OA
ENDROOT
BRANCH   1  15
ATOM     12  C   UNL     1       3.116   4.904  18.863  0.00  0.00    +0.000 A 
ATOM     13  C   UNL     1       2.370   4.912  20.061  0.00  0.00    +0.000 A 
ATOM     14  C   UNL     1       1.768   6.084  20.579  0.00  0.00    +0.000 A 
ATOM     15  C   UNL     1       1.893   7.293  19.906  0.00  0.00    +0.000 A 
ATOM     16  C   UNL     1       2.577   7.281  18.687  0.00  0.00    +0.000 A 
ATOM     17  C   UNL     1       3.178   6.126  18.188  0.00  0.00    +0.000 A 
BRANCH  12  19
ATOM     18  C   UNL     1       4.417   3.828  17.047  0.00  0.00    +0.000 C 
ATOM     19  N   UNL     1       3.737   3.773  18.337  0.00  0.00    +0.000 N 
ATOM     20  C   UNL     1       3.307   2.456  18.805  0.00  0.00    +0.000 C 
ENDBRANCH  12  19
ENDBRANCH   1  15
TORSDOF 2
ENDMDL
MODEL 3
REMARK VINA RESULT:      -6.7      1.698      2.396
REMARK  Name = 
REMARK  4 active torsions:
REMARK  status: ('A' for Active; 'I' for Inactive)
REMARK    1  A    between atoms: C_1  and  N_2
REMARK    2  A    between atoms: N_2  and  C_3
REMARK    3  A    between atoms: N_2  and  C_4
REMARK    4  A    between atoms: C_7  and  N_8
REMARK                            x       y       z     vdW  Elec       q    Type
REMARK                         _______ _______ _______ _____ _____    ______ ____
ROOT
ATOM      1  N   UNL     1       2.021   7.805  19.580  0.00  0.00    +0.000 N 
ATOM      2  C   UNL     1       1.489   8.377  20.799  0.00  0.00    +0.000 C 
ATOM      3  C   UNL     1       0.711   9.534  20.300  0.00  0.00    +0.000 A 
ATOM      4  C   UNL     1      -0.370  10.162  20.877  0.00  0.00    +0.000 A 
ATOM      5  C   UNL     1      -0.873  11.289  20.230  0.00  0.00    +0.000 A 
ATOM      6  C   UNL     1      -0.238  11.784  19.076  0.00  0.00    +0.000 A 
ATOM      7 CL   UNL     1      -0.788  13.274  18.407  0.00  0.00    +0.000 Cl
ATOM      8  C   UNL     1       0.797  11.079  18.453  0.00  0.00    +0.000 A 
ATOM      9  C   UNL     1       1.196   9.904  19.057  0.00  0.00    +0.000 A 
ATOM     10  C   UNL     1       1.967   8.736  18.538  0.00  0.00    +0.000 C 
ATOM     11  O   UNL     1       2.360   8.658  17.391  0.00  0.00    +0.000 OA
ENDROOT
BRANCH   1  15
ATOM     12  C   UNL     1       3.166   3.668  19.466  0.00  0.00    +0.000 A 
ATOM     13  C   UNL     1       2.314   4.164  20.476  0.00  0.00    +0.000 A 
ATOM     14  C   UNL     1       1.879   5.511  20.515  0.00  0.00    +0.000 A 
ATOM     15  C   UNL     1       2.283   6.408  19.533  0.00  0.00    +0.000 A 
ATOM     16  C   UNL     1       3.076   5.908  18.495  0.00  0.00    +0.000 A 
ATOM     17  C   UNL     1       3.511   4.584  18.470  0.00  0.00    +0.000 A 
BRANCH  12  19
ATOM     18  C   UNL     1       4.639   1.879  20.348  0.00  0.00    +0.000 C 
ATOM     19  N   UNL     1       3.628   2.354  19.411  0.00  0.00    +0.000 N 
ATOM     20  C   UNL     1       3.485   1.613  18.158  0.00  0.00    +0.000 C 
ENDBRANCH  12  19
ENDBRANCH   1  15
TORSDOF 2
ENDMDL
MODEL 4
REMARK VINA RESULT:      -6.7      3.645      7.548
REMARK  Name = 
REMARK  4 active torsions:
REMARK  status: ('A' for Active; 'I' for Inactive)
REMARK    1  A    between atoms: C_1  and  N_2
REMARK    2  A    between atoms: N_2  and  C_3
REMARK    3  A    between atoms: N_2  and  C_4
REMARK    4  A    between atoms: C_7  and  N_8
REMARK                            x       y       z     vdW  Elec       q    Type
REMARK                         _______ _______ _______ _____ _____    ______ ____
ROOT
ATOM      1  N   UNL     1       2.203   7.517  19.117  0.00  0.00    +0.000 N 
ATOM      2  C   UNL     1       2.453   6.220  19.709  0.00  0.00    +0.000 C 
ATOM      3  C   UNL     1       3.687   5.781  19.018  0.00  0.00    +0.000 A 
ATOM      4  C   UNL     1       4.656   4.904  19.452  0.00  0.00    +0.000 A 
ATOM      5  C   UNL     1       5.687   4.602  18.564  0.00  0.00    +0.000 A 
ATOM      6  C   UNL     1       5.674   5.130  17.259  0.00  0.00    +0.000 A 
ATOM      7 CL   UNL     1       6.872   4.597  16.143  0.00  0.00    +0.000 Cl
ATOM      8  C   UNL     1       4.735   6.092  16.871  0.00  0.00    +0.000 A 
ATOM      9  C   UNL     1       3.796   6.455  17.814  0.00  0.00    +0.000 A 
ATOM     10  C   UNL     1       2.904   7.649  17.914  0.00  0.00    +0.000 C 
ATOM     11  O   UNL     1       2.915   8.554  17.104  0.00  0.00    +0.000 OA
ENDROOT
BRANCH   1  15
ATOM     12  C   UNL     1      -0.136  10.417  21.251  0.00  0.00    +0.000 A 
ATOM     13  C   UNL     1       0.519   9.364  21.926  0.00  0.00    +0.000 A 
ATOM     14  C   UNL     1       1.336   8.421  21.259  0.00  0.00    +0.000 A 
ATOM     15  C   UNL     1       1.528   8.506  19.885  0.00  0.00    +0.000 A 
ATOM     16  C   UNL     1       0.934   9.582  19.220  0.00  0.00    +0.000 A 
ATOM     17  C   UNL     1       0.119  10.501  19.880  0.00  0.00    +0.000 A 
BRANCH  12  19
ATOM     18  C   UNL     1      -1.480  11.107  23.217  0.00  0.00    +0.000 C 
ATOM     19  N   UNL     1      -0.963  11.350  21.875  0.00  0.00    +0.000 N 
ATOM     20  C   UNL     1      -1.696  12.303  21.044  0.00  0.00    +0.000 C 
ENDBRANCH  12  19
ENDBRANCH   1  15
TORSDOF 2
ENDMDL
MODEL 5
REMARK VINA RESULT:      -6.7      3.669      7.497
REMARK  Name = 
REMARK  4 active torsions:
REMARK  status: ('A' for Active; 'I' for Inactive)
REMARK    1  A    between atoms: C_1  and  N_2
REMARK    2  A    between atoms: N_2  and  C_3
REMARK    3  A    between atoms: N_2  and  C_4
REMARK    4  A    between atoms: C_7  and  N_8
REMARK                            x       y       z     vdW  Elec       q    Type
REMARK                         _______ _______ _______ _____ _____    ______ ____
ROOT
ATOM      1  N   UNL     1       2.162   7.526  19.073  0.00  0.00    +0.000 N 
ATOM      2  C   UNL     1       2.479   6.267  19.714  0.00  0.00    +0.000 C 
ATOM      3  C   UNL     1       3.751   5.884  19.060  0.00  0.00    +0.000 A 
ATOM      4  C   UNL     1       4.764   5.084  19.541  0.00  0.00    +0.000 A 
ATOM      5  C   UNL     1       5.828   4.817  18.682  0.00  0.00    +0.000 A 
ATOM      6  C   UNL     1       5.809   5.300  17.360  0.00  0.00    +0.000 A 
ATOM      7 CL   UNL     1       7.060   4.806  16.284  0.00  0.00    +0.000 Cl
ATOM      8  C   UNL     1       4.821   6.189  16.923  0.00  0.00    +0.000 A 
ATOM      9  C   UNL     1       3.842   6.523  17.836  0.00  0.00    +0.000 A 
ATOM     10  C   UNL     1       2.877   7.662  17.879  0.00  0.00    +0.000 C 
ATOM     11  O   UNL     1       2.848   8.539  17.039  0.00  0.00    +0.000 OA
ENDROOT
BRANCH   1  15
ATOM     12  C   UNL     1       0.198  10.519  21.446  0.00  0.00    +0.000 A 
ATOM     13  C   UNL     1       0.305  10.649  20.044  0.00  0.00    +0.000 A 
ATOM     14  C   UNL     1       0.902   9.658  19.228  0.00  0.00    +0.000 A 
ATOM     15  C   UNL     1       1.412   8.496  19.795  0.00  0.00    +0.000 A 
ATOM     16  C   UNL     1       1.254   8.332  21.174  0.00  0.00    +0.000 A 
ATOM     17  C   UNL     1       0.676   9.317  21.974  0.00  0.00    +0.000 A 
BRANCH  12  19
ATOM     18  C   UNL     1      -1.430  11.131  23.212  0.00  0.00    +0.000 C 
ATOM     19  N   UNL     1      -0.366  11.483  22.279  0.00  0.00    +0.000 N 
ATOM     20  C   UNL     1      -0.259  12.890  21.895  0.00  0.00    +0.000 C 
ENDBRANCH  12  19
ENDBRANCH   1  15
TORSDOF 2
ENDMDL
MODEL 6
REMARK VINA RESULT:      -6.7      3.738      7.699
REMARK  Name = 
REMARK  4 active torsions:
REMARK  status: ('A' for Active; 'I' for Inactive)
REMARK    1  A    between atoms: C_1  and  N_2
REMARK    2  A    between atoms: N_2  and  C_3
REMARK    3  A    between atoms: N_2  and  C_4
REMARK    4  A    between atoms: C_7  and  N_8
REMARK                            x       y       z     vdW  Elec       q    Type
REMARK                         _______ _______ _______ _____ _____    ______ ____
ROOT
ATOM      1  N   UNL     1       2.469   7.092  19.371  0.00  0.00    +0.000 N 
ATOM      2  C   UNL     1       3.516   6.967  18.378  0.00  0.00    +0.000 C 
ATOM      3  C   UNL     1       3.566   5.505  18.145  0.00  0.00    +0.000 A 
ATOM      4  C   UNL     1       3.986   4.822  17.026  0.00  0.00    +0.000 A 
ATOM      5  C   UNL     1       4.005   3.431  17.096  0.00  0.00    +0.000 A 
ATOM      6  C   UNL     1       3.669   2.780  18.299  0.00  0.00    +0.000 A 
ATOM      7 CL   UNL     1       3.869   1.071  18.393  0.00  0.00    +0.000 Cl
ATOM      8  C   UNL     1       3.154   3.485  19.391  0.00  0.00    +0.000 A 
ATOM      9  C   UNL     1       3.041   4.852  19.247  0.00  0.00    +0.000 A 
ATOM     10  C   UNL     1       2.237   5.863  19.996  0.00  0.00    +0.000 C 
ATOM     11  O   UNL     1       1.487   5.572  20.906  0.00  0.00    +0.000 OA
ENDROOT
BRANCH   1  15
ATOM     12  C   UNL     1      -0.092  10.538  19.291  0.00  0.00    +0.000 A 
ATOM     13  C   UNL     1       0.247   9.906  20.506  0.00  0.00    +0.000 A 
ATOM     14  C   UNL     1       1.127   8.799  20.572  0.00  0.00    +0.000 A 
ATOM     15  C   UNL     1       1.702   8.289  19.414  0.00  0.00    +0.000 A 
ATOM     16  C   UNL     1       1.420   8.949  18.214  0.00  0.00    +0.000 A 
ATOM     17  C   UNL     1       0.543  10.032  18.154  0.00  0.00    +0.000 A 
BRANCH  12  19
ATOM     18  C   UNL     1      -1.572  12.201  20.382  0.00  0.00    +0.000 C 
ATOM     19  N   UNL     1      -0.970  11.617  19.190  0.00  0.00    +0.000 N 
ATOM     20  C   UNL     1      -1.657  11.844  17.919  0.00  0.00    +0.000 C 
ENDBRANCH  12  19
ENDBRANCH   1  15
TORSDOF 2
ENDMDL
MODEL 7
REMARK VINA RESULT:      -6.6      2.230      3.370
REMARK  Name = 
REMARK  4 active torsions:
REMARK  status: ('A' for Active; 'I' for Inactive)
REMARK    1  A    between atoms: C_1  and  N_2
REMARK    2  A    between atoms: N_2  and  C_3
REMARK    3  A    between atoms: N_2  and  C_4
REMARK    4  A    between atoms: C_7  and  N_8
REMARK                            x       y       z     vdW  Elec       q    Type
REMARK                         _______ _______ _______ _____ _____    ______ ____
ROOT
ATOM      1  N   UNL     1       1.969   7.951  18.613  0.00  0.00    +0.000 N 
ATOM      2  C   UNL     1       1.589   9.086  17.798  0.00  0.00    +0.000 C 
ATOM      3  C   UNL     1       1.264  10.116  18.812  0.00  0.00    +0.000 A 
ATOM      4  C   UNL     1       1.305  11.487  18.694  0.00  0.00    +0.000 A 
ATOM      5  C   UNL     1       0.870  12.235  19.787  0.00  0.00    +0.000 A 
ATOM      6  C   UNL     1       0.350  11.588  20.924  0.00  0.00    +0.000 A 
ATOM      7 CL   UNL     1      -0.333  12.551  22.179  0.00  0.00    +0.000 Cl
ATOM      8  C   UNL     1       0.407  10.197  21.061  0.00  0.00    +0.000 A 
ATOM      9  C   UNL     1       0.949   9.493  20.007  0.00  0.00    +0.000 A 
ATOM     10  C   UNL     1       1.500   8.107  19.921  0.00  0.00    +0.000 C 
ATOM     11  O   UNL     1       1.566   7.360  20.876  0.00  0.00    +0.000 OA
ENDROOT
BRANCH   1  15
ATOM     12  C   UNL     1       5.034   5.263  17.262  0.00  0.00    +0.000 A 
ATOM     13  C   UNL     1       3.848   4.782  17.857  0.00  0.00    +0.000 A 
ATOM     14  C   UNL     1       2.798   5.638  18.269  0.00  0.00    +0.000 A 
ATOM     15  C   UNL     1       2.902   7.012  18.092  0.00  0.00    +0.000 A 
ATOM     16  C   UNL     1       4.047   7.490  17.446  0.00  0.00    +0.000 A 
ATOM     17  C   UNL     1       5.083   6.644  17.055  0.00  0.00    +0.000 A 
BRANCH  12  19
ATOM     18  C   UNL     1       7.413   4.595  17.469  0.00  0.00    +0.000 C 
ATOM     19  N   UNL     1       6.094   4.450  16.864  0.00  0.00    +0.000 N 
ATOM     20  C   UNL     1       6.033   3.815  15.548  0.00  0.00    +0.000 C 
ENDBRANCH  12  19
ENDBRANCH   1  15
TORSDOF 2
ENDMDL
MODEL 8
REMARK VINA RESULT:      -6.5      3.825      7.734
REMARK  Name = 
REMARK  4 active torsions:
REMARK  status: ('A' for Active; 'I' for Inactive)
REMARK    1  A    between atoms: C_1  and  N_2
REMARK    2  A    between atoms: N_2  and  C_3
REMARK    3  A    between atoms: N_2  and  C_4
REMARK    4  A    between atoms: C_7  and  N_8
REMARK                            x       y       z     vdW  Elec       q    Type
REMARK                         _______ _______ _______ _____ _____    ______ ____
ROOT
ATOM      1  N   UNL     1       2.546   7.065  19.209  0.00  0.00    +0.000 N 
ATOM      2  C   UNL     1       3.617   6.886  18.252  0.00  0.00    +0.000 C 
ATOM      3  C   UNL     1       3.647   5.416  18.072  0.00  0.00    +0.000 A 
ATOM      4  C   UNL     1       4.085   4.686  16.990  0.00  0.00    +0.000 A 
ATOM      5  C   UNL     1       4.076   3.298  17.111  0.00  0.00    +0.000 A 
ATOM      6  C   UNL     1       3.696   2.696  18.326  0.00  0.00    +0.000 A 
ATOM      7 CL   UNL     1       3.861   0.989  18.487  0.00  0.00    +0.000 Cl
ATOM      8  C   UNL     1       3.163   3.449  19.378  0.00  0.00    +0.000 A 
ATOM      9  C   UNL     1       3.080   4.812  19.182  0.00  0.00    +0.000 A 
ATOM     10  C   UNL     1       2.274   5.864  19.871  0.00  0.00    +0.000 C 
ATOM     11  O   UNL     1       1.494   5.619  20.770  0.00  0.00    +0.000 OA
ENDROOT
BRANCH   1  15
ATOM     12  C   UNL     1       0.541  10.859  19.372  0.00  0.00    +0.000 A 
ATOM     13  C   UNL     1       1.020  10.336  18.153  0.00  0.00    +0.000 A 
ATOM     14  C   UNL     1       1.642   9.068  18.056  0.00  0.00    +0.000 A 
ATOM     15  C   UNL     1       1.800   8.276  19.188  0.00  0.00    +0.000 A 
ATOM     16  C   UNL     1       1.272   8.761  20.388  0.00  0.00    +0.000 A 
ATOM     17  C   UNL     1       0.672  10.016  20.479  0.00  0.00    +0.000 A 
BRANCH  12  19
ATOM     18  C   UNL     1      -0.841  12.681  18.414  0.00  0.00    +0.000 C 
ATOM     19  N   UNL     1      -0.058  12.111  19.504  0.00  0.00    +0.000 N 
ATOM     20  C   UNL     1       0.480  13.044  20.493  0.00  0.00    +0.000 C 
ENDBRANCH  12  19
ENDBRANCH   1  15
TORSDOF 2
ENDMDL
MODEL 9
REMARK VINA RESULT:      -6.4      1.648      2.260
REMARK  Name = 
REMARK  4 active torsions:
REMARK  status: ('A' for Active; 'I' for Inactive)
REMARK    1  A    between atoms: C_1  and  N_2
REMARK    2  A    between atoms: N_2  and  C_3
REMARK    3  A    between atoms: N_2  and  C_4
REMARK    4  A    between atoms: C_7  and  N_8
REMARK                            x       y       z     vdW  Elec       q    Type
REMARK                         _______ _______ _______ _____ _____    ______ ____
ROOT
ATOM      1  N   UNL     1       0.473  10.483  19.872  0.00  0.00    +0.000 N 
ATOM      2  C   UNL     1       0.718  10.998  21.203  0.00  0.00    +0.000 C 
ATOM      3  C   UNL     1      -0.621  11.477  21.615  0.00  0.00    +0.000 A 
ATOM      4  C   UNL     1      -1.136  11.620  22.884  0.00  0.00    +0.000 A 
ATOM      5  C   UNL     1      -2.410  12.172  22.998  0.00  0.00    +0.000 A 
ATOM      6  C   UNL     1      -3.091  12.621  21.851  0.00  0.00    +0.000 A 
ATOM      7 CL   UNL     1      -4.588  13.450  22.054  0.00  0.00    +0.000 Cl
ATOM      8  C   UNL     1      -2.594  12.380  20.566  0.00  0.00    +0.000 A 
ATOM      9  C   UNL     1      -1.381  11.727  20.485  0.00  0.00    +0.000 A 
ATOM     10  C   UNL     1      -0.725  10.993  19.362  0.00  0.00    +0.000 C 
ATOM     11  O   UNL     1      -1.245  10.845  18.274  0.00  0.00    +0.000 OA
ENDROOT
BRANCH   1  15
ATOM     12  C   UNL     1       2.639   7.062  18.442  0.00  0.00    +0.000 A 
ATOM     13  C   UNL     1       2.457   8.204  17.633  0.00  0.00    +0.000 A 
ATOM     14  C   UNL     1       1.790   9.366  18.090  0.00  0.00    +0.000 A 
ATOM     15  C   UNL     1       1.285   9.422  19.384  0.00  0.00    +0.000 A 
ATOM     16  C   UNL     1       1.517   8.319  20.211  0.00  0.00    +0.000 A 
ATOM     17  C   UNL     1       2.164   7.173  19.751  0.00  0.00    +0.000 A 
BRANCH  12  19
ATOM     18  C   UNL     1       4.491   5.959  17.217  0.00  0.00    +0.000 C 
ATOM     19  N   UNL     1       3.273   5.896  18.016  0.00  0.00    +0.000 N 
ATOM     20  C   UNL     1       2.492   4.662  17.938  0.00  0.00    +0.000 C 
ENDBRANCH  12  19
ENDBRANCH   1  15
TORSDOF 2
ENDMDL
