MODEL 1
REMARK VINA RESULT:      -6.0      0.000      0.000
REMARK  Name = 
REMARK  12 active torsions:
REMARK  status: ('A' for Active; 'I' for Inactive)
REMARK    1  A    between atoms: C_1  and  C_2
REMARK    2  A    between atoms: C_2  and  N_3
REMARK    3  A    between atoms: N_3  and  C_4
REMARK    4  A    between atoms: N_3  and  C_5
REMARK    5  A    between atoms: C_5  and  S_7
REMARK    6  A    between atoms: S_7  and  C_8
REMARK    7  A    between atoms: C_8  and  C_9
REMARK    8  A    between atoms: C_9  and  O_10
REMARK    9  A    between atoms: C_9  and  C_11
REMARK   10  A    between atoms: C_11  and  N_12
REMARK   11  A    between atoms: C_13  and  N_14
REMARK   12  A    between atoms: C_19  and  C_20
REMARK                            x       y       z     vdW  Elec       q    Type
REMARK                         _______ _______ _______ _____ _____    ______ ____
ROOT
ATOM      1  C   UNL     1       5.046   3.791  18.725  0.00  0.00    +0.000 C 
ENDROOT
BRANCH   1   2
ATOM      2  O   UNL     1       5.108   2.707  19.657  0.00  0.00    +0.000 OA
ATOM      3  H   UNL     1       4.193   2.374  19.776  0.00  0.00    +0.000 HD
ENDBRANCH   1   2
BRANCH   1   4
ATOM      4  C   UNL     1       5.701   5.035  19.355  0.00  0.00    +0.000 C 
BRANCH   4   5
ATOM      5  S   UNL     1       7.380   5.274  18.679  0.00  0.00    +0.000 S 
BRANCH   5   6
ATOM      6  C   UNL     1       7.099   6.408  17.360  0.00  0.00    +0.000 C 
ATOM      7  S   UNL     1       7.645   7.994  17.509  0.00  0.00    +0.000 S 
BRANCH   6   8
ATOM      8  N   UNL     1       6.508   5.846  16.214  0.00  0.00    +0.000 N 
ATOM      9  C   UNL     1       5.291   6.395  15.606  0.00  0.00    +0.000 C 
BRANCH   8  11
ATOM     10  C   UNL     1       6.044   3.981  14.631  0.00  0.00    +0.000 C 
ATOM     11  C   UNL     1       7.043   4.634  15.574  0.00  0.00    +0.000 C 
ENDBRANCH   8  11
ENDBRANCH   6   8
ENDBRANCH   5   6
ENDBRANCH   4   5
ENDBRANCH   1   4
BRANCH   1  12
ATOM     12  C   UNL     1       3.607   4.071  18.250  0.00  0.00    +0.000 C 
BRANCH  12  13
ATOM     13  N   UNL     1       2.777   4.749  19.231  0.00  0.00    +0.000 N 
ATOM     14  C   UNL     1       2.224   4.233  20.383  0.00  0.00    +0.000 A 
ATOM     15  C   UNL     1       1.671   5.302  21.041  0.00  0.00    +0.000 A 
ATOM     16  N   UNL     1       1.847   6.452  20.322  0.00  0.00    +0.000 NA
ATOM     17  C   UNL     1       2.493   6.103  19.226  0.00  0.00    +0.000 A 
ATOM     18  C   UNL     1       2.871   7.037  18.132  0.00  0.00    +0.000 C 
BRANCH  14  19
ATOM     19  N   UNL     1       2.227   2.872  20.798  0.00  0.00    +0.000 N 
ATOM     20  O   UNL     1       1.593   2.047  20.128  0.00  0.00    +0.000 OA
ATOM     21  O   UNL     1       2.879   2.611  21.817  0.00  0.00    +0.000 OA
ENDBRANCH  14  19
ENDBRANCH  12  13
ENDBRANCH   1  12
TORSDOF 9
ENDMDL
MODEL 2
REMARK VINA RESULT:      -5.6      2.082      3.171
REMARK  Name = 
REMARK  12 active torsions:
REMARK  status: ('A' for Active; 'I' for Inactive)
REMARK    1  A    between atoms: C_1  and  C_2
REMARK    2  A    between atoms: C_2  and  N_3
REMARK    3  A    between atoms: N_3  and  C_4
REMARK    4  A    between atoms: N_3  and  C_5
REMARK    5  A    between atoms: C_5  and  S_7
REMARK    6  A    between atoms: S_7  and  C_8
REMARK    7  A    between atoms: C_8  and  C_9
REMARK    8  A    between atoms: C_9  and  O_10
REMARK    9  A    between atoms: C_9  and  C_11
REMARK   10  A    between atoms: C_11  and  N_12
REMARK   11  A    between atoms: C_13  and  N_14
REMARK   12  A    between atoms: C_19  and  C_20
REMARK                            x       y       z     vdW  Elec       q    Type
REMARK                         _______ _______ _______ _____ _____    ______ ____
ROOT
ATOM      1  C   UNL     1       3.954   5.504  18.178  0.00  0.00    +0.000 C 
ENDROOT
BRANCH   1   2
ATOM      2  O   UNL     1       4.552   5.528  19.478  0.00  0.00    +0.000 OA
ATOM      3  H   UNL     1       4.902   4.629  19.652  0.00  0.00    +0.000 HD
ENDBRANCH   1   2
BRANCH   1   4
ATOM      4  C   UNL     1       4.158   6.874  17.504  0.00  0.00    +0.000 C 
BRANCH   4   5
ATOM      5  S   UNL     1       5.247   6.705  16.049  0.00  0.00    +0.000 S 
BRANCH   5   6
ATOM      6  C   UNL     1       6.674   5.928  16.733  0.00  0.00    +0.000 C 
ATOM      7  S   UNL     1       7.131   4.409  16.171  0.00  0.00    +0.000 S 
BRANCH   6   8
ATOM      8  N   UNL     1       7.391   6.715  17.652  0.00  0.00    +0.000 N 
ATOM      9  C   UNL     1       7.923   6.172  18.907  0.00  0.00    +0.000 C 
BRANCH   8  11
ATOM     10  C   UNL     1       8.558   8.757  18.471  0.00  0.00    +0.000 C 
ATOM     11  C   UNL     1       7.614   8.154  17.442  0.00  0.00    +0.000 C 
ENDBRANCH   8  11
ENDBRANCH   6   8
ENDBRANCH   5   6
ENDBRANCH   4   5
ENDBRANCH   1   4
BRANCH   1  12
ATOM     12  C   UNL     1       2.468   5.097  18.227  0.00  0.00    +0.000 C 
BRANCH  12  13
ATOM     13  N   UNL     1       2.132   4.199  19.318  0.00  0.00    +0.000 N 
ATOM     14  C   UNL     1       2.299   2.833  19.381  0.00  0.00    +0.000 A 
ATOM     15  C   UNL     1       1.984   2.477  20.667  0.00  0.00    +0.000 A 
ATOM     16  N   UNL     1       1.608   3.577  21.390  0.00  0.00    +0.000 NA
ATOM     17  C   UNL     1       1.680   4.601  20.563  0.00  0.00    +0.000 A 
ATOM     18  C   UNL     1       1.327   6.002  20.916  0.00  0.00    +0.000 C 
BRANCH  14  19
ATOM     19  N   UNL     1       2.712   1.972  18.325  0.00  0.00    +0.000 N 
ATOM     20  O   UNL     1       2.104   2.022  17.248  0.00  0.00    +0.000 OA
ATOM     21  O   UNL     1       3.668   1.225  18.569  0.00  0.00    +0.000 OA
ENDBRANCH  14  19
ENDBRANCH  12  13
ENDBRANCH   1  12
TORSDOF 9
ENDMDL
MODEL 3
REMARK VINA RESULT:      -5.5      2.713      5.605
REMARK  Name = 
REMARK  12 active torsions:
REMARK  status: ('A' for Active; 'I' for Inactive)
REMARK    1  A    between atoms: C_1  and  C_2
REMARK    2  A    between atoms: C_2  and  N_3
REMARK    3  A    between atoms: N_3  and  C_4
REMARK    4  A    between atoms: N_3  and  C_5
REMARK    5  A    between atoms: C_5  and  S_7
REMARK    6  A    between atoms: S_7  and  C_8
REMARK    7  A    between atoms: C_8  and  C_9
REMARK    8  A    between atoms: C_9  and  O_10
REMARK    9  A    between atoms: C_9  and  C_11
REMARK   10  A    between atoms: C_11  and  N_12
REMARK   11  A    between atoms: C_13  and  N_14
REMARK   12  A    between atoms: C_19  and  C_20
REMARK                            x       y       z     vdW  Elec       q    Type
REMARK                         _______ _______ _______ _____ _____    ______ ____
ROOT
ATOM      1  C   UNL     1       4.766   3.884  18.323  0.00  0.00    +0.000 C 
ENDROOT
BRANCH   1   2
ATOM      2  O   UNL     1       5.545   3.198  19.308  0.00  0.00    +0.000 OA
ATOM      3  H   UNL     1       6.176   3.847  19.683  0.00  0.00    +0.000 HD
ENDBRANCH   1   2
BRANCH   1   4
ATOM      4  C   UNL     1       3.589   2.987  17.896  0.00  0.00    +0.000 C 
BRANCH   4   5
ATOM      5  S   UNL     1       2.027   3.931  17.943  0.00  0.00    +0.000 S 
BRANCH   5   6
ATOM      6  C   UNL     1       2.020   4.569  19.586  0.00  0.00    +0.000 C 
ATOM      7  S   UNL     1       2.064   3.497  20.883  0.00  0.00    +0.000 S 
BRANCH   6   8
ATOM      8  N   UNL     1       2.079   5.971  19.675  0.00  0.00    +0.000 N 
ATOM      9  C   UNL     1       2.681   6.802  18.626  0.00  0.00    +0.000 C 
BRANCH   8  11
ATOM     10  C   UNL     1       1.513   8.203  20.624  0.00  0.00    +0.000 C 
ATOM     11  C   UNL     1       1.586   6.701  20.853  0.00  0.00    +0.000 C 
ENDBRANCH   8  11
ENDBRANCH   6   8
ENDBRANCH   5   6
ENDBRANCH   4   5
ENDBRANCH   1   4
BRANCH   1  12
ATOM     12  C   UNL     1       5.617   4.337  17.119  0.00  0.00    +0.000 C 
BRANCH  12  13
ATOM     13  N   UNL     1       6.231   5.644  17.283  0.00  0.00    +0.000 N 
ATOM     14  C   UNL     1       7.288   5.994  18.095  0.00  0.00    +0.000 A 
ATOM     15  C   UNL     1       7.591   7.292  17.772  0.00  0.00    +0.000 A 
ATOM     16  N   UNL     1       6.741   7.757  16.805  0.00  0.00    +0.000 NA
ATOM     17  C   UNL     1       5.915   6.765  16.536  0.00  0.00    +0.000 A 
ATOM     18  C   UNL     1       4.796   6.836  15.560  0.00  0.00    +0.000 C 
BRANCH  14  19
ATOM     19  N   UNL     1       7.928   5.174  19.066  0.00  0.00    +0.000 N 
ATOM     20  O   UNL     1       8.713   4.299  18.678  0.00  0.00    +0.000 OA
ATOM     21  O   UNL     1       7.647   5.404  20.249  0.00  0.00    +0.000 OA
ENDBRANCH  14  19
ENDBRANCH  12  13
ENDBRANCH   1  12
TORSDOF 9
ENDMDL
MODEL 4
REMARK VINA RESULT:      -5.4      4.133      6.374
REMARK  Name = 
REMARK  12 active torsions:
REMARK  status: ('A' for Active; 'I' for Inactive)
REMARK    1  A    between atoms: C_1  and  C_2
REMARK    2  A    between atoms: C_2  and  N_3
REMARK    3  A    between atoms: N_3  and  C_4
REMARK    4  A    between atoms: N_3  and  C_5
REMARK    5  A    between atoms: C_5  and  S_7
REMARK    6  A    between atoms: S_7  and  C_8
REMARK    7  A    between atoms: C_8  and  C_9
REMARK    8  A    between atoms: C_9  and  O_10
REMARK    9  A    between atoms: C_9  and  C_11
REMARK   10  A    between atoms: C_11  and  N_12
REMARK   11  A    between atoms: C_13  and  N_14
REMARK   12  A    between atoms: C_19  and  C_20
REMARK                            x       y       z     vdW  Elec       q    Type
REMARK                         _______ _______ _______ _____ _____    ______ ____
ROOT
ATOM      1  C   UNL     1       2.629   6.841  18.624  0.00  0.00    +0.000 C 
ENDROOT
BRANCH   1   2
ATOM      2  O   UNL     1       3.641   7.278  17.711  0.00  0.00    +0.000 OA
ATOM      3  H   UNL     1       3.988   8.130  18.048  0.00  0.00    +0.000 HD
ENDBRANCH   1   2
BRANCH   1   4
ATOM      4  C   UNL     1       2.006   8.071  19.312  0.00  0.00    +0.000 C 
BRANCH   4   5
ATOM      5  S   UNL     1       1.328   9.216  18.063  0.00  0.00    +0.000 S 
BRANCH   5   6
ATOM      6  C   UNL     1       0.083  10.072  18.971  0.00  0.00    +0.000 C 
ATOM      7  S   UNL     1       0.222  10.192  20.644  0.00  0.00    +0.000 S 
BRANCH   6   8
ATOM      8  N   UNL     1      -0.904  10.687  18.182  0.00  0.00    +0.000 N 
ATOM      9  C   UNL     1      -1.263  12.103  18.331  0.00  0.00    +0.000 C 
BRANCH   8  11
ATOM     10  C   UNL     1      -3.145   9.784  17.579  0.00  0.00    +0.000 C 
ATOM     11  C   UNL     1      -1.685   9.941  17.183  0.00  0.00    +0.000 C 
ENDBRANCH   8  11
ENDBRANCH   6   8
ENDBRANCH   5   6
ENDBRANCH   4   5
ENDBRANCH   1   4
BRANCH   1  12
ATOM     12  C   UNL     1       3.166   5.816  19.642  0.00  0.00    +0.000 C 
BRANCH  12  13
ATOM     13  N   UNL     1       3.143   4.441  19.171  0.00  0.00    +0.000 N 
ATOM     14  C   UNL     1       4.120   3.761  18.477  0.00  0.00    +0.000 A 
ATOM     15  C   UNL     1       3.691   2.460  18.410  0.00  0.00    +0.000 A 
ATOM     16  N   UNL     1       2.474   2.324  19.019  0.00  0.00    +0.000 NA
ATOM     17  C   UNL     1       2.145   3.525  19.453  0.00  0.00    +0.000 A 
ATOM     18  C   UNL     1       0.875   3.855  20.154  0.00  0.00    +0.000 C 
BRANCH  14  19
ATOM     19  N   UNL     1       5.323   4.301  17.943  0.00  0.00    +0.000 N 
ATOM     20  O   UNL     1       6.333   4.321  18.658  0.00  0.00    +0.000 OA
ATOM     21  O   UNL     1       5.267   4.718  16.779  0.00  0.00    +0.000 OA
ENDBRANCH  14  19
ENDBRANCH  12  13
ENDBRANCH   1  12
TORSDOF 9
ENDMDL
MODEL 5
REMARK VINA RESULT:      -5.4      1.751      2.040
REMARK  Name = 
REMARK  12 active torsions:
REMARK  status: ('A' for Active; 'I' for Inactive)
REMARK    1  A    between atoms: C_1  and  C_2
REMARK    2  A    between atoms: C_2  and  N_3
REMARK    3  A    between atoms: N_3  and  C_4
REMARK    4  A    between atoms: N_3  and  C_5
REMARK    5  A    between atoms: C_5  and  S_7
REMARK    6  A    between atoms: S_7  and  C_8
REMARK    7  A    between atoms: C_8  and  C_9
REMARK    8  A    between atoms: C_9  and  O_10
REMARK    9  A    between atoms: C_9  and  C_11
REMARK   10  A    between atoms: C_11  and  N_12
REMARK   11  A    between atoms: C_13  and  N_14
REMARK   12  A    between atoms: C_19  and  C_20
REMARK                            x       y       z     vdW  Elec       q    Type
REMARK                         _______ _______ _______ _____ _____    ______ ____
ROOT
ATOM      1  C   UNL     1       3.620   1.891  18.194  0.00  0.00    +0.000 C 
ENDROOT
BRANCH   1   2
ATOM      2  O   UNL     1       4.485   1.579  19.291  0.00  0.00    +0.000 OA
ATOM      3  H   UNL     1       5.278   2.149  19.206  0.00  0.00    +0.000 HD
ENDBRANCH   1   2
BRANCH   1   4
ATOM      4  C   UNL     1       4.152   3.145  17.474  0.00  0.00    +0.000 C 
BRANCH   4   5
ATOM      5  S   UNL     1       5.149   4.156  18.621  0.00  0.00    +0.000 S 
BRANCH   5   6
ATOM      6  C   UNL     1       5.445   5.616  17.679  0.00  0.00    +0.000 C 
ATOM      7  S   UNL     1       4.222   6.763  17.533  0.00  0.00    +0.000 S 
BRANCH   6   8
ATOM      8  N   UNL     1       6.759   5.749  17.194  0.00  0.00    +0.000 N 
ATOM      9  C   UNL     1       7.563   6.956  17.418  0.00  0.00    +0.000 C 
BRANCH   8  11
ATOM     10  C   UNL     1       6.793   4.581  14.995  0.00  0.00    +0.000 C 
ATOM     11  C   UNL     1       7.402   4.704  16.383  0.00  0.00    +0.000 C 
ENDBRANCH   8  11
ENDBRANCH   6   8
ENDBRANCH   5   6
ENDBRANCH   4   5
ENDBRANCH   1   4
BRANCH   1  12
ATOM     12  C   UNL     1       2.153   2.054  18.635  0.00  0.00    +0.000 C 
BRANCH  12  13
ATOM     13  N   UNL     1       1.886   3.275  19.377  0.00  0.00    +0.000 N 
ATOM     14  C   UNL     1       2.035   3.502  20.727  0.00  0.00    +0.000 A 
ATOM     15  C   UNL     1       1.812   4.843  20.906  0.00  0.00    +0.000 A 
ATOM     16  N   UNL     1       1.509   5.442  19.713  0.00  0.00    +0.000 NA
ATOM     17  C   UNL     1       1.535   4.485  18.806  0.00  0.00    +0.000 A 
ATOM     18  C   UNL     1       1.232   4.678  17.363  0.00  0.00    +0.000 C 
BRANCH  14  19
ATOM     19  N   UNL     1       2.354   2.540  21.727  0.00  0.00    +0.000 N 
ATOM     20  O   UNL     1       1.451   2.138  22.471  0.00  0.00    +0.000 OA
ATOM     21  O   UNL     1       3.534   2.170  21.774  0.00  0.00    +0.000 OA
ENDBRANCH  14  19
ENDBRANCH  12  13
ENDBRANCH   1  12
TORSDOF 9
ENDMDL
MODEL 6
REMARK VINA RESULT:      -5.4      3.172      6.129
REMARK  Name = 
REMARK  12 active torsions:
REMARK  status: ('A' for Active; 'I' for Inactive)
REMARK    1  A    between atoms: C_1  and  C_2
REMARK    2  A    between atoms: C_2  and  N_3
REMARK    3  A    between atoms: N_3  and  C_4
REMARK    4  A    between atoms: N_3  and  C_5
REMARK    5  A    between atoms: C_5  and  S_7
REMARK    6  A    between atoms: S_7  and  C_8
REMARK    7  A    between atoms: C_8  and  C_9
REMARK    8  A    between atoms: C_9  and  O_10
REMARK    9  A    between atoms: C_9  and  C_11
REMARK   10  A    between atoms: C_11  and  N_12
REMARK   11  A    between atoms: C_13  and  N_14
REMARK   12  A    between atoms: C_19  and  C_20
REMARK                            x       y       z     vdW  Elec       q    Type
REMARK                         _______ _______ _______ _____ _____    ______ ____
ROOT
ATOM      1  C   UNL     1       4.115   6.920  17.481  0.00  0.00    +0.000 C 
ENDROOT
BRANCH   1   2
ATOM      2  O   UNL     1       3.365   8.112  17.739  0.00  0.00    +0.000 OA
ATOM      3  H   UNL     1       3.853   8.620  18.421  0.00  0.00    +0.000 HD
ENDBRANCH   1   2
BRANCH   1   4
ATOM      4  C   UNL     1       4.082   6.023  18.733  0.00  0.00    +0.000 C 
BRANCH   4   5
ATOM      5  S   UNL     1       2.358   5.613  19.171  0.00  0.00    +0.000 S 
BRANCH   5   6
ATOM      6  C   UNL     1       2.221   3.938  18.641  0.00  0.00    +0.000 C 
ATOM      7  S   UNL     1       3.168   3.403  17.356  0.00  0.00    +0.000 S 
BRANCH   6   8
ATOM      8  N   UNL     1       1.374   3.138  19.428  0.00  0.00    +0.000 N 
ATOM      9  C   UNL     1       0.570   2.049  18.862  0.00  0.00    +0.000 C 
BRANCH   8  11
ATOM     10  C   UNL     1       2.270   2.695  21.709  0.00  0.00    +0.000 C 
ATOM     11  C   UNL     1       1.196   3.370  20.870  0.00  0.00    +0.000 C 
ENDBRANCH   8  11
ENDBRANCH   6   8
ENDBRANCH   5   6
ENDBRANCH   4   5
ENDBRANCH   1   4
BRANCH   1  12
ATOM     12  C   UNL     1       5.554   7.225  17.022  0.00  0.00    +0.000 C 
BRANCH  12  13
ATOM     13  N   UNL     1       6.398   6.049  16.889  0.00  0.00    +0.000 N 
ATOM     14  C   UNL     1       7.328   5.562  17.780  0.00  0.00    +0.000 A 
ATOM     15  C   UNL     1       7.735   4.355  17.272  0.00  0.00    +0.000 A 
ATOM     16  N   UNL     1       7.101   4.096  16.087  0.00  0.00    +0.000 NA
ATOM     17  C   UNL     1       6.318   5.131  15.857  0.00  0.00    +0.000 A 
ATOM     18  C   UNL     1       5.459   5.292  14.653  0.00  0.00    +0.000 C 
BRANCH  14  19
ATOM     19  N   UNL     1       7.773   6.187  18.980  0.00  0.00    +0.000 N 
ATOM     20  O   UNL     1       8.402   7.249  18.896  0.00  0.00    +0.000 OA
ATOM     21  O   UNL     1       7.489   5.609  20.036  0.00  0.00    +0.000 OA
ENDBRANCH  14  19
ENDBRANCH  12  13
ENDBRANCH   1  12
TORSDOF 9
ENDMDL
MODEL 7
REMARK VINA RESULT:      -5.4      0.669      1.237
REMARK  Name = 
REMARK  12 active torsions:
REMARK  status: ('A' for Active; 'I' for Inactive)
REMARK    1  A    between atoms: C_1  and  C_2
REMARK    2  A    between atoms: C_2  and  N_3
REMARK    3  A    between atoms: N_3  and  C_4
REMARK    4  A    between atoms: N_3  and  C_5
REMARK    5  A    between atoms: C_5  and  S_7
REMARK    6  A    between atoms: S_7  and  C_8
REMARK    7  A    between atoms: C_8  and  C_9
REMARK    8  A    between atoms: C_9  and  O_10
REMARK    9  A    between atoms: C_9  and  C_11
REMARK   10  A    between atoms: C_11  and  N_12
REMARK   11  A    between atoms: C_13  and  N_14
REMARK   12  A    between atoms: C_19  and  C_20
REMARK                            x       y       z     vdW  Elec       q    Type
REMARK                         _______ _______ _______ _____ _____    ______ ____
ROOT
ATOM      1  C   UNL     1       4.838   4.042  18.817  0.00  0.00    +0.000 C 
ENDROOT
BRANCH   1   2
ATOM      2  O   UNL     1       4.957   2.885  19.651  0.00  0.00    +0.000 OA
ATOM      3  H   UNL     1       5.502   3.140  20.425  0.00  0.00    +0.000 HD
ENDBRANCH   1   2
BRANCH   1   4
ATOM      4  C   UNL     1       5.431   5.258  19.554  0.00  0.00    +0.000 C 
BRANCH   4   5
ATOM      5  S   UNL     1       7.190   5.468  19.112  0.00  0.00    +0.000 S 
BRANCH   5   6
ATOM      6  C   UNL     1       7.093   6.328  17.577  0.00  0.00    +0.000 C 
ATOM      7  S   UNL     1       7.573   7.940  17.507  0.00  0.00    +0.000 S 
BRANCH   6   8
ATOM      8  N   UNL     1       6.701   5.539  16.481  0.00  0.00    +0.000 N 
ATOM      9  C   UNL     1       7.401   4.303  16.111  0.00  0.00    +0.000 C 
BRANCH   8  11
ATOM     10  C   UNL     1       5.310   4.886  14.522  0.00  0.00    +0.000 C 
ATOM     11  C   UNL     1       5.591   5.924  15.596  0.00  0.00    +0.000 C 
ENDBRANCH   8  11
ENDBRANCH   6   8
ENDBRANCH   5   6
ENDBRANCH   4   5
ENDBRANCH   1   4
BRANCH   1  12
ATOM     12  C   UNL     1       3.385   4.288  18.366  0.00  0.00    +0.000 C 
BRANCH  12  13
ATOM     13  N   UNL     1       2.648   5.214  19.210  0.00  0.00    +0.000 N 
ATOM     14  C   UNL     1       1.987   4.950  20.390  0.00  0.00    +0.000 A 
ATOM     15  C   UNL     1       1.595   6.170  20.878  0.00  0.00    +0.000 A 
ATOM     16  N   UNL     1       1.975   7.172  20.026  0.00  0.00    +0.000 NA
ATOM     17  C   UNL     1       2.587   6.582  19.018  0.00  0.00    +0.000 A 
ATOM     18  C   UNL     1       3.141   7.290  17.833  0.00  0.00    +0.000 C 
BRANCH  14  19
ATOM     19  N   UNL     1       1.759   3.673  20.976  0.00  0.00    +0.000 N 
ATOM     20  O   UNL     1       2.348   3.390  22.027  0.00  0.00    +0.000 OA
ATOM     21  O   UNL     1       0.973   2.928  20.378  0.00  0.00    +0.000 OA
ENDBRANCH  14  19
ENDBRANCH  12  13
ENDBRANCH   1  12
TORSDOF 9
ENDMDL
MODEL 8
REMARK VINA RESULT:      -5.4      2.129      3.081
REMARK  Name = 
REMARK  12 active torsions:
REMARK  status: ('A' for Active; 'I' for Inactive)
REMARK    1  A    between atoms: C_1  and  C_2
REMARK    2  A    between atoms: C_2  and  N_3
REMARK    3  A    between atoms: N_3  and  C_4
REMARK    4  A    between atoms: N_3  and  C_5
REMARK    5  A    between atoms: C_5  and  S_7
REMARK    6  A    between atoms: S_7  and  C_8
REMARK    7  A    between atoms: C_8  and  C_9
REMARK    8  A    between atoms: C_9  and  O_10
REMARK    9  A    between atoms: C_9  and  C_11
REMARK   10  A    between atoms: C_11  and  N_12
REMARK   11  A    between atoms: C_13  and  N_14
REMARK   12  A    between atoms: C_19  and  C_20
REMARK                            x       y       z     vdW  Elec       q    Type
REMARK                         _______ _______ _______ _____ _____    ______ ____
ROOT
ATOM      1  C   UNL     1       3.696   4.887  17.694  0.00  0.00    +0.000 C 
ENDROOT
BRANCH   1   2
ATOM      2  O   UNL     1       2.338   4.489  17.476  0.00  0.00    +0.000 OA
ATOM      3  H   UNL     1       2.246   4.284  16.522  0.00  0.00    +0.000 HD
ENDBRANCH   1   2
BRANCH   1   4
ATOM      4  C   UNL     1       4.628   3.965  16.886  0.00  0.00    +0.000 C 
BRANCH   4   5
ATOM      5  S   UNL     1       4.949   4.680  15.237  0.00  0.00    +0.000 S 
BRANCH   5   6
ATOM      6  C   UNL     1       6.673   5.038  15.309  0.00  0.00    +0.000 C 
ATOM      7  S   UNL     1       7.578   5.007  13.890  0.00  0.00    +0.000 S 
BRANCH   6   8
ATOM      8  N   UNL     1       7.142   5.428  16.576  0.00  0.00    +0.000 N 
ATOM      9  C   UNL     1       7.702   4.471  17.537  0.00  0.00    +0.000 C 
BRANCH   8  11
ATOM     10  C   UNL     1       7.913   7.074  18.278  0.00  0.00    +0.000 C 
ATOM     11  C   UNL     1       7.057   6.819  17.046  0.00  0.00    +0.000 C 
ENDBRANCH   8  11
ENDBRANCH   6   8
ENDBRANCH   5   6
ENDBRANCH   4   5
ENDBRANCH   1   4
BRANCH   1  12
ATOM     12  C   UNL     1       4.062   4.916  19.191  0.00  0.00    +0.000 C 
BRANCH  12  13
ATOM     13  N   UNL     1       3.178   4.131  20.035  0.00  0.00    +0.000 N 
ATOM     14  C   UNL     1       3.277   2.797  20.365  0.00  0.00    +0.000 A 
ATOM     15  C   UNL     1       2.306   2.573  21.307  0.00  0.00    +0.000 A 
ATOM     16  N   UNL     1       1.599   3.720  21.550  0.00  0.00    +0.000 NA
ATOM     17  C   UNL     1       2.119   4.643  20.763  0.00  0.00    +0.000 A 
ATOM     18  C   UNL     1       1.636   6.046  20.671  0.00  0.00    +0.000 C 
BRANCH  14  19
ATOM     19  N   UNL     1       4.198   1.850  19.834  0.00  0.00    +0.000 N 
ATOM     20  O   UNL     1       5.257   1.649  20.443  0.00  0.00    +0.000 OA
ATOM     21  O   UNL     1       3.863   1.289  18.784  0.00  0.00    +0.000 OA
ENDBRANCH  14  19
ENDBRANCH  12  13
ENDBRANCH   1  12
TORSDOF 9
ENDMDL
MODEL 9
REMARK VINA RESULT:      -5.3      3.153      5.767
REMARK  Name = 
REMARK  12 active torsions:
REMARK  status: ('A' for Active; 'I' for Inactive)
REMARK    1  A    between atoms: C_1  and  C_2
REMARK    2  A    between atoms: C_2  and  N_3
REMARK    3  A    between atoms: N_3  and  C_4
REMARK    4  A    between atoms: N_3  and  C_5
REMARK    5  A    between atoms: C_5  and  S_7
REMARK    6  A    between atoms: S_7  and  C_8
REMARK    7  A    between atoms: C_8  and  C_9
REMARK    8  A    between atoms: C_9  and  O_10
REMARK    9  A    between atoms: C_9  and  C_11
REMARK   10  A    between atoms: C_11  and  N_12
REMARK   11  A    between atoms: C_13  and  N_14
REMARK   12  A    between atoms: C_19  and  C_20
REMARK                            x       y       z     vdW  Elec       q    Type
REMARK                         _______ _______ _______ _____ _____    ______ ____
ROOT
ATOM      1  C   UNL     1       3.870   6.512  17.822  0.00  0.00    +0.000 C 
ENDROOT
BRANCH   1   2
ATOM      2  O   UNL     1       2.976   7.596  18.095  0.00  0.00    +0.000 OA
ATOM      3  H   UNL     1       2.518   7.812  17.256  0.00  0.00    +0.000 HD
ENDBRANCH   1   2
BRANCH   1   4
ATOM      4  C   UNL     1       4.003   5.639  19.085  0.00  0.00    +0.000 C 
BRANCH   4   5
ATOM      5  S   UNL     1       2.377   5.444  19.892  0.00  0.00    +0.000 S 
BRANCH   5   6
ATOM      6  C   UNL     1       2.206   3.692  19.981  0.00  0.00    +0.000 C 
ATOM      7  S   UNL     1       1.452   3.007  21.321  0.00  0.00    +0.000 S 
BRANCH   6   8
ATOM      8  N   UNL     1       2.641   2.998  18.838  0.00  0.00    +0.000 N 
ATOM      9  C   UNL     1       2.106   3.271  17.499  0.00  0.00    +0.000 C 
BRANCH   8  11
ATOM     10  C   UNL     1       4.629   2.105  20.043  0.00  0.00    +0.000 C 
ATOM     11  C   UNL     1       3.631   1.912  18.913  0.00  0.00    +0.000 C 
ENDBRANCH   8  11
ENDBRANCH   6   8
ENDBRANCH   5   6
ENDBRANCH   4   5
ENDBRANCH   1   4
BRANCH   1  12
ATOM     12  C   UNL     1       5.238   6.999  17.306  0.00  0.00    +0.000 C 
BRANCH  12  13
ATOM     13  N   UNL     1       6.188   5.932  17.040  0.00  0.00    +0.000 N 
ATOM     14  C   UNL     1       7.242   5.514  17.821  0.00  0.00    +0.000 A 
ATOM     15  C   UNL     1       7.729   4.383  17.217  0.00  0.00    +0.000 A 
ATOM     16  N   UNL     1       7.022   4.106  16.078  0.00  0.00    +0.000 NA
ATOM     17  C   UNL     1       6.114   5.056  15.971  0.00  0.00    +0.000 A 
ATOM     18  C   UNL     1       5.137   5.172  14.856  0.00  0.00    +0.000 C 
BRANCH  14  19
ATOM     19  N   UNL     1       7.724   6.132  19.010  0.00  0.00    +0.000 N 
ATOM     20  O   UNL     1       8.369   7.183  18.911  0.00  0.00    +0.000 OA
ATOM     21  O   UNL     1       7.453   5.560  20.073  0.00  0.00    +0.000 OA
ENDBRANCH  14  19
ENDBRANCH  12  13
ENDBRANCH   1  12
TORSDOF 9
ENDMDL
