MODEL 1
REMARK VINA RESULT:      -6.9      0.000      0.000
REMARK  Name = 
REMARK  6 active torsions:
REMARK  status: ('A' for Active; 'I' for Inactive)
REMARK    1  A    between atoms: C_1  and  O_2
REMARK    2  A    between atoms: O_2  and  C_3
REMARK    3  A    between atoms: C_6  and  C_7
REMARK    4  A    between atoms: C_7  and  N_8
REMARK    5  A    between atoms: N_8  and  C_9
REMARK    6  A    between atoms: C_13  and  N_14
REMARK                            x       y       z     vdW  Elec       q    Type
REMARK                         _______ _______ _______ _____ _____    ______ ____
ROOT
ATOM      1  N   UNL     1       4.332   7.366  17.709  0.00  0.00    +0.000 N 
ATOM      2  H   UNL     1       4.611   8.331  17.544  0.00  0.00    +0.000 HD
ENDROOT
BRANCH   1   3
ATOM      3  C   UNL     1       5.320   6.448  17.355  0.00  0.00    +0.000 A 
ATOM      4  C   UNL     1       5.997   5.777  18.386  0.00  0.00    +0.000 A 
ATOM      5  C   UNL     1       6.962   4.798  18.122  0.00  0.00    +0.000 A 
ATOM      6  C   UNL     1       7.272   4.467  16.807  0.00  0.00    +0.000 A 
ATOM      7  C   UNL     1       6.591   5.109  15.768  0.00  0.00    +0.000 A 
ATOM      8  C   UNL     1       5.603   6.072  16.038  0.00  0.00    +0.000 A 
BRANCH   7   9
ATOM      9  N   UNL     1       6.919   4.781  14.375  0.00  0.00    +0.000 N 
ATOM     10  O   UNL     1       6.290   3.860  13.837  0.00  0.00    +0.000 OA
ATOM     11  O   UNL     1       7.811   5.441  13.821  0.00  0.00    +0.000 OA
ENDBRANCH   7   9
ENDBRANCH   1   3
BRANCH   1  12
ATOM     12  C   UNL     1       2.926   7.113  17.425  0.00  0.00    +0.000 C 
BRANCH  12  16
ATOM     13  C   UNL     1       1.495   3.866  19.904  0.00  0.00    +0.000 A 
ATOM     14  C   UNL     1       1.426   3.782  18.512  0.00  0.00    +0.000 A 
ATOM     15  C   UNL     1       1.887   4.832  17.712  0.00  0.00    +0.000 A 
ATOM     16  C   UNL     1       2.419   5.987  18.296  0.00  0.00    +0.000 A 
ATOM     17  C   UNL     1       2.450   6.084  19.695  0.00  0.00    +0.000 A 
ATOM     18  C   UNL     1       1.996   5.024  20.494  0.00  0.00    +0.000 A 
BRANCH  13  20
ATOM     19  C   UNL     1       1.555   2.544  21.866  0.00  0.00    +0.000 C 
ATOM     20  O   UNL     1       1.012   2.775  20.573  0.00  0.00    +0.000 OA
ENDBRANCH  13  20
ENDBRANCH  12  16
ENDBRANCH   1  12
TORSDOF 5
ENDMDL
MODEL 2
REMARK VINA RESULT:      -6.7      0.346      1.156
REMARK  Name = 
REMARK  6 active torsions:
REMARK  status: ('A' for Active; 'I' for Inactive)
REMARK    1  A    between atoms: C_1  and  O_2
REMARK    2  A    between atoms: O_2  and  C_3
REMARK    3  A    between atoms: C_6  and  C_7
REMARK    4  A    between atoms: C_7  and  N_8
REMARK    5  A    between atoms: N_8  and  C_9
REMARK    6  A    between atoms: C_13  and  N_14
REMARK                            x       y       z     vdW  Elec       q    Type
REMARK                         _______ _______ _______ _____ _____    ______ ____
ROOT
ATOM      1  N   UNL     1       4.219   7.362  17.769  0.00  0.00    +0.000 N 
ATOM      2  H   UNL     1       4.444   8.320  17.510  0.00  0.00    +0.000 HD
ENDROOT
BRANCH   1   3
ATOM      3  C   UNL     1       5.212   6.454  17.401  0.00  0.00    +0.000 A 
ATOM      4  C   UNL     1       5.885   5.763  18.421  0.00  0.00    +0.000 A 
ATOM      5  C   UNL     1       6.855   4.793  18.141  0.00  0.00    +0.000 A 
ATOM      6  C   UNL     1       7.173   4.491  16.822  0.00  0.00    +0.000 A 
ATOM      7  C   UNL     1       6.495   5.154  15.793  0.00  0.00    +0.000 A 
ATOM      8  C   UNL     1       5.504   6.108  16.079  0.00  0.00    +0.000 A 
BRANCH   7   9
ATOM      9  N   UNL     1       6.832   4.857  14.395  0.00  0.00    +0.000 N 
ATOM     10  O   UNL     1       6.183   3.971  13.822  0.00  0.00    +0.000 OA
ATOM     11  O   UNL     1       7.751   5.505  13.872  0.00  0.00    +0.000 OA
ENDBRANCH   7   9
ENDBRANCH   1   3
BRANCH   1  12
ATOM     12  C   UNL     1       2.807   7.038  17.627  0.00  0.00    +0.000 C 
BRANCH  12  16
ATOM     13  C   UNL     1       1.890   3.377  19.745  0.00  0.00    +0.000 A 
ATOM     14  C   UNL     1       2.267   4.526  20.442  0.00  0.00    +0.000 A 
ATOM     15  C   UNL     1       2.564   5.708  19.757  0.00  0.00    +0.000 A 
ATOM     16  C   UNL     1       2.496   5.754  18.360  0.00  0.00    +0.000 A 
ATOM     17  C   UNL     1       2.155   4.586  17.661  0.00  0.00    +0.000 A 
ATOM     18  C   UNL     1       1.848   3.405  18.353  0.00  0.00    +0.000 A 
BRANCH  13  20
ATOM     19  C   UNL     1       1.460   2.540  21.916  0.00  0.00    +0.000 C 
ATOM     20  O   UNL     1       1.626   2.286  20.528  0.00  0.00    +0.000 OA
ENDBRANCH  13  20
ENDBRANCH  12  16
ENDBRANCH   1  12
TORSDOF 5
ENDMDL
MODEL 3
REMARK VINA RESULT:      -6.7      1.943      2.517
REMARK  Name = 
REMARK  6 active torsions:
REMARK  status: ('A' for Active; 'I' for Inactive)
REMARK    1  A    between atoms: C_1  and  O_2
REMARK    2  A    between atoms: O_2  and  C_3
REMARK    3  A    between atoms: C_6  and  C_7
REMARK    4  A    between atoms: C_7  and  N_8
REMARK    5  A    between atoms: N_8  and  C_9
REMARK    6  A    between atoms: C_13  and  N_14
REMARK                            x       y       z     vdW  Elec       q    Type
REMARK                         _______ _______ _______ _____ _____    ______ ____
ROOT
ATOM      1  N   UNL     1       3.938   7.657  17.701  0.00  0.00    +0.000 N 
ATOM      2  H   UNL     1       4.181   8.622  17.488  0.00  0.00    +0.000 HD
ENDROOT
BRANCH   1   3
ATOM      3  C   UNL     1       4.885   6.745  17.236  0.00  0.00    +0.000 A 
ATOM      4  C   UNL     1       4.850   6.393  15.878  0.00  0.00    +0.000 A 
ATOM      5  C   UNL     1       5.798   5.530  15.314  0.00  0.00    +0.000 A 
ATOM      6  C   UNL     1       6.810   4.998  16.105  0.00  0.00    +0.000 A 
ATOM      7  C   UNL     1       6.872   5.356  17.456  0.00  0.00    +0.000 A 
ATOM      8  C   UNL     1       5.935   6.244  18.012  0.00  0.00    +0.000 A 
BRANCH   7   9
ATOM      9  N   UNL     1       7.925   4.790  18.308  0.00  0.00    +0.000 N 
ATOM     10  O   UNL     1       8.673   3.937  17.810  0.00  0.00    +0.000 OA
ATOM     11  O   UNL     1       8.001   5.193  19.478  0.00  0.00    +0.000 OA
ENDBRANCH   7   9
ENDBRANCH   1   3
BRANCH   1  12
ATOM     12  C   UNL     1       2.511   7.383  17.604  0.00  0.00    +0.000 C 
BRANCH  12  16
ATOM     13  C   UNL     1       1.503   3.857  19.903  0.00  0.00    +0.000 A 
ATOM     14  C   UNL     1       1.878   5.040  20.543  0.00  0.00    +0.000 A 
ATOM     15  C   UNL     1       2.204   6.178  19.800  0.00  0.00    +0.000 A 
ATOM     16  C   UNL     1       2.168   6.145  18.401  0.00  0.00    +0.000 A 
ATOM     17  C   UNL     1       1.829   4.944  17.762  0.00  0.00    +0.000 A 
ATOM     18  C   UNL     1       1.492   3.807  18.512  0.00  0.00    +0.000 A 
BRANCH  13  20
ATOM     19  C   UNL     1       2.092   2.628  21.838  0.00  0.00    +0.000 C 
ATOM     20  O   UNL     1       1.209   2.816  20.741  0.00  0.00    +0.000 OA
ENDBRANCH  13  20
ENDBRANCH  12  16
ENDBRANCH   1  12
TORSDOF 5
ENDMDL
MODEL 4
REMARK VINA RESULT:      -6.7      2.993      6.770
REMARK  Name = 
REMARK  6 active torsions:
REMARK  status: ('A' for Active; 'I' for Inactive)
REMARK    1  A    between atoms: C_1  and  O_2
REMARK    2  A    between atoms: O_2  and  C_3
REMARK    3  A    between atoms: C_6  and  C_7
REMARK    4  A    between atoms: C_7  and  N_8
REMARK    5  A    between atoms: N_8  and  C_9
REMARK    6  A    between atoms: C_13  and  N_14
REMARK                            x       y       z     vdW  Elec       q    Type
REMARK                         _______ _______ _______ _____ _____    ______ ____
ROOT
ATOM      1  N   UNL     1       4.825   3.008  17.382  0.00  0.00    +0.000 N 
ATOM      2  H   UNL     1       5.106   2.091  17.039  0.00  0.00    +0.000 HD
ENDROOT
BRANCH   1   3
ATOM      3  C   UNL     1       3.642   2.972  18.119  0.00  0.00    +0.000 A 
ATOM      4  C   UNL     1       2.553   2.265  17.584  0.00  0.00    +0.000 A 
ATOM      5  C   UNL     1       1.347   2.129  18.281  0.00  0.00    +0.000 A 
ATOM      6  C   UNL     1       1.205   2.701  19.541  0.00  0.00    +0.000 A 
ATOM      7  C   UNL     1       2.288   3.389  20.098  0.00  0.00    +0.000 A 
ATOM      8  C   UNL     1       3.506   3.501  19.406  0.00  0.00    +0.000 A 
BRANCH   7   9
ATOM      9  N   UNL     1       2.147   4.013  21.420  0.00  0.00    +0.000 N 
ATOM     10  O   UNL     1       1.997   5.241  21.464  0.00  0.00    +0.000 OA
ATOM     11  O   UNL     1       2.195   3.274  22.415  0.00  0.00    +0.000 OA
ENDBRANCH   7   9
ENDBRANCH   1   3
BRANCH   1  12
ATOM     12  C   UNL     1       5.101   4.087  16.443  0.00  0.00    +0.000 C 
BRANCH  12  16
ATOM     13  C   UNL     1       7.766   6.979  18.250  0.00  0.00    +0.000 A 
ATOM     14  C   UNL     1       6.932   7.345  17.191  0.00  0.00    +0.000 A 
ATOM     15  C   UNL     1       6.072   6.410  16.608  0.00  0.00    +0.000 A 
ATOM     16  C   UNL     1       6.041   5.089  17.071  0.00  0.00    +0.000 A 
ATOM     17  C   UNL     1       6.908   4.717  18.109  0.00  0.00    +0.000 A 
ATOM     18  C   UNL     1       7.762   5.661  18.699  0.00  0.00    +0.000 A 
BRANCH  13  20
ATOM     19  C   UNL     1       8.313   9.281  18.208  0.00  0.00    +0.000 C 
ATOM     20  O   UNL     1       8.559   7.984  18.733  0.00  0.00    +0.000 OA
ENDBRANCH  13  20
ENDBRANCH  12  16
ENDBRANCH   1  12
TORSDOF 5
ENDMDL
MODEL 5
REMARK VINA RESULT:      -6.7      2.090      2.832
REMARK  Name = 
REMARK  6 active torsions:
REMARK  status: ('A' for Active; 'I' for Inactive)
REMARK    1  A    between atoms: C_1  and  O_2
REMARK    2  A    between atoms: O_2  and  C_3
REMARK    3  A    between atoms: C_6  and  C_7
REMARK    4  A    between atoms: C_7  and  N_8
REMARK    5  A    between atoms: N_8  and  C_9
REMARK    6  A    between atoms: C_13  and  N_14
REMARK                            x       y       z     vdW  Elec       q    Type
REMARK                         _______ _______ _______ _____ _____    ______ ____
ROOT
ATOM      1  N   UNL     1       3.759   3.234  17.928  0.00  0.00    +0.000 N 
ATOM      2  H   UNL     1       3.876   2.802  18.842  0.00  0.00    +0.000 HD
ENDROOT
BRANCH   1   3
ATOM      3  C   UNL     1       4.898   3.916  17.502  0.00  0.00    +0.000 A 
ATOM      4  C   UNL     1       5.725   4.493  18.478  0.00  0.00    +0.000 A 
ATOM      5  C   UNL     1       6.918   5.145  18.145  0.00  0.00    +0.000 A 
ATOM      6  C   UNL     1       7.312   5.234  16.814  0.00  0.00    +0.000 A 
ATOM      7  C   UNL     1       6.511   4.644  15.831  0.00  0.00    +0.000 A 
ATOM      8  C   UNL     1       5.328   3.967  16.172  0.00  0.00    +0.000 A 
BRANCH   7   9
ATOM      9  N   UNL     1       6.906   4.744  14.420  0.00  0.00    +0.000 N 
ATOM     10  O   UNL     1       6.280   4.062  13.597  0.00  0.00    +0.000 OA
ATOM     11  O   UNL     1       7.848   5.498  14.135  0.00  0.00    +0.000 OA
ENDBRANCH   7   9
ENDBRANCH   1   3
BRANCH   1  12
ATOM     12  C   UNL     1       2.425   3.776  17.709  0.00  0.00    +0.000 C 
BRANCH  12  16
ATOM     13  C   UNL     1       1.902   7.345  20.100  0.00  0.00    +0.000 A 
ATOM     14  C   UNL     1       1.600   6.087  20.625  0.00  0.00    +0.000 A 
ATOM     15  C   UNL     1       1.769   4.935  19.852  0.00  0.00    +0.000 A 
ATOM     16  C   UNL     1       2.235   5.027  18.535  0.00  0.00    +0.000 A 
ATOM     17  C   UNL     1       2.499   6.296  17.999  0.00  0.00    +0.000 A 
ATOM     18  C   UNL     1       2.339   7.449  18.782  0.00  0.00    +0.000 A 
BRANCH  13  20
ATOM     19  C   UNL     1       0.369   8.550  21.441  0.00  0.00    +0.000 C 
ATOM     20  O   UNL     1       1.695   8.393  20.956  0.00  0.00    +0.000 OA
ENDBRANCH  13  20
ENDBRANCH  12  16
ENDBRANCH   1  12
TORSDOF 5
ENDMDL
MODEL 6
REMARK VINA RESULT:      -6.7      2.904      3.731
REMARK  Name = 
REMARK  6 active torsions:
REMARK  status: ('A' for Active; 'I' for Inactive)
REMARK    1  A    between atoms: C_1  and  O_2
REMARK    2  A    between atoms: O_2  and  C_3
REMARK    3  A    between atoms: C_6  and  C_7
REMARK    4  A    between atoms: C_7  and  N_8
REMARK    5  A    between atoms: N_8  and  C_9
REMARK    6  A    between atoms: C_13  and  N_14
REMARK                            x       y       z     vdW  Elec       q    Type
REMARK                         _______ _______ _______ _____ _____    ______ ____
ROOT
ATOM      1  N   UNL     1       4.026   2.936  17.681  0.00  0.00    +0.000 N 
ATOM      2  H   UNL     1       4.225   2.331  18.475  0.00  0.00    +0.000 HD
ENDROOT
BRANCH   1   3
ATOM      3  C   UNL     1       5.069   3.817  17.398  0.00  0.00    +0.000 A 
ATOM      4  C   UNL     1       5.300   4.157  16.056  0.00  0.00    +0.000 A 
ATOM      5  C   UNL     1       6.288   5.078  15.686  0.00  0.00    +0.000 A 
ATOM      6  C   UNL     1       7.071   5.685  16.662  0.00  0.00    +0.000 A 
ATOM      7  C   UNL     1       6.838   5.375  18.006  0.00  0.00    +0.000 A 
ATOM      8  C   UNL     1       5.828   4.470  18.375  0.00  0.00    +0.000 A 
BRANCH   7   9
ATOM      9  N   UNL     1       7.667   5.996  19.046  0.00  0.00    +0.000 N 
ATOM     10  O   UNL     1       8.281   7.031  18.753  0.00  0.00    +0.000 OA
ATOM     11  O   UNL     1       7.712   5.443  20.156  0.00  0.00    +0.000 OA
ENDBRANCH   7   9
ENDBRANCH   1   3
BRANCH   1  12
ATOM     12  C   UNL     1       2.635   3.359  17.608  0.00  0.00    +0.000 C 
BRANCH  12  16
ATOM     13  C   UNL     1       2.032   6.957  19.937  0.00  0.00    +0.000 A 
ATOM     14  C   UNL     1       2.371   7.033  18.585  0.00  0.00    +0.000 A 
ATOM     15  C   UNL     1       2.567   5.871  17.834  0.00  0.00    +0.000 A 
ATOM     16  C   UNL     1       2.434   4.611  18.429  0.00  0.00    +0.000 A 
ATOM     17  C   UNL     1       2.132   4.539  19.797  0.00  0.00    +0.000 A 
ATOM     18  C   UNL     1       1.926   5.708  20.545  0.00  0.00    +0.000 A 
BRANCH  13  20
ATOM     19  C   UNL     1       0.706   8.297  21.367  0.00  0.00    +0.000 C 
ATOM     20  O   UNL     1       1.868   8.163  20.561  0.00  0.00    +0.000 OA
ENDBRANCH  13  20
ENDBRANCH  12  16
ENDBRANCH   1  12
TORSDOF 5
ENDMDL
MODEL 7
REMARK VINA RESULT:      -6.6      2.920      3.843
REMARK  Name = 
REMARK  6 active torsions:
REMARK  status: ('A' for Active; 'I' for Inactive)
REMARK    1  A    between atoms: C_1  and  O_2
REMARK    2  A    between atoms: O_2  and  C_3
REMARK    3  A    between atoms: C_6  and  C_7
REMARK    4  A    between atoms: C_7  and  N_8
REMARK    5  A    between atoms: N_8  and  C_9
REMARK    6  A    between atoms: C_13  and  N_14
REMARK                            x       y       z     vdW  Elec       q    Type
REMARK                         _______ _______ _______ _____ _____    ______ ____
ROOT
ATOM      1  N   UNL     1       3.371   5.773  17.939  0.00  0.00    +0.000 N 
ATOM      2  H   UNL     1       2.707   5.127  17.516  0.00  0.00    +0.000 HD
ENDROOT
BRANCH   1   3
ATOM      3  C   UNL     1       4.694   5.484  17.608  0.00  0.00    +0.000 A 
ATOM      4  C   UNL     1       5.618   5.331  18.654  0.00  0.00    +0.000 A 
ATOM      5  C   UNL     1       6.953   4.984  18.417  0.00  0.00    +0.000 A 
ATOM      6  C   UNL     1       7.395   4.778  17.114  0.00  0.00    +0.000 A 
ATOM      7  C   UNL     1       6.482   4.903  16.062  0.00  0.00    +0.000 A 
ATOM      8  C   UNL     1       5.136   5.227  16.307  0.00  0.00    +0.000 A 
BRANCH   7   9
ATOM      9  N   UNL     1       6.938   4.705  14.680  0.00  0.00    +0.000 N 
ATOM     10  O   UNL     1       6.416   3.792  14.026  0.00  0.00    +0.000 OA
ATOM     11  O   UNL     1       7.825   5.459  14.250  0.00  0.00    +0.000 OA
ENDBRANCH   7   9
ENDBRANCH   1   3
BRANCH   1  12
ATOM     12  C   UNL     1       3.000   6.187  19.285  0.00  0.00    +0.000 C 
BRANCH  12  16
ATOM     13  C   UNL     1       0.818   9.921  19.109  0.00  0.00    +0.000 A 
ATOM     14  C   UNL     1       1.455   9.415  17.975  0.00  0.00    +0.000 A 
ATOM     15  C   UNL     1       2.160   8.210  18.032  0.00  0.00    +0.000 A 
ATOM     16  C   UNL     1       2.245   7.495  19.233  0.00  0.00    +0.000 A 
ATOM     17  C   UNL     1       1.637   8.026  20.380  0.00  0.00    +0.000 A 
ATOM     18  C   UNL     1       0.922   9.231  20.315  0.00  0.00    +0.000 A 
BRANCH  13  20
ATOM     19  C   UNL     1      -1.215  11.120  19.272  0.00  0.00    +0.000 C 
ATOM     20  O   UNL     1       0.162  11.107  18.923  0.00  0.00    +0.000 OA
ENDBRANCH  13  20
ENDBRANCH  12  16
ENDBRANCH   1  12
TORSDOF 5
ENDMDL
MODEL 8
REMARK VINA RESULT:      -6.6      2.862      3.900
REMARK  Name = 
REMARK  6 active torsions:
REMARK  status: ('A' for Active; 'I' for Inactive)
REMARK    1  A    between atoms: C_1  and  O_2
REMARK    2  A    between atoms: O_2  and  C_3
REMARK    3  A    between atoms: C_6  and  C_7
REMARK    4  A    between atoms: C_7  and  N_8
REMARK    5  A    between atoms: N_8  and  C_9
REMARK    6  A    between atoms: C_13  and  N_14
REMARK                            x       y       z     vdW  Elec       q    Type
REMARK                         _______ _______ _______ _____ _____    ______ ____
ROOT
ATOM      1  N   UNL     1       3.332   5.350  18.290  0.00  0.00    +0.000 N 
ATOM      2  H   UNL     1       2.785   4.530  18.035  0.00  0.00    +0.000 HD
ENDROOT
BRANCH   1   3
ATOM      3  C   UNL     1       4.669   5.248  17.908  0.00  0.00    +0.000 A 
ATOM      4  C   UNL     1       5.648   5.299  18.913  0.00  0.00    +0.000 A 
ATOM      5  C   UNL     1       7.010   5.146  18.626  0.00  0.00    +0.000 A 
ATOM      6  C   UNL     1       7.424   4.936  17.315  0.00  0.00    +0.000 A 
ATOM      7  C   UNL     1       6.460   4.860  16.305  0.00  0.00    +0.000 A 
ATOM      8  C   UNL     1       5.092   4.987  16.601  0.00  0.00    +0.000 A 
BRANCH   7   9
ATOM      9  N   UNL     1       6.883   4.655  14.914  0.00  0.00    +0.000 N 
ATOM     10  O   UNL     1       6.333   3.750  14.272  0.00  0.00    +0.000 OA
ATOM     11  O   UNL     1       7.771   5.395  14.465  0.00  0.00    +0.000 OA
ENDBRANCH   7   9
ENDBRANCH   1   3
BRANCH   1  12
ATOM     12  C   UNL     1       2.953   5.925  19.573  0.00  0.00    +0.000 C 
BRANCH  12  16
ATOM     13  C   UNL     1       1.068   9.778  18.990  0.00  0.00    +0.000 A 
ATOM     14  C   UNL     1       1.029   9.148  20.236  0.00  0.00    +0.000 A 
ATOM     15  C   UNL     1       1.637   7.904  20.423  0.00  0.00    +0.000 A 
ATOM     16  C   UNL     1       2.288   7.265  19.360  0.00  0.00    +0.000 A 
ATOM     17  C   UNL     1       2.290   7.883  18.101  0.00  0.00    +0.000 A 
ATOM     18  C   UNL     1       1.688   9.137  17.920  0.00  0.00    +0.000 A 
BRANCH  13  20
ATOM     19  C   UNL     1      -0.763  11.104  19.688  0.00  0.00    +0.000 C 
ATOM     20  O   UNL     1       0.437  10.991  18.937  0.00  0.00    +0.000 OA
ENDBRANCH  13  20
ENDBRANCH  12  16
ENDBRANCH   1  12
TORSDOF 5
ENDMDL
MODEL 9
REMARK VINA RESULT:      -6.5      3.325      4.526
REMARK  Name = 
REMARK  6 active torsions:
REMARK  status: ('A' for Active; 'I' for Inactive)
REMARK    1  A    between atoms: C_1  and  O_2
REMARK    2  A    between atoms: O_2  and  C_3
REMARK    3  A    between atoms: C_6  and  C_7
REMARK    4  A    between atoms: C_7  and  N_8
REMARK    5  A    between atoms: N_8  and  C_9
REMARK    6  A    between atoms: C_13  and  N_14
REMARK                            x       y       z     vdW  Elec       q    Type
REMARK                         _______ _______ _______ _____ _____    ______ ____
ROOT
ATOM      1  N   UNL     1       3.749   5.834  19.883  0.00  0.00    +0.000 N 
ATOM      2  H   UNL     1       4.316   6.647  20.114  0.00  0.00    +0.000 HD
ENDROOT
BRANCH   1   3
ATOM      3  C   UNL     1       4.232   5.133  18.779  0.00  0.00    +0.000 A 
ATOM      4  C   UNL     1       3.324   4.359  18.039  0.00  0.00    +0.000 A 
ATOM      5  C   UNL     1       3.710   3.669  16.884  0.00  0.00    +0.000 A 
ATOM      6  C   UNL     1       5.027   3.741  16.441  0.00  0.00    +0.000 A 
ATOM      7  C   UNL     1       5.939   4.526  17.153  0.00  0.00    +0.000 A 
ATOM      8  C   UNL     1       5.541   5.238  18.297  0.00  0.00    +0.000 A 
BRANCH   7   9
ATOM      9  N   UNL     1       7.336   4.598  16.706  0.00  0.00    +0.000 N 
ATOM     10  O   UNL     1       8.211   4.192  17.483  0.00  0.00    +0.000 OA
ATOM     11  O   UNL     1       7.559   5.069  15.580  0.00  0.00    +0.000 OA
ENDBRANCH   7   9
ENDBRANCH   1   3
BRANCH   1  12
ATOM     12  C   UNL     1       2.322   6.048  20.079  0.00  0.00    +0.000 C 
BRANCH  12  16
ATOM     13  C   UNL     1       1.270  10.078  18.904  0.00  0.00    +0.000 A 
ATOM     14  C   UNL     1       0.977   9.612  20.187  0.00  0.00    +0.000 A 
ATOM     15  C   UNL     1       1.316   8.310  20.565  0.00  0.00    +0.000 A 
ATOM     16  C   UNL     1       1.948   7.450  19.659  0.00  0.00    +0.000 A 
ATOM     17  C   UNL     1       2.204   7.909  18.359  0.00  0.00    +0.000 A 
ATOM     18  C   UNL     1       1.872   9.220  17.987  0.00  0.00    +0.000 A 
BRANCH  13  20
ATOM     19  C   UNL     1       0.527  12.142  19.793  0.00  0.00    +0.000 C 
ATOM     20  O   UNL     1       0.888  11.368  18.657  0.00  0.00    +0.000 OA
ENDBRANCH  13  20
ENDBRANCH  12  16
ENDBRANCH   1  12
TORSDOF 5
ENDMDL
