MODEL 1
REMARK VINA RESULT:      -8.4      0.000      0.000
REMARK  Name = 
REMARK  2 active torsions:
REMARK  status: ('A' for Active; 'I' for Inactive)
REMARK    1  A    between atoms: N_9  and  C_10
REMARK    2  A    between atoms: C_10  and  C_11
REMARK                            x       y       z     vdW  Elec       q    Type
REMARK                         _______ _______ _______ _____ _____    ______ ____
ROOT
ATOM      1  O   UNL     1       1.949   2.214  16.896  0.00  0.00    +0.000 OA
ATOM      2  C   UNL     1       2.775   2.783  17.593  0.00  0.00    +0.000 C 
ATOM      3  N   UNL     1       4.067   2.997  17.183  0.00  0.00    +0.000 N 
ATOM      4  C   UNL     1       5.055   3.614  18.048  0.00  0.00    +0.000 C 
ATOM      5  C   UNL     1       4.818   5.143  18.204  0.00  0.00    +0.000 C 
ATOM      6  C   UNL     1       5.712   5.762  19.303  0.00  0.00    +0.000 C 
ATOM      7  C   UNL     1       7.162   5.959  18.873  0.00  0.00    +0.000 C 
ATOM      8  C   UNL     1       7.266   6.733  17.554  0.00  0.00    +0.000 C 
ATOM      9  N   UNL     1       6.516   6.127  16.448  0.00  0.00    +0.000 NA
ATOM     10  C   UNL     1       5.099   5.926  16.870  0.00  0.00    +0.000 C 
ATOM     11  O   UNL     1       3.425   5.427  18.583  0.00  0.00    +0.000 OA
ATOM     12  C   UNL     1       2.846   4.497  19.416  0.00  0.00    +0.000 A 
ATOM     13  C   UNL     1       2.637   4.843  20.748  0.00  0.00    +0.000 A 
ATOM     14  C   UNL     1       2.156   3.886  21.647  0.00  0.00    +0.000 A 
ATOM     15  C   UNL     1       1.849   2.593  21.210  0.00  0.00    +0.000 A 
ATOM     16  C   UNL     1       1.985   2.263  19.864  0.00  0.00    +0.000 A 
ATOM     17  C   UNL     1       2.474   3.219  18.970  0.00  0.00    +0.000 A 
ATOM     18  H   UNL     1       4.268   2.760  16.218  0.00  0.00    +0.000 HD
ENDROOT
BRANCH   9  19
ATOM     19  C   UNL     1       7.112   4.887  15.932  0.00  0.00    +0.000 C 
BRANCH  19  20
ATOM     20  C   UNL     1       7.018   4.557  14.468  0.00  0.00    +0.000 A 
ATOM     21  C   UNL     1       6.009   3.672  14.048  0.00  0.00    +0.000 A 
ATOM     22  C   UNL     1       5.825   3.405  12.699  0.00  0.00    +0.000 A 
ATOM     23  C   UNL     1       6.659   4.037  11.798  0.00  0.00    +0.000 A 
ATOM     24  N   UNL     1       7.637   4.893  12.159  0.00  0.00    +0.000 NA
ATOM     25  C   UNL     1       7.793   5.148  13.484  0.00  0.00    +0.000 A 
ENDBRANCH  19  20
ENDBRANCH   9  19
TORSDOF 2
ENDMDL
MODEL 2
REMARK VINA RESULT:      -8.0      0.719      1.083
REMARK  Name = 
REMARK  2 active torsions:
REMARK  status: ('A' for Active; 'I' for Inactive)
REMARK    1  A    between atoms: N_9  and  C_10
REMARK    2  A    between atoms: C_10  and  C_11
REMARK                            x       y       z     vdW  Elec       q    Type
REMARK                         _______ _______ _______ _____ _____    ______ ____
ROOT
ATOM      1  O   UNL     1       1.782   3.093  16.682  0.00  0.00    +0.000 OA
ATOM      2  C   UNL     1       2.664   3.448  17.449  0.00  0.00    +0.000 C 
ATOM      3  N   UNL     1       3.987   3.490  17.086  0.00  0.00    +0.000 N 
ATOM      4  C   UNL     1       5.030   3.848  18.028  0.00  0.00    +0.000 C 
ATOM      5  C   UNL     1       5.035   5.372  18.338  0.00  0.00    +0.000 C 
ATOM      6  C   UNL     1       5.979   5.724  19.512  0.00  0.00    +0.000 C 
ATOM      7  C   UNL     1       7.456   5.726  19.129  0.00  0.00    +0.000 C 
ATOM      8  C   UNL     1       7.725   6.602  17.901  0.00  0.00    +0.000 C 
ATOM      9  N   UNL     1       6.927   6.240  16.724  0.00  0.00    +0.000 NA
ATOM     10  C   UNL     1       5.483   6.229  17.099  0.00  0.00    +0.000 C 
ATOM     11  O   UNL     1       3.693   5.838  18.722  0.00  0.00    +0.000 OA
ATOM     12  C   UNL     1       2.946   4.936  19.442  0.00  0.00    +0.000 A 
ATOM     13  C   UNL     1       2.750   5.175  20.799  0.00  0.00    +0.000 A 
ATOM     14  C   UNL     1       2.093   4.223  21.585  0.00  0.00    +0.000 A 
ATOM     15  C   UNL     1       1.599   3.047  21.010  0.00  0.00    +0.000 A 
ATOM     16  C   UNL     1       1.725   2.836  19.640  0.00  0.00    +0.000 A 
ATOM     17  C   UNL     1       2.390   3.786  18.859  0.00  0.00    +0.000 A 
ATOM     18  H   UNL     1       4.180   3.322  16.105  0.00  0.00    +0.000 HD
ENDROOT
BRANCH   9  19
ATOM     19  C   UNL     1       7.334   4.978  16.092  0.00  0.00    +0.000 C 
BRANCH  19  20
ATOM     20  C   UNL     1       7.015   4.722  14.645  0.00  0.00    +0.000 A 
ATOM     21  C   UNL     1       7.812   5.345  13.667  0.00  0.00    +0.000 A 
ATOM     22  C   UNL     1       7.615   5.071  12.321  0.00  0.00    +0.000 A 
ATOM     23  C   UNL     1       6.621   4.174  11.985  0.00  0.00    +0.000 A 
ATOM     24  N   UNL     1       5.836   3.555  12.891  0.00  0.00    +0.000 NA
ATOM     25  C   UNL     1       6.054   3.829  14.204  0.00  0.00    +0.000 A 
ENDBRANCH  19  20
ENDBRANCH   9  19
TORSDOF 2
ENDMDL
MODEL 3
REMARK VINA RESULT:      -7.6      3.257      4.892
REMARK  Name = 
REMARK  2 active torsions:
REMARK  status: ('A' for Active; 'I' for Inactive)
REMARK    1  A    between atoms: N_9  and  C_10
REMARK    2  A    between atoms: C_10  and  C_11
REMARK                            x       y       z     vdW  Elec       q    Type
REMARK                         _______ _______ _______ _____ _____    ______ ____
ROOT
ATOM      1  O   UNL     1       2.916   9.825  17.465  0.00  0.00    +0.000 OA
ATOM      2  C   UNL     1       2.393   8.878  18.033  0.00  0.00    +0.000 C 
ATOM      3  N   UNL     1       2.601   7.578  17.646  0.00  0.00    +0.000 N 
ATOM      4  C   UNL     1       1.921   6.469  18.287  0.00  0.00    +0.000 C 
ATOM      5  C   UNL     1       2.495   6.172  19.700  0.00  0.00    +0.000 C 
ATOM      6  C   UNL     1       1.628   5.158  20.482  0.00  0.00    +0.000 C 
ATOM      7  C   UNL     1       1.816   3.714  20.025  0.00  0.00    +0.000 C 
ATOM      8  C   UNL     1       3.294   3.308  20.014  0.00  0.00    +0.000 C 
ATOM      9  N   UNL     1       4.146   4.182  19.200  0.00  0.00    +0.000 NA
ATOM     10  C   UNL     1       3.957   5.595  19.639  0.00  0.00    +0.000 C 
ATOM     11  O   UNL     1       2.551   7.396  20.517  0.00  0.00    +0.000 OA
ATOM     12  C   UNL     1       1.523   8.286  20.304  0.00  0.00    +0.000 A 
ATOM     13  C   UNL     1       0.542   8.408  21.284  0.00  0.00    +0.000 A 
ATOM     14  C   UNL     1      -0.574   9.217  21.051  0.00  0.00    +0.000 A 
ATOM     15  C   UNL     1      -0.695   9.934  19.856  0.00  0.00    +0.000 A 
ATOM     16  C   UNL     1       0.319   9.874  18.904  0.00  0.00    +0.000 A 
ATOM     17  C   UNL     1       1.430   9.058  19.135  0.00  0.00    +0.000 A 
ATOM     18  H   UNL     1       3.309   7.438  16.934  0.00  0.00    +0.000 HD
ENDROOT
BRANCH   9  19
ATOM     19  C   UNL     1       3.945   4.030  17.752  0.00  0.00    +0.000 C 
BRANCH  19  20
ATOM     20  C   UNL     1       5.096   4.233  16.806  0.00  0.00    +0.000 A 
ATOM     21  C   UNL     1       4.822   4.299  15.428  0.00  0.00    +0.000 A 
ATOM     22  C   UNL     1       5.837   4.574  14.522  0.00  0.00    +0.000 A 
ATOM     23  C   UNL     1       7.107   4.780  15.021  0.00  0.00    +0.000 A 
ATOM     24  N   UNL     1       7.412   4.726  16.334  0.00  0.00    +0.000 NA
ATOM     25  C   UNL     1       6.402   4.467  17.204  0.00  0.00    +0.000 A 
ENDBRANCH  19  20
ENDBRANCH   9  19
TORSDOF 2
ENDMDL
MODEL 4
REMARK VINA RESULT:      -6.7      2.214      3.710
REMARK  Name = 
REMARK  2 active torsions:
REMARK  status: ('A' for Active; 'I' for Inactive)
REMARK    1  A    between atoms: N_9  and  C_10
REMARK    2  A    between atoms: C_10  and  C_11
REMARK                            x       y       z     vdW  Elec       q    Type
REMARK                         _______ _______ _______ _____ _____    ______ ____
ROOT
ATOM      1  O   UNL     1       4.814   0.876  20.094  0.00  0.00    +0.000 OA
ATOM      2  C   UNL     1       4.488   2.020  19.813  0.00  0.00    +0.000 C 
ATOM      3  N   UNL     1       5.371   2.933  19.294  0.00  0.00    +0.000 N 
ATOM      4  C   UNL     1       4.986   4.307  19.029  0.00  0.00    +0.000 C 
ATOM      5  C   UNL     1       4.077   4.425  17.773  0.00  0.00    +0.000 C 
ATOM      6  C   UNL     1       3.471   5.840  17.623  0.00  0.00    +0.000 C 
ATOM      7  C   UNL     1       4.459   6.874  17.092  0.00  0.00    +0.000 C 
ATOM      8  C   UNL     1       5.136   6.405  15.799  0.00  0.00    +0.000 C 
ATOM      9  N   UNL     1       5.816   5.111  15.918  0.00  0.00    +0.000 NA
ATOM     10  C   UNL     1       4.854   4.100  16.445  0.00  0.00    +0.000 C 
ATOM     11  O   UNL     1       2.945   3.487  17.849  0.00  0.00    +0.000 OA
ATOM     12  C   UNL     1       2.442   3.281  19.113  0.00  0.00    +0.000 A 
ATOM     13  C   UNL     1       1.209   3.842  19.432  0.00  0.00    +0.000 A 
ATOM     14  C   UNL     1       0.721   3.748  20.740  0.00  0.00    +0.000 A 
ATOM     15  C   UNL     1       1.447   3.064  21.721  0.00  0.00    +0.000 A 
ATOM     16  C   UNL     1       2.645   2.437  21.389  0.00  0.00    +0.000 A 
ATOM     17  C   UNL     1       3.134   2.539  20.084  0.00  0.00    +0.000 A 
ATOM     18  H   UNL     1       6.284   2.571  19.044  0.00  0.00    +0.000 HD
ENDROOT
BRANCH   9  19
ATOM     19  C   UNL     1       7.049   5.157  16.716  0.00  0.00    +0.000 C 
BRANCH  19  20
ATOM     20  C   UNL     1       7.492   6.449  17.345  0.00  0.00    +0.000 A 
ATOM     21  C   UNL     1       7.976   6.415  18.666  0.00  0.00    +0.000 A 
ATOM     22  C   UNL     1       8.479   7.564  19.260  0.00  0.00    +0.000 A 
ATOM     23  C   UNL     1       8.489   8.724  18.511  0.00  0.00    +0.000 A 
ATOM     24  N   UNL     1       8.036   8.799  17.243  0.00  0.00    +0.000 NA
ATOM     25  C   UNL     1       7.558   7.660  16.677  0.00  0.00    +0.000 A 
ENDBRANCH  19  20
ENDBRANCH   9  19
TORSDOF 2
ENDMDL
MODEL 5
REMARK VINA RESULT:      -6.6      7.419      8.838
REMARK  Name = 
REMARK  2 active torsions:
REMARK  status: ('A' for Active; 'I' for Inactive)
REMARK    1  A    between atoms: N_9  and  C_10
REMARK    2  A    between atoms: C_10  and  C_11
REMARK                            x       y       z     vdW  Elec       q    Type
REMARK                         _______ _______ _______ _____ _____    ______ ____
ROOT
ATOM      1  O   UNL     1      -3.026  11.233  15.117  0.00  0.00    +0.000 OA
ATOM      2  C   UNL     1      -2.832  10.945  16.289  0.00  0.00    +0.000 C 
ATOM      3  N   UNL     1      -1.881  10.036  16.678  0.00  0.00    +0.000 N 
ATOM      4  C   UNL     1      -1.708   9.653  18.067  0.00  0.00    +0.000 C 
ATOM      5  C   UNL     1      -1.024  10.774  18.899  0.00  0.00    +0.000 C 
ATOM      6  C   UNL     1      -1.052  10.475  20.416  0.00  0.00    +0.000 C 
ATOM      7  C   UNL     1      -0.029   9.429  20.851  0.00  0.00    +0.000 C 
ATOM      8  C   UNL     1       1.383   9.777  20.368  0.00  0.00    +0.000 C 
ATOM      9  N   UNL     1       1.484   9.970  18.917  0.00  0.00    +0.000 NA
ATOM     10  C   UNL     1       0.479  10.985  18.487  0.00  0.00    +0.000 C 
ATOM     11  O   UNL     1      -1.706  12.065  18.711  0.00  0.00    +0.000 OA
ATOM     12  C   UNL     1      -3.070  11.985  18.553  0.00  0.00    +0.000 A 
ATOM     13  C   UNL     1      -3.882  12.402  19.603  0.00  0.00    +0.000 A 
ATOM     14  C   UNL     1      -5.267  12.231  19.521  0.00  0.00    +0.000 A 
ATOM     15  C   UNL     1      -5.847  11.675  18.375  0.00  0.00    +0.000 A 
ATOM     16  C   UNL     1      -5.047  11.325  17.291  0.00  0.00    +0.000 A 
ATOM     17  C   UNL     1      -3.662  11.491  17.379  0.00  0.00    +0.000 A 
ATOM     18  H   UNL     1      -1.263   9.703  15.947  0.00  0.00    +0.000 HD
ENDROOT
BRANCH   9  19
ATOM     19  C   UNL     1       1.369   8.727  18.140  0.00  0.00    +0.000 C 
BRANCH  19  20
ATOM     20  C   UNL     1       2.407   7.649  18.284  0.00  0.00    +0.000 A 
ATOM     21  C   UNL     1       3.487   7.640  17.381  0.00  0.00    +0.000 A 
ATOM     22  C   UNL     1       4.516   6.721  17.527  0.00  0.00    +0.000 A 
ATOM     23  C   UNL     1       4.441   5.831  18.579  0.00  0.00    +0.000 A 
ATOM     24  N   UNL     1       3.425   5.807  19.466  0.00  0.00    +0.000 NA
ATOM     25  C   UNL     1       2.433   6.723  19.312  0.00  0.00    +0.000 A 
ENDBRANCH  19  20
ENDBRANCH   9  19
TORSDOF 2
ENDMDL
MODEL 6
REMARK VINA RESULT:      -6.4      9.861     12.473
REMARK  Name = 
REMARK  2 active torsions:
REMARK  status: ('A' for Active; 'I' for Inactive)
REMARK    1  A    between atoms: N_9  and  C_10
REMARK    2  A    between atoms: C_10  and  C_11
REMARK                            x       y       z     vdW  Elec       q    Type
REMARK                         _______ _______ _______ _____ _____    ______ ____
ROOT
ATOM      1  O   UNL     1      -5.416  11.794  19.361  0.00  0.00    +0.000 OA
ATOM      2  C   UNL     1      -4.246  11.865  19.018  0.00  0.00    +0.000 C 
ATOM      3  N   UNL     1      -3.335  12.664  19.663  0.00  0.00    +0.000 N 
ATOM      4  C   UNL     1      -1.965  12.790  19.203  0.00  0.00    +0.000 C 
ATOM      5  C   UNL     1      -1.124  11.522  19.521  0.00  0.00    +0.000 C 
ATOM      6  C   UNL     1       0.258  11.549  18.829  0.00  0.00    +0.000 C 
ATOM      7  C   UNL     1       1.264  12.472  19.511  0.00  0.00    +0.000 C 
ATOM      8  C   UNL     1       1.385  12.176  21.010  0.00  0.00    +0.000 C 
ATOM      9  N   UNL     1       0.110  12.239  21.734  0.00  0.00    +0.000 NA
ATOM     10  C   UNL     1      -0.877  11.344  21.064  0.00  0.00    +0.000 C 
ATOM     11  O   UNL     1      -1.806  10.304  19.052  0.00  0.00    +0.000 OA
ATOM     12  C   UNL     1      -2.521  10.448  17.885  0.00  0.00    +0.000 A 
ATOM     13  C   UNL     1      -2.011   9.876  16.724  0.00  0.00    +0.000 A 
ATOM     14  C   UNL     1      -2.652  10.098  15.501  0.00  0.00    +0.000 A 
ATOM     15  C   UNL     1      -3.822  10.863  15.441  0.00  0.00    +0.000 A 
ATOM     16  C   UNL     1      -4.378  11.376  16.610  0.00  0.00    +0.000 A 
ATOM     17  C   UNL     1      -3.730  11.158  17.830  0.00  0.00    +0.000 A 
ATOM     18  H   UNL     1      -3.660  13.103  20.517  0.00  0.00    +0.000 HD
ENDROOT
BRANCH   9  19
ATOM     19  C   UNL     1      -0.415  13.602  21.899  0.00  0.00    +0.000 C 
BRANCH  19  20
ATOM     20  C   UNL     1      -1.314  13.927  23.060  0.00  0.00    +0.000 A 
ATOM     21  C   UNL     1      -0.917  14.947  23.945  0.00  0.00    +0.000 A 
ATOM     22  C   UNL     1      -1.752  15.345  24.979  0.00  0.00    +0.000 A 
ATOM     23  C   UNL     1      -2.972  14.711  25.101  0.00  0.00    +0.000 A 
ATOM     24  N   UNL     1      -3.391  13.730  24.275  0.00  0.00    +0.000 NA
ATOM     25  C   UNL     1      -2.562  13.364  23.263  0.00  0.00    +0.000 A 
ENDBRANCH  19  20
ENDBRANCH   9  19
TORSDOF 2
ENDMDL
MODEL 7
REMARK VINA RESULT:      -6.3      8.319     10.610
REMARK  Name = 
REMARK  2 active torsions:
REMARK  status: ('A' for Active; 'I' for Inactive)
REMARK    1  A    between atoms: N_9  and  C_10
REMARK    2  A    between atoms: C_10  and  C_11
REMARK                            x       y       z     vdW  Elec       q    Type
REMARK                         _______ _______ _______ _____ _____    ______ ____
ROOT
ATOM      1  O   UNL     1       4.880  14.794  18.655  0.00  0.00    +0.000 OA
ATOM      2  C   UNL     1       3.701  14.589  18.409  0.00  0.00    +0.000 C 
ATOM      3  N   UNL     1       3.209  13.335  18.147  0.00  0.00    +0.000 N 
ATOM      4  C   UNL     1       1.820  13.116  17.790  0.00  0.00    +0.000 C 
ATOM      5  C   UNL     1       0.873  13.266  19.014  0.00  0.00    +0.000 C 
ATOM      6  C   UNL     1      -0.617  13.271  18.601  0.00  0.00    +0.000 C 
ATOM      7  C   UNL     1      -1.161  11.887  18.262  0.00  0.00    +0.000 C 
ATOM      8  C   UNL     1      -0.885  10.875  19.379  0.00  0.00    +0.000 C 
ATOM      9  N   UNL     1       0.533  10.757  19.738  0.00  0.00    +0.000 NA
ATOM     10  C   UNL     1       1.069  12.110  20.062  0.00  0.00    +0.000 C 
ATOM     11  O   UNL     1       1.120  14.533  19.721  0.00  0.00    +0.000 OA
ATOM     12  C   UNL     1       1.465  15.593  18.915  0.00  0.00    +0.000 A 
ATOM     13  C   UNL     1       0.525  16.598  18.706  0.00  0.00    +0.000 A 
ATOM     14  C   UNL     1       0.801  17.631  17.804  0.00  0.00    +0.000 A 
ATOM     15  C   UNL     1       2.030  17.681  17.136  0.00  0.00    +0.000 A 
ATOM     16  C   UNL     1       3.003  16.720  17.397  0.00  0.00    +0.000 A 
ATOM     17  C   UNL     1       2.721  15.685  18.293  0.00  0.00    +0.000 A 
ATOM     18  H   UNL     1       3.857  12.568  18.286  0.00  0.00    +0.000 HD
ENDROOT
BRANCH   9  19
ATOM     19  C   UNL     1       1.350  10.076  18.723  0.00  0.00    +0.000 C 
BRANCH  19  20
ATOM     20  C   UNL     1       1.846   8.678  18.969  0.00  0.00    +0.000 A 
ATOM     21  C   UNL     1       1.585   8.089  20.220  0.00  0.00    +0.000 A 
ATOM     22  C   UNL     1       1.944   6.771  20.465  0.00  0.00    +0.000 A 
ATOM     23  C   UNL     1       2.557   6.071  19.445  0.00  0.00    +0.000 A 
ATOM     24  N   UNL     1       2.825   6.598  18.232  0.00  0.00    +0.000 NA
ATOM     25  C   UNL     1       2.455   7.886  18.011  0.00  0.00    +0.000 A 
ENDBRANCH  19  20
ENDBRANCH   9  19
TORSDOF 2
ENDMDL
MODEL 8
REMARK VINA RESULT:      -6.3      8.455     10.603
REMARK  Name = 
REMARK  2 active torsions:
REMARK  status: ('A' for Active; 'I' for Inactive)
REMARK    1  A    between atoms: N_9  and  C_10
REMARK    2  A    between atoms: C_10  and  C_11
REMARK                            x       y       z     vdW  Elec       q    Type
REMARK                         _______ _______ _______ _____ _____    ______ ____
ROOT
ATOM      1  O   UNL     1       4.071  15.159  19.717  0.00  0.00    +0.000 OA
ATOM      2  C   UNL     1       3.015  14.790  19.225  0.00  0.00    +0.000 C 
ATOM      3  N   UNL     1       2.792  13.490  18.844  0.00  0.00    +0.000 N 
ATOM      4  C   UNL     1       1.559  13.081  18.199  0.00  0.00    +0.000 C 
ATOM      5  C   UNL     1       0.370  13.024  19.199  0.00  0.00    +0.000 C 
ATOM      6  C   UNL     1      -0.986  12.824  18.482  0.00  0.00    +0.000 C 
ATOM      7  C   UNL     1      -1.222  11.392  18.012  0.00  0.00    +0.000 C 
ATOM      8  C   UNL     1      -1.023  10.379  19.145  0.00  0.00    +0.000 C 
ATOM      9  N   UNL     1       0.291  10.459  19.792  0.00  0.00    +0.000 NA
ATOM     10  C   UNL     1       0.528  11.861  20.245  0.00  0.00    +0.000 C 
ATOM     11  O   UNL     1       0.261  14.277  19.963  0.00  0.00    +0.000 OA
ATOM     12  C   UNL     1       0.592  15.416  19.266  0.00  0.00    +0.000 A 
ATOM     13  C   UNL     1      -0.433  16.276  18.882  0.00  0.00    +0.000 A 
ATOM     14  C   UNL     1      -0.145  17.382  18.076  0.00  0.00    +0.000 A 
ATOM     15  C   UNL     1       1.170  17.652  17.683  0.00  0.00    +0.000 A 
ATOM     16  C   UNL     1       2.209  16.838  18.126  0.00  0.00    +0.000 A 
ATOM     17  C   UNL     1       1.918  15.728  18.925  0.00  0.00    +0.000 A 
ATOM     18  H   UNL     1       3.512  12.825  19.104  0.00  0.00    +0.000 HD
ENDROOT
BRANCH   9  19
ATOM     19  C   UNL     1       1.397   9.962  18.960  0.00  0.00    +0.000 C 
BRANCH  19  20
ATOM     20  C   UNL     1       1.820   8.522  19.052  0.00  0.00    +0.000 A 
ATOM     21  C   UNL     1       2.495   7.955  17.955  0.00  0.00    +0.000 A 
ATOM     22  C   UNL     1       2.984   6.659  18.025  0.00  0.00    +0.000 A 
ATOM     23  C   UNL     1       2.787   5.958  19.198  0.00  0.00    +0.000 A 
ATOM     24  N   UNL     1       2.147   6.465  20.272  0.00  0.00    +0.000 NA
ATOM     25  C   UNL     1       1.686   7.740  20.186  0.00  0.00    +0.000 A 
ENDBRANCH  19  20
ENDBRANCH   9  19
TORSDOF 2
ENDMDL
MODEL 9
REMARK VINA RESULT:      -6.3      9.084     10.812
REMARK  Name = 
REMARK  2 active torsions:
REMARK  status: ('A' for Active; 'I' for Inactive)
REMARK    1  A    between atoms: N_9  and  C_10
REMARK    2  A    between atoms: C_10  and  C_11
REMARK                            x       y       z     vdW  Elec       q    Type
REMARK                         _______ _______ _______ _____ _____    ______ ____
ROOT
ATOM      1  O   UNL     1       1.796  10.049  17.387  0.00  0.00    +0.000 OA
ATOM      2  C   UNL     1       1.471  10.467  18.488  0.00  0.00    +0.000 C 
ATOM      3  N   UNL     1       1.603  11.786  18.845  0.00  0.00    +0.000 N 
ATOM      4  C   UNL     1       1.276  12.256  20.178  0.00  0.00    +0.000 C 
ATOM      5  C   UNL     1      -0.259  12.312  20.416  0.00  0.00    +0.000 C 
ATOM      6  C   UNL     1      -0.611  12.580  21.897  0.00  0.00    +0.000 C 
ATOM      7  C   UNL     1      -0.422  14.035  22.317  0.00  0.00    +0.000 C 
ATOM      8  C   UNL     1      -1.153  14.999  21.377  0.00  0.00    +0.000 C 
ATOM      9  N   UNL     1      -0.777  14.855  19.966  0.00  0.00    +0.000 NA
ATOM     10  C   UNL     1      -0.953  13.432  19.556  0.00  0.00    +0.000 C 
ATOM     11  O   UNL     1      -0.898  11.036  20.055  0.00  0.00    +0.000 OA
ATOM     12  C   UNL     1      -0.147   9.914  20.316  0.00  0.00    +0.000 A 
ATOM     13  C   UNL     1      -0.523   9.100  21.381  0.00  0.00    +0.000 A 
ATOM     14  C   UNL     1       0.281   8.016  21.744  0.00  0.00    +0.000 A 
ATOM     15  C   UNL     1       1.443   7.721  21.024  0.00  0.00    +0.000 A 
ATOM     16  C   UNL     1       1.786   8.486  19.912  0.00  0.00    +0.000 A 
ATOM     17  C   UNL     1       0.984   9.574  19.556  0.00  0.00    +0.000 A 
ATOM     18  H   UNL     1       1.875  12.419  18.102  0.00  0.00    +0.000 HD
ENDROOT
BRANCH   9  19
ATOM     19  C   UNL     1       0.573  15.348  19.655  0.00  0.00    +0.000 C 
BRANCH  19  20
ATOM     20  C   UNL     1       0.767  16.391  18.589  0.00  0.00    +0.000 A 
ATOM     21  C   UNL     1      -0.370  17.050  18.086  0.00  0.00    +0.000 A 
ATOM     22  C   UNL     1      -0.236  18.081  17.167  0.00  0.00    +0.000 A 
ATOM     23  C   UNL     1       1.041  18.431  16.774  0.00  0.00    +0.000 A 
ATOM     24  N   UNL     1       2.156  17.826  17.232  0.00  0.00    +0.000 NA
ATOM     25  C   UNL     1       2.002  16.826  18.140  0.00  0.00    +0.000 A 
ENDBRANCH  19  20
ENDBRANCH   9  19
TORSDOF 2
ENDMDL
