MODEL 1
REMARK VINA RESULT:      -6.5      0.000      0.000
REMARK  Name = 
REMARK  9 active torsions:
REMARK  status: ('A' for Active; 'I' for Inactive)
REMARK    1  A    between atoms: C_1  and  O_2
REMARK    2  A    between atoms: O_2  and  C_3
REMARK    3  A    between atoms: C_3  and  C_4
REMARK    4  A    between atoms: N_6  and  C_7
REMARK    5  A    between atoms: C_9  and  C_10
REMARK    6  A    between atoms: C_10  and  C_11
REMARK    7  A    between atoms: C_10  and  C_12
REMARK    8  A    between atoms: C_13  and  O_14
REMARK    9  A    between atoms: C_16  and  C_17
REMARK                            x       y       z     vdW  Elec       q    Type
REMARK                         _______ _______ _______ _____ _____    ______ ____
ROOT
ATOM      1  C   UNL     1       4.802   5.152  17.911  0.00  0.00    +0.000 A 
ATOM      2  C   UNL     1       3.893   5.343  18.969  0.00  0.00    +0.000 A 
ATOM      3  C   UNL     1       2.674   4.642  19.045  0.00  0.00    +0.000 A 
ATOM      4  C   UNL     1       2.409   3.736  18.006  0.00  0.00    +0.000 A 
ATOM      5  C   UNL     1       3.322   3.511  16.970  0.00  0.00    +0.000 A 
ATOM      6  C   UNL     1       4.527   4.217  16.908  0.00  0.00    +0.000 A 
ATOM      7  C   UNL     1       5.511   3.906  15.816  0.00  0.00    +0.000 C 
ENDROOT
BRANCH   1  10
ATOM      8  C   UNL     1       6.980   5.903  18.777  0.00  0.00    +0.000 C 
ATOM      9  O   UNL     1       7.027   5.156  19.749  0.00  0.00    +0.000 OA
ATOM     10  N   UNL     1       5.975   5.927  17.826  0.00  0.00    +0.000 N 
ATOM     11  H   UNL     1       6.195   6.352  16.935  0.00  0.00    +0.000 HD
BRANCH   8  12
ATOM     12  C   UNL     1       8.071   6.943  18.524  0.00  0.00    +0.000 C 
BRANCH  12  14
ATOM     13  C   UNL     1       8.046   9.177  17.774  0.00  0.00    +0.000 C 
ATOM     14  O   UNL     1       7.751   7.819  17.448  0.00  0.00    +0.000 OA
ENDBRANCH  12  14
ENDBRANCH   8  12
ENDBRANCH   1  10
BRANCH   3  15
ATOM     15  C   UNL     1       1.695   4.867  20.195  0.00  0.00    +0.000 C 
ATOM     16  C   UNL     1       1.968   3.907  21.363  0.00  0.00    +0.000 C 
ATOM     17  C   UNL     1       1.639   6.296  20.759  0.00  0.00    +0.000 C 
ENDBRANCH   3  15
BRANCH   4  18
ATOM     18  O   UNL     1       1.253   3.013  17.912  0.00  0.00    +0.000 OA
ATOM     19  H   UNL     1       0.945   2.786  18.802  0.00  0.00    +0.000 HD
ENDBRANCH   4  18
TORSDOF 5
ENDMDL
MODEL 2
REMARK VINA RESULT:      -6.3      2.783      6.719
REMARK  Name = 
REMARK  9 active torsions:
REMARK  status: ('A' for Active; 'I' for Inactive)
REMARK    1  A    between atoms: C_1  and  O_2
REMARK    2  A    between atoms: O_2  and  C_3
REMARK    3  A    between atoms: C_3  and  C_4
REMARK    4  A    between atoms: N_6  and  C_7
REMARK    5  A    between atoms: C_9  and  C_10
REMARK    6  A    between atoms: C_10  and  C_11
REMARK    7  A    between atoms: C_10  and  C_12
REMARK    8  A    between atoms: C_13  and  O_14
REMARK    9  A    between atoms: C_16  and  C_17
REMARK                            x       y       z     vdW  Elec       q    Type
REMARK                         _______ _______ _______ _____ _____    ______ ____
ROOT
ATOM      1  C   UNL     1       5.836   3.727  15.982  0.00  0.00    +0.000 A 
ATOM      2  C   UNL     1       5.551   3.403  14.642  0.00  0.00    +0.000 A 
ATOM      3  C   UNL     1       6.252   3.981  13.566  0.00  0.00    +0.000 A 
ATOM      4  C   UNL     1       7.257   4.903  13.899  0.00  0.00    +0.000 A 
ATOM      5  C   UNL     1       7.574   5.203  15.228  0.00  0.00    +0.000 A 
ATOM      6  C   UNL     1       6.867   4.623  16.285  0.00  0.00    +0.000 A 
ATOM      7  C   UNL     1       7.275   4.922  17.700  0.00  0.00    +0.000 C 
ENDROOT
BRANCH   1  10
ATOM      8  C   UNL     1       3.979   3.836  17.592  0.00  0.00    +0.000 C 
ATOM      9  O   UNL     1       3.500   4.898  17.207  0.00  0.00    +0.000 OA
ATOM     10  N   UNL     1       5.064   3.188  17.029  0.00  0.00    +0.000 N 
ATOM     11  H   UNL     1       5.167   2.202  17.230  0.00  0.00    +0.000 HD
BRANCH   8  12
ATOM     12  C   UNL     1       3.407   3.105  18.806  0.00  0.00    +0.000 C 
BRANCH  12  14
ATOM     13  C   UNL     1       1.168   2.379  18.686  0.00  0.00    +0.000 C 
ATOM     14  O   UNL     1       2.533   2.042  18.441  0.00  0.00    +0.000 OA
ENDBRANCH  12  14
ENDBRANCH   8  12
ENDBRANCH   1  10
BRANCH   3  15
ATOM     15  C   UNL     1       5.925   3.624  12.117  0.00  0.00    +0.000 C 
ATOM     16  C   UNL     1       6.757   2.428  11.631  0.00  0.00    +0.000 C 
ATOM     17  C   UNL     1       4.447   3.329  11.816  0.00  0.00    +0.000 C 
ENDBRANCH   3  15
BRANCH   4  18
ATOM     18  O   UNL     1       7.997   5.581  12.970  0.00  0.00    +0.000 OA
ATOM     19  H   UNL     1       8.773   5.054  12.732  0.00  0.00    +0.000 HD
ENDBRANCH   4  18
TORSDOF 5
ENDMDL
MODEL 3
REMARK VINA RESULT:      -6.2      2.807      5.321
REMARK  Name = 
REMARK  9 active torsions:
REMARK  status: ('A' for Active; 'I' for Inactive)
REMARK    1  A    between atoms: C_1  and  O_2
REMARK    2  A    between atoms: O_2  and  C_3
REMARK    3  A    between atoms: C_3  and  C_4
REMARK    4  A    between atoms: N_6  and  C_7
REMARK    5  A    between atoms: C_9  and  C_10
REMARK    6  A    between atoms: C_10  and  C_11
REMARK    7  A    between atoms: C_10  and  C_12
REMARK    8  A    between atoms: C_13  and  O_14
REMARK    9  A    between atoms: C_16  and  C_17
REMARK                            x       y       z     vdW  Elec       q    Type
REMARK                         _______ _______ _______ _____ _____    ______ ____
ROOT
ATOM      1  C   UNL     1       3.544   5.523  18.952  0.00  0.00    +0.000 A 
ATOM      2  C   UNL     1       4.905   5.881  18.937  0.00  0.00    +0.000 A 
ATOM      3  C   UNL     1       5.826   5.290  18.051  0.00  0.00    +0.000 A 
ATOM      4  C   UNL     1       5.314   4.318  17.176  0.00  0.00    +0.000 A 
ATOM      5  C   UNL     1       3.957   3.983  17.156  0.00  0.00    +0.000 A 
ATOM      6  C   UNL     1       3.056   4.577  18.044  0.00  0.00    +0.000 A 
ATOM      7  C   UNL     1       1.595   4.237  17.954  0.00  0.00    +0.000 C 
ENDROOT
BRANCH   1  10
ATOM      8  C   UNL     1       2.117   7.342  19.794  0.00  0.00    +0.000 C 
ATOM      9  O   UNL     1       2.241   8.095  18.833  0.00  0.00    +0.000 OA
ATOM     10  N   UNL     1       2.668   6.078  19.904  0.00  0.00    +0.000 N 
ATOM     11  H   UNL     1       2.253   5.452  20.583  0.00  0.00    +0.000 HD
BRANCH   8  12
ATOM     12  C   UNL     1       1.321   7.760  21.030  0.00  0.00    +0.000 C 
BRANCH  12  14
ATOM     13  C   UNL     1      -0.160   9.435  21.776  0.00  0.00    +0.000 C 
ATOM     14  O   UNL     1       1.036   9.155  21.049  0.00  0.00    +0.000 OA
ENDBRANCH  12  14
ENDBRANCH   8  12
ENDBRANCH   1  10
BRANCH   3  15
ATOM     15  C   UNL     1       7.302   5.684  18.053  0.00  0.00    +0.000 C 
ATOM     16  C   UNL     1       7.514   7.073  17.433  0.00  0.00    +0.000 C 
ATOM     17  C   UNL     1       8.000   5.663  19.422  0.00  0.00    +0.000 C 
ENDBRANCH   3  15
BRANCH   4  18
ATOM     18  O   UNL     1       6.086   3.623  16.286  0.00  0.00    +0.000 OA
ATOM     19  H   UNL     1       6.822   3.207  16.758  0.00  0.00    +0.000 HD
ENDBRANCH   4  18
TORSDOF 5
ENDMDL
MODEL 4
REMARK VINA RESULT:      -6.2      0.832      1.158
REMARK  Name = 
REMARK  9 active torsions:
REMARK  status: ('A' for Active; 'I' for Inactive)
REMARK    1  A    between atoms: C_1  and  O_2
REMARK    2  A    between atoms: O_2  and  C_3
REMARK    3  A    between atoms: C_3  and  C_4
REMARK    4  A    between atoms: N_6  and  C_7
REMARK    5  A    between atoms: C_9  and  C_10
REMARK    6  A    between atoms: C_10  and  C_11
REMARK    7  A    between atoms: C_10  and  C_12
REMARK    8  A    between atoms: C_13  and  O_14
REMARK    9  A    between atoms: C_16  and  C_17
REMARK                            x       y       z     vdW  Elec       q    Type
REMARK                         _______ _______ _______ _____ _____    ______ ____
ROOT
ATOM      1  C   UNL     1       4.957   5.151  18.180  0.00  0.00    +0.000 A 
ATOM      2  C   UNL     1       4.204   4.994  19.359  0.00  0.00    +0.000 A 
ATOM      3  C   UNL     1       3.110   4.110  19.437  0.00  0.00    +0.000 A 
ATOM      4  C   UNL     1       2.808   3.387  18.272  0.00  0.00    +0.000 A 
ATOM      5  C   UNL     1       3.573   3.508  17.107  0.00  0.00    +0.000 A 
ATOM      6  C   UNL     1       4.654   4.392  17.045  0.00  0.00    +0.000 A 
ATOM      7  C   UNL     1       5.490   4.451  15.798  0.00  0.00    +0.000 C 
ENDROOT
BRANCH   1  10
ATOM      8  C   UNL     1       7.296   5.842  18.502  0.00  0.00    +0.000 C 
ATOM      9  O   UNL     1       7.733   4.753  18.860  0.00  0.00    +0.000 OA
ATOM     10  N   UNL     1       5.994   6.101  18.114  0.00  0.00    +0.000 N 
ATOM     11  H   UNL     1       5.835   6.934  17.562  0.00  0.00    +0.000 HD
BRANCH   8  12
ATOM     12  C   UNL     1       8.190   7.082  18.471  0.00  0.00    +0.000 C 
BRANCH  12  14
ATOM     13  C   UNL     1       8.216   9.378  17.942  0.00  0.00    +0.000 C 
ATOM     14  O   UNL     1       7.689   8.095  17.606  0.00  0.00    +0.000 OA
ENDBRANCH  12  14
ENDBRANCH   8  12
ENDBRANCH   1  10
BRANCH   3  15
ATOM     15  C   UNL     1       2.298   3.957  20.721  0.00  0.00    +0.000 C 
ATOM     16  C   UNL     1       0.796   4.148  20.463  0.00  0.00    +0.000 C 
ATOM     17  C   UNL     1       2.486   2.634  21.480  0.00  0.00    +0.000 C 
ENDBRANCH   3  15
BRANCH   4  18
ATOM     18  O   UNL     1       1.753   2.523  18.173  0.00  0.00    +0.000 OA
ATOM     19  H   UNL     1       0.927   3.008  18.317  0.00  0.00    +0.000 HD
ENDBRANCH   4  18
TORSDOF 5
ENDMDL
MODEL 5
REMARK VINA RESULT:      -6.2      2.404      3.560
REMARK  Name = 
REMARK  9 active torsions:
REMARK  status: ('A' for Active; 'I' for Inactive)
REMARK    1  A    between atoms: C_1  and  O_2
REMARK    2  A    between atoms: O_2  and  C_3
REMARK    3  A    between atoms: C_3  and  C_4
REMARK    4  A    between atoms: N_6  and  C_7
REMARK    5  A    between atoms: C_9  and  C_10
REMARK    6  A    between atoms: C_10  and  C_11
REMARK    7  A    between atoms: C_10  and  C_12
REMARK    8  A    between atoms: C_13  and  O_14
REMARK    9  A    between atoms: C_16  and  C_17
REMARK                            x       y       z     vdW  Elec       q    Type
REMARK                         _______ _______ _______ _____ _____    ______ ____
ROOT
ATOM      1  C   UNL     1       3.677   5.102  17.625  0.00  0.00    +0.000 A 
ATOM      2  C   UNL     1       2.880   4.238  18.399  0.00  0.00    +0.000 A 
ATOM      3  C   UNL     1       2.140   4.693  19.508  0.00  0.00    +0.000 A 
ATOM      4  C   UNL     1       2.238   6.062  19.804  0.00  0.00    +0.000 A 
ATOM      5  C   UNL     1       2.996   6.936  19.018  0.00  0.00    +0.000 A 
ATOM      6  C   UNL     1       3.727   6.468  17.922  0.00  0.00    +0.000 A 
ATOM      7  C   UNL     1       4.482   7.444  17.065  0.00  0.00    +0.000 C 
ENDROOT
BRANCH   1  10
ATOM      8  C   UNL     1       5.817   4.336  16.684  0.00  0.00    +0.000 C 
ATOM      9  O   UNL     1       6.479   4.418  17.714  0.00  0.00    +0.000 OA
ATOM     10  N   UNL     1       4.464   4.598  16.572  0.00  0.00    +0.000 N 
ATOM     11  H   UNL     1       3.984   4.208  15.771  0.00  0.00    +0.000 HD
BRANCH   8  12
ATOM     12  C   UNL     1       6.464   3.938  15.357  0.00  0.00    +0.000 C 
BRANCH  12  14
ATOM     13  C   UNL     1       5.983   3.646  13.069  0.00  0.00    +0.000 C 
ATOM     14  O   UNL     1       5.754   4.442  14.231  0.00  0.00    +0.000 OA
ENDBRANCH  12  14
ENDBRANCH   8  12
ENDBRANCH   1  10
BRANCH   3  15
ATOM     15  C   UNL     1       1.286   3.741  20.343  0.00  0.00    +0.000 C 
ATOM     16  C   UNL     1       0.717   2.599  19.487  0.00  0.00    +0.000 C 
ATOM     17  C   UNL     1       1.976   3.119  21.567  0.00  0.00    +0.000 C 
ENDBRANCH   3  15
BRANCH   4  18
ATOM     18  O   UNL     1       1.616   6.650  20.871  0.00  0.00    +0.000 OA
ATOM     19  H   UNL     1       2.153   7.392  21.185  0.00  0.00    +0.000 HD
ENDBRANCH   4  18
TORSDOF 5
ENDMDL
MODEL 6
REMARK VINA RESULT:      -6.2      3.175      4.232
REMARK  Name = 
REMARK  9 active torsions:
REMARK  status: ('A' for Active; 'I' for Inactive)
REMARK    1  A    between atoms: C_1  and  O_2
REMARK    2  A    between atoms: O_2  and  C_3
REMARK    3  A    between atoms: C_3  and  C_4
REMARK    4  A    between atoms: N_6  and  C_7
REMARK    5  A    between atoms: C_9  and  C_10
REMARK    6  A    between atoms: C_10  and  C_11
REMARK    7  A    between atoms: C_10  and  C_12
REMARK    8  A    between atoms: C_13  and  O_14
REMARK    9  A    between atoms: C_16  and  C_17
REMARK                            x       y       z     vdW  Elec       q    Type
REMARK                         _______ _______ _______ _____ _____    ______ ____
ROOT
ATOM      1  C   UNL     1       3.499   5.769  18.354  0.00  0.00    +0.000 A 
ATOM      2  C   UNL     1       2.586   4.834  18.877  0.00  0.00    +0.000 A 
ATOM      3  C   UNL     1       2.987   3.556  19.312  0.00  0.00    +0.000 A 
ATOM      4  C   UNL     1       4.355   3.259  19.197  0.00  0.00    +0.000 A 
ATOM      5  C   UNL     1       5.277   4.194  18.714  0.00  0.00    +0.000 A 
ATOM      6  C   UNL     1       4.862   5.458  18.284  0.00  0.00    +0.000 A 
ATOM      7  C   UNL     1       5.886   6.458  17.829  0.00  0.00    +0.000 C 
ENDROOT
BRANCH   1  10
ATOM      8  C   UNL     1       2.349   7.928  18.614  0.00  0.00    +0.000 C 
ATOM      9  O   UNL     1       2.109   7.834  19.813  0.00  0.00    +0.000 OA
ATOM     10  N   UNL     1       3.051   7.007  17.857  0.00  0.00    +0.000 N 
ATOM     11  H   UNL     1       3.441   7.333  16.982  0.00  0.00    +0.000 HD
BRANCH   8  12
ATOM     12  C   UNL     1       1.852   9.122  17.799  0.00  0.00    +0.000 C 
BRANCH  12  14
ATOM     13  C   UNL     1      -0.164  10.188  18.392  0.00  0.00    +0.000 C 
ATOM     14  O   UNL     1       1.245  10.122  18.610  0.00  0.00    +0.000 OA
ENDBRANCH  12  14
ENDBRANCH   8  12
ENDBRANCH   1  10
BRANCH   3  15
ATOM     15  C   UNL     1       1.982   2.551  19.869  0.00  0.00    +0.000 C 
ATOM     16  C   UNL     1       1.504   2.953  21.273  0.00  0.00    +0.000 C 
ATOM     17  C   UNL     1       0.742   2.290  19.000  0.00  0.00    +0.000 C 
ENDBRANCH   3  15
BRANCH   4  18
ATOM     18  O   UNL     1       4.895   2.050  19.535  0.00  0.00    +0.000 OA
ATOM     19  H   UNL     1       4.959   1.986  20.499  0.00  0.00    +0.000 HD
ENDBRANCH   4  18
TORSDOF 5
ENDMDL
MODEL 7
REMARK VINA RESULT:      -6.1      1.089      1.089
REMARK  Name = 
REMARK  9 active torsions:
REMARK  status: ('A' for Active; 'I' for Inactive)
REMARK    1  A    between atoms: C_1  and  O_2
REMARK    2  A    between atoms: O_2  and  C_3
REMARK    3  A    between atoms: C_3  and  C_4
REMARK    4  A    between atoms: N_6  and  C_7
REMARK    5  A    between atoms: C_9  and  C_10
REMARK    6  A    between atoms: C_10  and  C_11
REMARK    7  A    between atoms: C_10  and  C_12
REMARK    8  A    between atoms: C_13  and  O_14
REMARK    9  A    between atoms: C_16  and  C_17
REMARK                            x       y       z     vdW  Elec       q    Type
REMARK                         _______ _______ _______ _____ _____    ______ ____
ROOT
ATOM      1  C   UNL     1       4.747   4.705  18.176  0.00  0.00    +0.000 A 
ATOM      2  C   UNL     1       3.819   4.855  19.224  0.00  0.00    +0.000 A 
ATOM      3  C   UNL     1       2.537   4.273  19.180  0.00  0.00    +0.000 A 
ATOM      4  C   UNL     1       2.229   3.530  18.029  0.00  0.00    +0.000 A 
ATOM      5  C   UNL     1       3.157   3.343  16.999  0.00  0.00    +0.000 A 
ATOM      6  C   UNL     1       4.424   3.929  17.057  0.00  0.00    +0.000 A 
ATOM      7  C   UNL     1       5.416   3.657  15.962  0.00  0.00    +0.000 C 
ENDROOT
BRANCH   1  10
ATOM      8  C   UNL     1       6.209   6.622  17.686  0.00  0.00    +0.000 C 
ATOM      9  O   UNL     1       5.352   7.351  17.197  0.00  0.00    +0.000 OA
ATOM     10  N   UNL     1       5.989   5.365  18.220  0.00  0.00    +0.000 N 
ATOM     11  H   UNL     1       6.691   5.005  18.854  0.00  0.00    +0.000 HD
BRANCH   8  12
ATOM     12  C   UNL     1       7.676   7.048  17.734  0.00  0.00    +0.000 C 
BRANCH  12  14
ATOM     13  C   UNL     1       8.331   9.283  18.093  0.00  0.00    +0.000 C 
ATOM     14  O   UNL     1       7.895   8.320  17.134  0.00  0.00    +0.000 OA
ENDBRANCH  12  14
ENDBRANCH   8  12
ENDBRANCH   1  10
BRANCH   3  15
ATOM     15  C   UNL     1       1.540   4.452  20.322  0.00  0.00    +0.000 C 
ATOM     16  C   UNL     1       1.780   3.430  21.445  0.00  0.00    +0.000 C 
ATOM     17  C   UNL     1       1.490   5.851  20.956  0.00  0.00    +0.000 C 
ENDBRANCH   3  15
BRANCH   4  18
ATOM     18  O   UNL     1       1.014   2.939  17.816  0.00  0.00    +0.000 OA
ATOM     19  H   UNL     1       0.963   2.119  18.327  0.00  0.00    +0.000 HD
ENDBRANCH   4  18
TORSDOF 5
ENDMDL
MODEL 8
REMARK VINA RESULT:      -6.1      3.386      5.710
REMARK  Name = 
REMARK  9 active torsions:
REMARK  status: ('A' for Active; 'I' for Inactive)
REMARK    1  A    between atoms: C_1  and  O_2
REMARK    2  A    between atoms: O_2  and  C_3
REMARK    3  A    between atoms: C_3  and  C_4
REMARK    4  A    between atoms: N_6  and  C_7
REMARK    5  A    between atoms: C_9  and  C_10
REMARK    6  A    between atoms: C_10  and  C_11
REMARK    7  A    between atoms: C_10  and  C_12
REMARK    8  A    between atoms: C_13  and  O_14
REMARK    9  A    between atoms: C_16  and  C_17
REMARK                            x       y       z     vdW  Elec       q    Type
REMARK                         _______ _______ _______ _____ _____    ______ ____
ROOT
ATOM      1  C   UNL     1       2.393   6.826  19.731  0.00  0.00    +0.000 A 
ATOM      2  C   UNL     1       1.627   7.887  20.249  0.00  0.00    +0.000 A 
ATOM      3  C   UNL     1       1.372   9.059  19.510  0.00  0.00    +0.000 A 
ATOM      4  C   UNL     1       1.923   9.114  18.220  0.00  0.00    +0.000 A 
ATOM      5  C   UNL     1       2.653   8.050  17.681  0.00  0.00    +0.000 A 
ATOM      6  C   UNL     1       2.900   6.895  18.429  0.00  0.00    +0.000 A 
ATOM      7  C   UNL     1       3.634   5.747  17.797  0.00  0.00    +0.000 C 
ENDROOT
BRANCH   1  10
ATOM      8  C   UNL     1       1.831   4.636  20.702  0.00  0.00    +0.000 C 
ATOM      9  O   UNL     1       0.756   4.482  20.131  0.00  0.00    +0.000 OA
ATOM     10  N   UNL     1       2.693   5.704  20.527  0.00  0.00    +0.000 N 
ATOM     11  H   UNL     1       3.656   5.569  20.806  0.00  0.00    +0.000 HD
BRANCH   8  12
ATOM     12  C   UNL     1       2.333   3.621  21.729  0.00  0.00    +0.000 C 
BRANCH  12  14
ATOM     13  C   UNL     1       3.776   2.480  20.254  0.00  0.00    +0.000 C 
ATOM     14  O   UNL     1       2.663   2.367  21.140  0.00  0.00    +0.000 OA
ENDBRANCH  12  14
ENDBRANCH   8  12
ENDBRANCH   1  10
BRANCH   3  15
ATOM     15  C   UNL     1       0.546  10.205  20.090  0.00  0.00    +0.000 C 
ATOM     16  C   UNL     1      -0.864  10.246  19.482  0.00  0.00    +0.000 C 
ATOM     17  C   UNL     1       0.405  10.222  21.620  0.00  0.00    +0.000 C 
ENDBRANCH   3  15
BRANCH   4  18
ATOM     18  O   UNL     1       1.803  10.197  17.394  0.00  0.00    +0.000 OA
ATOM     19  H   UNL     1       1.428   9.914  16.547  0.00  0.00    +0.000 HD
ENDBRANCH   4  18
TORSDOF 5
ENDMDL
MODEL 9
REMARK VINA RESULT:      -6.1      3.862      5.554
REMARK  Name = 
REMARK  9 active torsions:
REMARK  status: ('A' for Active; 'I' for Inactive)
REMARK    1  A    between atoms: C_1  and  O_2
REMARK    2  A    between atoms: O_2  and  C_3
REMARK    3  A    between atoms: C_3  and  C_4
REMARK    4  A    between atoms: N_6  and  C_7
REMARK    5  A    between atoms: C_9  and  C_10
REMARK    6  A    between atoms: C_10  and  C_11
REMARK    7  A    between atoms: C_10  and  C_12
REMARK    8  A    between atoms: C_13  and  O_14
REMARK    9  A    between atoms: C_16  and  C_17
REMARK                            x       y       z     vdW  Elec       q    Type
REMARK                         _______ _______ _______ _____ _____    ______ ____
ROOT
ATOM      1  C   UNL     1       2.121   6.819  20.017  0.00  0.00    +0.000 A 
ATOM      2  C   UNL     1       2.088   5.502  20.514  0.00  0.00    +0.000 A 
ATOM      3  C   UNL     1       2.069   4.380  19.663  0.00  0.00    +0.000 A 
ATOM      4  C   UNL     1       2.086   4.643  18.283  0.00  0.00    +0.000 A 
ATOM      5  C   UNL     1       2.157   5.946  17.780  0.00  0.00    +0.000 A 
ATOM      6  C   UNL     1       2.173   7.049  18.638  0.00  0.00    +0.000 A 
ATOM      7  C   UNL     1       2.312   8.431  18.064  0.00  0.00    +0.000 C 
ENDROOT
BRANCH   1  10
ATOM      8  C   UNL     1       0.882   8.411  21.424  0.00  0.00    +0.000 C 
ATOM      9  O   UNL     1      -0.231   7.917  21.277  0.00  0.00    +0.000 OA
ATOM     10  N   UNL     1       2.061   7.917  20.896  0.00  0.00    +0.000 N 
ATOM     11  H   UNL     1       2.923   8.221  21.329  0.00  0.00    +0.000 HD
BRANCH   8  12
ATOM     12  C   UNL     1       1.077   9.696  22.229  0.00  0.00    +0.000 C 
BRANCH  12  14
ATOM     13  C   UNL     1      -0.899  10.601  23.141  0.00  0.00    +0.000 C 
ATOM     14  O   UNL     1       0.229   9.759  23.371  0.00  0.00    +0.000 OA
ENDBRANCH  12  14
ENDBRANCH   8  12
ENDBRANCH   1  10
BRANCH   3  15
ATOM     15  C   UNL     1       2.025   2.958  20.218  0.00  0.00    +0.000 C 
ATOM     16  C   UNL     1       3.431   2.346  20.311  0.00  0.00    +0.000 C 
ATOM     17  C   UNL     1       1.343   2.793  21.585  0.00  0.00    +0.000 C 
ENDBRANCH   3  15
BRANCH   4  18
ATOM     18  O   UNL     1       2.028   3.666  17.329  0.00  0.00    +0.000 OA
ATOM     19  H   UNL     1       1.561   2.897  17.686  0.00  0.00    +0.000 HD
ENDBRANCH   4  18
TORSDOF 5
ENDMDL
