MODEL 1
REMARK VINA RESULT:      -8.3      0.000      0.000
REMARK  Name = 
REMARK  6 active torsions:
REMARK  status: ('A' for Active; 'I' for Inactive)
REMARK    1  A    between atoms: C_2  and  C_12
REMARK    2  A    between atoms: N_3  and  C_4
REMARK    3  A    between atoms: C_4  and  C_5
REMARK    4  A    between atoms: C_5  and  C_6
REMARK    5  A    between atoms: C_15  and  S_16
REMARK    6  A    between atoms: S_16  and  N_19
REMARK                            x       y       z     vdW  Elec       q    Type
REMARK                         _______ _______ _______ _____ _____    ______ ____
ROOT
ATOM      1  C   UNL     1       1.684   7.435  20.265  0.00  0.00    +0.000 A 
ATOM      2  C   UNL     1       1.527   6.212  20.924  0.00  0.00    +0.000 A 
ATOM      3  C   UNL     1       1.907   5.027  20.289  0.00  0.00    +0.000 A 
ATOM      4  C   UNL     1       2.437   5.070  18.994  0.00  0.00    +0.000 A 
ATOM      5  C   UNL     1       2.629   6.299  18.350  0.00  0.00    +0.000 A 
ATOM      6  C   UNL     1       2.234   7.485  18.979  0.00  0.00    +0.000 A 
ENDROOT
BRANCH   1   8
ATOM      7  O   UNL     1       1.468   8.856  22.130  0.00  0.00    +0.000 OA
ATOM      8  C   UNL     1       1.307   8.708  20.932  0.00  0.00    +0.000 C 
ATOM      9  N   UNL     1       0.776   9.664  20.086  0.00  0.00    +0.000 N 
ATOM     10  H   UNL     1       0.486   9.391  19.158  0.00  0.00    +0.000 HD
BRANCH   9  11
ATOM     11  C   UNL     1       0.298  10.929  20.612  0.00  0.00    +0.000 C 
BRANCH  11  12
ATOM     12  C   UNL     1      -0.109  11.879  19.492  0.00  0.00    +0.000 C 
BRANCH  12  13
ATOM     13  C   UNL     1      -1.273  11.344  18.709  0.00  0.00    +0.000 A 
ATOM     14  C   UNL     1      -2.555  11.849  18.912  0.00  0.00    +0.000 A 
ATOM     15  C   UNL     1      -3.610  11.316  18.178  0.00  0.00    +0.000 A 
ATOM     16  C   UNL     1      -3.360  10.296  17.268  0.00  0.00    +0.000 A 
ATOM     17  C   UNL     1      -2.057   9.853  17.126  0.00  0.00    +0.000 A 
ATOM     18  N   UNL     1      -1.012  10.351  17.824  0.00  0.00    +0.000 NA
ENDBRANCH  12  13
ENDBRANCH  11  12
ENDBRANCH   9  11
ENDBRANCH   1   8
BRANCH   4  19
ATOM     19  S   UNL     1       2.921   3.532  18.210  0.00  0.00    +0.000 S 
ATOM     20  O   UNL     1       2.946   2.517  19.239  0.00  0.00    +0.000 OA
ATOM     21  O   UNL     1       2.101   3.382  17.026  0.00  0.00    +0.000 OA
BRANCH  19  22
ATOM     22  N   UNL     1       4.540   3.846  17.716  0.00  0.00    +0.000 NA
ATOM     23  C   UNL     1       4.708   4.351  16.331  0.00  0.00    +0.000 C 
ATOM     24  C   UNL     1       5.989   3.860  15.659  0.00  0.00    +0.000 C 
ATOM     25  C   UNL     1       7.229   4.660  16.036  0.00  0.00    +0.000 C 
ATOM     26  C   UNL     1       7.596   4.565  17.509  0.00  0.00    +0.000 C 
ATOM     27  C   UNL     1       6.571   5.243  18.407  0.00  0.00    +0.000 C 
ATOM     28  C   UNL     1       5.419   4.337  18.807  0.00  0.00    +0.000 C 
ENDBRANCH  19  22
ENDBRANCH   4  19
TORSDOF 6
ENDMDL
MODEL 2
REMARK VINA RESULT:      -8.2      2.436      8.856
REMARK  Name = 
REMARK  6 active torsions:
REMARK  status: ('A' for Active; 'I' for Inactive)
REMARK    1  A    between atoms: C_2  and  C_12
REMARK    2  A    between atoms: N_3  and  C_4
REMARK    3  A    between atoms: C_4  and  C_5
REMARK    4  A    between atoms: C_5  and  C_6
REMARK    5  A    between atoms: C_15  and  S_16
REMARK    6  A    between atoms: S_16  and  N_19
REMARK                            x       y       z     vdW  Elec       q    Type
REMARK                         _______ _______ _______ _____ _____    ______ ____
ROOT
ATOM      1  C   UNL     1       2.577   7.189  18.915  0.00  0.00    +0.000 A 
ATOM      2  C   UNL     1       2.652   8.130  17.883  0.00  0.00    +0.000 A 
ATOM      3  C   UNL     1       2.039   9.376  18.034  0.00  0.00    +0.000 A 
ATOM      4  C   UNL     1       1.347   9.673  19.214  0.00  0.00    +0.000 A 
ATOM      5  C   UNL     1       1.305   8.744  20.262  0.00  0.00    +0.000 A 
ATOM      6  C   UNL     1       1.905   7.490  20.105  0.00  0.00    +0.000 A 
ENDROOT
BRANCH   1   8
ATOM      7  O   UNL     1       3.622   5.258  19.767  0.00  0.00    +0.000 OA
ATOM      8  C   UNL     1       3.242   5.867  18.783  0.00  0.00    +0.000 C 
ATOM      9  N   UNL     1       3.380   5.422  17.481  0.00  0.00    +0.000 N 
ATOM     10  H   UNL     1       3.230   6.071  16.722  0.00  0.00    +0.000 HD
BRANCH   9  11
ATOM     11  C   UNL     1       4.074   4.179  17.197  0.00  0.00    +0.000 C 
BRANCH  11  12
ATOM     12  C   UNL     1       5.343   4.424  16.389  0.00  0.00    +0.000 C 
BRANCH  12  13
ATOM     13  C   UNL     1       6.283   5.352  17.104  0.00  0.00    +0.000 A 
ATOM     14  C   UNL     1       7.007   4.913  18.210  0.00  0.00    +0.000 A 
ATOM     15  C   UNL     1       7.856   5.808  18.853  0.00  0.00    +0.000 A 
ATOM     16  C   UNL     1       7.956   7.112  18.383  0.00  0.00    +0.000 A 
ATOM     17  C   UNL     1       7.202   7.466  17.277  0.00  0.00    +0.000 A 
ATOM     18  N   UNL     1       6.371   6.619  16.630  0.00  0.00    +0.000 NA
ENDBRANCH  12  13
ENDBRANCH  11  12
ENDBRANCH   9  11
ENDBRANCH   1   8
BRANCH   4  19
ATOM     19  S   UNL     1       0.577  11.284  19.379  0.00  0.00    +0.000 S 
ATOM     20  O   UNL     1       0.493  11.576  20.793  0.00  0.00    +0.000 OA
ATOM     21  O   UNL     1       1.260  12.177  18.466  0.00  0.00    +0.000 OA
BRANCH  19  22
ATOM     22  N   UNL     1      -1.015  11.011  18.785  0.00  0.00    +0.000 NA
ATOM     23  C   UNL     1      -1.898  12.201  18.726  0.00  0.00    +0.000 C 
ATOM     24  C   UNL     1      -3.364  11.884  19.013  0.00  0.00    +0.000 C 
ATOM     25  C   UNL     1      -4.124  11.338  17.811  0.00  0.00    +0.000 C 
ATOM     26  C   UNL     1      -3.607   9.995  17.318  0.00  0.00    +0.000 C 
ATOM     27  C   UNL     1      -2.213  10.096  16.715  0.00  0.00    +0.000 C 
ATOM     28  C   UNL     1      -1.097   9.962  17.738  0.00  0.00    +0.000 C 
ENDBRANCH  19  22
ENDBRANCH   4  19
TORSDOF 6
ENDMDL
MODEL 3
REMARK VINA RESULT:      -8.2      2.008      8.447
REMARK  Name = 
REMARK  6 active torsions:
REMARK  status: ('A' for Active; 'I' for Inactive)
REMARK    1  A    between atoms: C_2  and  C_12
REMARK    2  A    between atoms: N_3  and  C_4
REMARK    3  A    between atoms: C_4  and  C_5
REMARK    4  A    between atoms: C_5  and  C_6
REMARK    5  A    between atoms: C_15  and  S_16
REMARK    6  A    between atoms: S_16  and  N_19
REMARK                            x       y       z     vdW  Elec       q    Type
REMARK                         _______ _______ _______ _____ _____    ______ ____
ROOT
ATOM      1  C   UNL     1       2.912   5.955  18.485  0.00  0.00    +0.000 A 
ATOM      2  C   UNL     1       2.429   5.530  19.727  0.00  0.00    +0.000 A 
ATOM      3  C   UNL     1       1.802   6.445  20.576  0.00  0.00    +0.000 A 
ATOM      4  C   UNL     1       1.667   7.781  20.184  0.00  0.00    +0.000 A 
ATOM      5  C   UNL     1       2.118   8.197  18.924  0.00  0.00    +0.000 A 
ATOM      6  C   UNL     1       2.760   7.286  18.079  0.00  0.00    +0.000 A 
ENDROOT
BRANCH   1   8
ATOM      7  O   UNL     1       3.318   3.801  17.622  0.00  0.00    +0.000 OA
ATOM      8  C   UNL     1       3.561   4.993  17.556  0.00  0.00    +0.000 C 
ATOM      9  N   UNL     1       4.434   5.569  16.652  0.00  0.00    +0.000 N 
ATOM     10  H   UNL     1       4.735   6.522  16.798  0.00  0.00    +0.000 HD
BRANCH   9  11
ATOM     11  C   UNL     1       5.193   4.742  15.732  0.00  0.00    +0.000 C 
BRANCH  11  12
ATOM     12  C   UNL     1       6.533   4.331  16.329  0.00  0.00    +0.000 C 
BRANCH  12  13
ATOM     13  C   UNL     1       7.137   5.437  17.147  0.00  0.00    +0.000 A 
ATOM     14  C   UNL     1       7.559   5.202  18.453  0.00  0.00    +0.000 A 
ATOM     15  C   UNL     1       8.099   6.257  19.183  0.00  0.00    +0.000 A 
ATOM     16  C   UNL     1       8.199   7.512  18.594  0.00  0.00    +0.000 A 
ATOM     17  C   UNL     1       7.757   7.659  17.291  0.00  0.00    +0.000 A 
ATOM     18  N   UNL     1       7.230   6.654  16.557  0.00  0.00    +0.000 NA
ENDBRANCH  12  13
ENDBRANCH  11  12
ENDBRANCH   9  11
ENDBRANCH   1   8
BRANCH   4  19
ATOM     19  S   UNL     1       0.852   8.927  21.296  0.00  0.00    +0.000 S 
ATOM     20  O   UNL     1      -0.378   8.302  21.728  0.00  0.00    +0.000 OA
ATOM     21  O   UNL     1       1.844   9.373  22.251  0.00  0.00    +0.000 OA
BRANCH  19  22
ATOM     22  N   UNL     1       0.456  10.248  20.264  0.00  0.00    +0.000 NA
ATOM     23  C   UNL     1      -0.897  10.214  19.658  0.00  0.00    +0.000 C 
ATOM     24  C   UNL     1      -0.946  10.804  18.251  0.00  0.00    +0.000 C 
ATOM     25  C   UNL     1      -1.039  12.324  18.223  0.00  0.00    +0.000 C 
ATOM     26  C   UNL     1       0.177  13.024  18.810  0.00  0.00    +0.000 C 
ATOM     27  C   UNL     1       0.305  12.802  20.311  0.00  0.00    +0.000 C 
ATOM     28  C   UNL     1       1.063  11.538  20.677  0.00  0.00    +0.000 C 
ENDBRANCH  19  22
ENDBRANCH   4  19
TORSDOF 6
ENDMDL
MODEL 4
REMARK VINA RESULT:      -8.2      1.953      8.437
REMARK  Name = 
REMARK  6 active torsions:
REMARK  status: ('A' for Active; 'I' for Inactive)
REMARK    1  A    between atoms: C_2  and  C_12
REMARK    2  A    between atoms: N_3  and  C_4
REMARK    3  A    between atoms: C_4  and  C_5
REMARK    4  A    between atoms: C_5  and  C_6
REMARK    5  A    between atoms: C_15  and  S_16
REMARK    6  A    between atoms: S_16  and  N_19
REMARK                            x       y       z     vdW  Elec       q    Type
REMARK                         _______ _______ _______ _____ _____    ______ ____
ROOT
ATOM      1  C   UNL     1       2.649   5.765  18.872  0.00  0.00    +0.000 A 
ATOM      2  C   UNL     1       2.663   7.100  18.452  0.00  0.00    +0.000 A 
ATOM      3  C   UNL     1       2.086   8.085  19.257  0.00  0.00    +0.000 A 
ATOM      4  C   UNL     1       1.492   7.731  20.474  0.00  0.00    +0.000 A 
ATOM      5  C   UNL     1       1.513   6.400  20.910  0.00  0.00    +0.000 A 
ATOM      6  C   UNL     1       2.077   5.410  20.098  0.00  0.00    +0.000 A 
ENDROOT
BRANCH   1   8
ATOM      7  O   UNL     1       3.081   3.527  18.279  0.00  0.00    +0.000 OA
ATOM      8  C   UNL     1       3.278   4.705  18.041  0.00  0.00    +0.000 C 
ATOM      9  N   UNL     1       4.076   5.177  17.016  0.00  0.00    +0.000 N 
ATOM     10  H   UNL     1       4.352   6.149  17.016  0.00  0.00    +0.000 HD
BRANCH   9  11
ATOM     11  C   UNL     1       4.810   4.256  16.169  0.00  0.00    +0.000 C 
BRANCH  11  12
ATOM     12  C   UNL     1       6.102   4.880  15.655  0.00  0.00    +0.000 C 
BRANCH  12  13
ATOM     13  C   UNL     1       6.827   5.622  16.741  0.00  0.00    +0.000 A 
ATOM     14  C   UNL     1       7.319   4.944  17.854  0.00  0.00    +0.000 A 
ATOM     15  C   UNL     1       7.972   5.670  18.846  0.00  0.00    +0.000 A 
ATOM     16  C   UNL     1       8.113   7.045  18.703  0.00  0.00    +0.000 A 
ATOM     17  C   UNL     1       7.597   7.639  17.565  0.00  0.00    +0.000 A 
ATOM     18  N   UNL     1       6.959   6.961  16.585  0.00  0.00    +0.000 NA
ENDBRANCH  12  13
ENDBRANCH  11  12
ENDBRANCH   9  11
ENDBRANCH   1   8
BRANCH   4  19
ATOM     19  S   UNL     1       0.767   9.022  21.485  0.00  0.00    +0.000 S 
ATOM     20  O   UNL     1      -0.484   8.511  21.999  0.00  0.00    +0.000 OA
ATOM     21  O   UNL     1       1.805   9.499  22.375  0.00  0.00    +0.000 OA
BRANCH  19  22
ATOM     22  N   UNL     1       0.420  10.259  20.339  0.00  0.00    +0.000 NA
ATOM     23  C   UNL     1      -0.933  10.218  19.733  0.00  0.00    +0.000 C 
ATOM     24  C   UNL     1      -0.959  10.683  18.279  0.00  0.00    +0.000 C 
ATOM     25  C   UNL     1      -0.998  12.197  18.115  0.00  0.00    +0.000 C 
ATOM     26  C   UNL     1       0.241  12.903  18.644  0.00  0.00    +0.000 C 
ATOM     27  C   UNL     1       0.358  12.811  20.159  0.00  0.00    +0.000 C 
ATOM     28  C   UNL     1       1.071  11.558  20.640  0.00  0.00    +0.000 C 
ENDBRANCH  19  22
ENDBRANCH   4  19
TORSDOF 6
ENDMDL
MODEL 5
REMARK VINA RESULT:      -8.1      1.947      8.470
REMARK  Name = 
REMARK  6 active torsions:
REMARK  status: ('A' for Active; 'I' for Inactive)
REMARK    1  A    between atoms: C_2  and  C_12
REMARK    2  A    between atoms: N_3  and  C_4
REMARK    3  A    between atoms: C_4  and  C_5
REMARK    4  A    between atoms: C_5  and  C_6
REMARK    5  A    between atoms: C_15  and  S_16
REMARK    6  A    between atoms: S_16  and  N_19
REMARK                            x       y       z     vdW  Elec       q    Type
REMARK                         _______ _______ _______ _____ _____    ______ ____
ROOT
ATOM      1  C   UNL     1       2.408   5.748  18.711  0.00  0.00    +0.000 A 
ATOM      2  C   UNL     1       1.882   5.426  19.967  0.00  0.00    +0.000 A 
ATOM      3  C   UNL     1       1.416   6.442  20.805  0.00  0.00    +0.000 A 
ATOM      4  C   UNL     1       1.485   7.776  20.388  0.00  0.00    +0.000 A 
ATOM      5  C   UNL     1       1.977   8.094  19.115  0.00  0.00    +0.000 A 
ATOM      6  C   UNL     1       2.458   7.079  18.281  0.00  0.00    +0.000 A 
ENDROOT
BRANCH   1   8
ATOM      7  O   UNL     1       2.114   3.863  17.331  0.00  0.00    +0.000 OA
ATOM      8  C   UNL     1       2.887   4.681  17.795  0.00  0.00    +0.000 C 
ATOM      9  N   UNL     1       4.245   4.712  17.540  0.00  0.00    +0.000 N 
ATOM     10  H   UNL     1       4.841   5.284  18.121  0.00  0.00    +0.000 HD
BRANCH   9  11
ATOM     11  C   UNL     1       4.864   3.687  16.719  0.00  0.00    +0.000 C 
BRANCH  11  12
ATOM     12  C   UNL     1       6.208   4.151  16.169  0.00  0.00    +0.000 C 
BRANCH  12  13
ATOM     13  C   UNL     1       6.863   5.150  17.080  0.00  0.00    +0.000 A 
ATOM     14  C   UNL     1       7.028   6.473  16.677  0.00  0.00    +0.000 A 
ATOM     15  C   UNL     1       7.653   7.364  17.543  0.00  0.00    +0.000 A 
ATOM     16  C   UNL     1       8.098   6.914  18.780  0.00  0.00    +0.000 A 
ATOM     17  C   UNL     1       7.893   5.584  19.102  0.00  0.00    +0.000 A 
ATOM     18  N   UNL     1       7.288   4.695  18.283  0.00  0.00    +0.000 NA
ENDBRANCH  12  13
ENDBRANCH  11  12
ENDBRANCH   9  11
ENDBRANCH   1   8
BRANCH   4  19
ATOM     19  S   UNL     1       0.872   9.054  21.486  0.00  0.00    +0.000 S 
ATOM     20  O   UNL     1      -0.360   8.567  22.064  0.00  0.00    +0.000 OA
ATOM     21  O   UNL     1       1.982   9.467  22.319  0.00  0.00    +0.000 OA
BRANCH  19  22
ATOM     22  N   UNL     1       0.494  10.340  20.405  0.00  0.00    +0.000 NA
ATOM     23  C   UNL     1      -0.860  10.301  19.801  0.00  0.00    +0.000 C 
ATOM     24  C   UNL     1      -0.902  10.838  18.372  0.00  0.00    +0.000 C 
ATOM     25  C   UNL     1      -0.974  12.358  18.286  0.00  0.00    +0.000 C 
ATOM     26  C   UNL     1       0.252  13.062  18.847  0.00  0.00    +0.000 C 
ATOM     27  C   UNL     1       0.377  12.896  20.355  0.00  0.00    +0.000 C 
ATOM     28  C   UNL     1       1.118  11.636  20.769  0.00  0.00    +0.000 C 
ENDBRANCH  19  22
ENDBRANCH   4  19
TORSDOF 6
ENDMDL
MODEL 6
REMARK VINA RESULT:      -8.1      2.719      8.550
REMARK  Name = 
REMARK  6 active torsions:
REMARK  status: ('A' for Active; 'I' for Inactive)
REMARK    1  A    between atoms: C_2  and  C_12
REMARK    2  A    between atoms: N_3  and  C_4
REMARK    3  A    between atoms: C_4  and  C_5
REMARK    4  A    between atoms: C_5  and  C_6
REMARK    5  A    between atoms: C_15  and  S_16
REMARK    6  A    between atoms: S_16  and  N_19
REMARK                            x       y       z     vdW  Elec       q    Type
REMARK                         _______ _______ _______ _____ _____    ______ ____
ROOT
ATOM      1  C   UNL     1       2.704   7.176  18.631  0.00  0.00    +0.000 A 
ATOM      2  C   UNL     1       2.703   8.203  17.682  0.00  0.00    +0.000 A 
ATOM      3  C   UNL     1       2.048   9.405  17.961  0.00  0.00    +0.000 A 
ATOM      4  C   UNL     1       1.391   9.572  19.186  0.00  0.00    +0.000 A 
ATOM      5  C   UNL     1       1.425   8.556  20.150  0.00  0.00    +0.000 A 
ATOM      6  C   UNL     1       2.068   7.346  19.865  0.00  0.00    +0.000 A 
ENDROOT
BRANCH   1   8
ATOM      7  O   UNL     1       4.490   5.660  18.883  0.00  0.00    +0.000 OA
ATOM      8  C   UNL     1       3.415   5.898  18.362  0.00  0.00    +0.000 C 
ATOM      9  N   UNL     1       2.756   5.047  17.495  0.00  0.00    +0.000 N 
ATOM     10  H   UNL     1       1.983   5.403  16.950  0.00  0.00    +0.000 HD
BRANCH   9  11
ATOM     11  C   UNL     1       3.366   3.796  17.086  0.00  0.00    +0.000 C 
BRANCH  11  12
ATOM     12  C   UNL     1       2.560   2.598  17.576  0.00  0.00    +0.000 C 
BRANCH  12  13
ATOM     13  C   UNL     1       2.317   2.664  19.057  0.00  0.00    +0.000 A 
ATOM     14  C   UNL     1       1.036   2.890  19.554  0.00  0.00    +0.000 A 
ATOM     15  C   UNL     1       0.854   2.959  20.931  0.00  0.00    +0.000 A 
ATOM     16  C   UNL     1       1.950   2.807  21.772  0.00  0.00    +0.000 A 
ATOM     17  C   UNL     1       3.188   2.585  21.196  0.00  0.00    +0.000 A 
ATOM     18  N   UNL     1       3.396   2.511  19.862  0.00  0.00    +0.000 NA
ENDBRANCH  12  13
ENDBRANCH  11  12
ENDBRANCH   9  11
ENDBRANCH   1   8
BRANCH   4  19
ATOM     19  S   UNL     1       0.566  11.129  19.515  0.00  0.00    +0.000 S 
ATOM     20  O   UNL     1       0.430  11.246  20.950  0.00  0.00    +0.000 OA
ATOM     21  O   UNL     1       1.248  12.144  18.740  0.00  0.00    +0.000 OA
BRANCH  19  22
ATOM     22  N   UNL     1      -0.998  10.886  18.839  0.00  0.00    +0.000 NA
ATOM     23  C   UNL     1      -1.851  12.094  18.727  0.00  0.00    +0.000 C 
ATOM     24  C   UNL     1      -3.336  11.809  18.937  0.00  0.00    +0.000 C 
ATOM     25  C   UNL     1      -4.042  11.272  17.699  0.00  0.00    +0.000 C 
ATOM     26  C   UNL     1      -3.528   9.916  17.240  0.00  0.00    +0.000 C 
ATOM     27  C   UNL     1      -2.102   9.985  16.712  0.00  0.00    +0.000 C 
ATOM     28  C   UNL     1      -1.045   9.833  17.793  0.00  0.00    +0.000 C 
ENDBRANCH  19  22
ENDBRANCH   4  19
TORSDOF 6
ENDMDL
MODEL 7
REMARK VINA RESULT:      -7.9      2.428      8.717
REMARK  Name = 
REMARK  6 active torsions:
REMARK  status: ('A' for Active; 'I' for Inactive)
REMARK    1  A    between atoms: C_2  and  C_12
REMARK    2  A    between atoms: N_3  and  C_4
REMARK    3  A    between atoms: C_4  and  C_5
REMARK    4  A    between atoms: C_5  and  C_6
REMARK    5  A    between atoms: C_15  and  S_16
REMARK    6  A    between atoms: S_16  and  N_19
REMARK                            x       y       z     vdW  Elec       q    Type
REMARK                         _______ _______ _______ _____ _____    ______ ____
ROOT
ATOM      1  C   UNL     1       2.225   7.148  19.241  0.00  0.00    +0.000 A 
ATOM      2  C   UNL     1       2.345   7.952  18.103  0.00  0.00    +0.000 A 
ATOM      3  C   UNL     1       1.872   9.267  18.130  0.00  0.00    +0.000 A 
ATOM      4  C   UNL     1       1.275   9.768  19.292  0.00  0.00    +0.000 A 
ATOM      5  C   UNL     1       1.189   8.973  20.443  0.00  0.00    +0.000 A 
ATOM      6  C   UNL     1       1.649   7.652  20.412  0.00  0.00    +0.000 A 
ENDROOT
BRANCH   1   8
ATOM      7  O   UNL     1       2.906   5.148  20.284  0.00  0.00    +0.000 OA
ATOM      8  C   UNL     1       2.742   5.755  19.240  0.00  0.00    +0.000 C 
ATOM      9  N   UNL     1       3.010   5.243  17.984  0.00  0.00    +0.000 N 
ATOM     10  H   UNL     1       3.046   5.872  17.195  0.00  0.00    +0.000 HD
BRANCH   9  11
ATOM     11  C   UNL     1       3.587   3.920  17.835  0.00  0.00    +0.000 C 
BRANCH  11  12
ATOM     12  C   UNL     1       4.796   3.941  16.907  0.00  0.00    +0.000 C 
BRANCH  12  13
ATOM     13  C   UNL     1       5.775   5.011  17.300  0.00  0.00    +0.000 A 
ATOM     14  C   UNL     1       6.819   4.728  18.176  0.00  0.00    +0.000 A 
ATOM     15  C   UNL     1       7.696   5.750  18.527  0.00  0.00    +0.000 A 
ATOM     16  C   UNL     1       7.506   7.021  18.001  0.00  0.00    +0.000 A 
ATOM     17  C   UNL     1       6.444   7.217  17.136  0.00  0.00    +0.000 A 
ATOM     18  N   UNL     1       5.577   6.245  16.776  0.00  0.00    +0.000 NA
ENDBRANCH  12  13
ENDBRANCH  11  12
ENDBRANCH   9  11
ENDBRANCH   1   8
BRANCH   4  19
ATOM     19  S   UNL     1       0.684  11.461  19.295  0.00  0.00    +0.000 S 
ATOM     20  O   UNL     1       0.488  11.843  20.676  0.00  0.00    +0.000 OA
ATOM     21  O   UNL     1       1.558  12.218  18.423  0.00  0.00    +0.000 OA
BRANCH  19  22
ATOM     22  N   UNL     1      -0.859  11.331  18.543  0.00  0.00    +0.000 NA
ATOM     23  C   UNL     1      -1.274   9.962  18.149  0.00  0.00    +0.000 C 
ATOM     24  C   UNL     1      -2.105   9.926  16.869  0.00  0.00    +0.000 C 
ATOM     25  C   UNL     1      -3.580  10.246  17.081  0.00  0.00    +0.000 C 
ATOM     26  C   UNL     1      -3.834  11.662  17.576  0.00  0.00    +0.000 C 
ATOM     27  C   UNL     1      -3.318  11.883  18.991  0.00  0.00    +0.000 C 
ATOM     28  C   UNL     1      -1.859  12.305  19.047  0.00  0.00    +0.000 C 
ENDBRANCH  19  22
ENDBRANCH   4  19
TORSDOF 6
ENDMDL
MODEL 8
REMARK VINA RESULT:      -7.8      2.607      9.178
REMARK  Name = 
REMARK  6 active torsions:
REMARK  status: ('A' for Active; 'I' for Inactive)
REMARK    1  A    between atoms: C_2  and  C_12
REMARK    2  A    between atoms: N_3  and  C_4
REMARK    3  A    between atoms: C_4  and  C_5
REMARK    4  A    between atoms: C_5  and  C_6
REMARK    5  A    between atoms: C_15  and  S_16
REMARK    6  A    between atoms: S_16  and  N_19
REMARK                            x       y       z     vdW  Elec       q    Type
REMARK                         _______ _______ _______ _____ _____    ______ ____
ROOT
ATOM      1  C   UNL     1       2.639   7.157  18.418  0.00  0.00    +0.000 A 
ATOM      2  C   UNL     1       2.565   8.234  17.527  0.00  0.00    +0.000 A 
ATOM      3  C   UNL     1       1.961   9.427  17.931  0.00  0.00    +0.000 A 
ATOM      4  C   UNL     1       1.428   9.536  19.221  0.00  0.00    +0.000 A 
ATOM      5  C   UNL     1       1.537   8.470  20.123  0.00  0.00    +0.000 A 
ATOM      6  C   UNL     1       2.128   7.270  19.715  0.00  0.00    +0.000 A 
ENDROOT
BRANCH   1   8
ATOM      7  O   UNL     1       2.876   4.814  18.405  0.00  0.00    +0.000 OA
ATOM      8  C   UNL     1       3.298   5.888  18.015  0.00  0.00    +0.000 C 
ATOM      9  N   UNL     1       4.395   6.047  17.189  0.00  0.00    +0.000 N 
ATOM     10  H   UNL     1       4.801   6.966  17.084  0.00  0.00    +0.000 HD
BRANCH   9  11
ATOM     11  C   UNL     1       5.179   4.899  16.775  0.00  0.00    +0.000 C 
BRANCH  11  12
ATOM     12  C   UNL     1       6.533   5.321  16.216  0.00  0.00    +0.000 C 
BRANCH  12  13
ATOM     13  C   UNL     1       6.692   4.907  14.781  0.00  0.00    +0.000 A 
ATOM     14  C   UNL     1       5.846   3.951  14.222  0.00  0.00    +0.000 A 
ATOM     15  C   UNL     1       6.035   3.583  12.894  0.00  0.00    +0.000 A 
ATOM     16  C   UNL     1       7.059   4.172  12.163  0.00  0.00    +0.000 A 
ATOM     17  C   UNL     1       7.853   5.114  12.793  0.00  0.00    +0.000 A 
ATOM     18  N   UNL     1       7.693   5.493  14.081  0.00  0.00    +0.000 NA
ENDBRANCH  12  13
ENDBRANCH  11  12
ENDBRANCH   9  11
ENDBRANCH   1   8
BRANCH   4  19
ATOM     19  S   UNL     1       0.666  11.084  19.709  0.00  0.00    +0.000 S 
ATOM     20  O   UNL     1       0.338  10.975  21.114  0.00  0.00    +0.000 OA
ATOM     21  O   UNL     1       1.512  12.150  19.215  0.00  0.00    +0.000 OA
BRANCH  19  22
ATOM     22  N   UNL     1      -0.801  11.090  18.809  0.00  0.00    +0.000 NA
ATOM     23  C   UNL     1      -1.291   9.765  18.359  0.00  0.00    +0.000 C 
ATOM     24  C   UNL     1      -1.993   9.806  17.003  0.00  0.00    +0.000 C 
ATOM     25  C   UNL     1      -3.448  10.251  17.075  0.00  0.00    +0.000 C 
ATOM     26  C   UNL     1      -3.629  11.680  17.561  0.00  0.00    +0.000 C 
ATOM     27  C   UNL     1      -3.237  11.849  19.022  0.00  0.00    +0.000 C 
ATOM     28  C   UNL     1      -1.760  12.144  19.226  0.00  0.00    +0.000 C 
ENDBRANCH  19  22
ENDBRANCH   4  19
TORSDOF 6
ENDMDL
MODEL 9
REMARK VINA RESULT:      -7.8      2.730      8.489
REMARK  Name = 
REMARK  6 active torsions:
REMARK  status: ('A' for Active; 'I' for Inactive)
REMARK    1  A    between atoms: C_2  and  C_12
REMARK    2  A    between atoms: N_3  and  C_4
REMARK    3  A    between atoms: C_4  and  C_5
REMARK    4  A    between atoms: C_5  and  C_6
REMARK    5  A    between atoms: C_15  and  S_16
REMARK    6  A    between atoms: S_16  and  N_19
REMARK                            x       y       z     vdW  Elec       q    Type
REMARK                         _______ _______ _______ _____ _____    ______ ____
ROOT
ATOM      1  C   UNL     1       2.716   7.401  18.477  0.00  0.00    +0.000 A 
ATOM      2  C   UNL     1       2.493   8.548  17.708  0.00  0.00    +0.000 A 
ATOM      3  C   UNL     1       1.702   9.581  18.217  0.00  0.00    +0.000 A 
ATOM      4  C   UNL     1       1.132   9.460  19.489  0.00  0.00    +0.000 A 
ATOM      5  C   UNL     1       1.386   8.327  20.273  0.00  0.00    +0.000 A 
ATOM      6  C   UNL     1       2.166   7.285  19.758  0.00  0.00    +0.000 A 
ENDROOT
BRANCH   1   8
ATOM      7  O   UNL     1       4.780   6.436  17.883  0.00  0.00    +0.000 OA
ATOM      8  C   UNL     1       3.573   6.301  17.963  0.00  0.00    +0.000 C 
ATOM      9  N   UNL     1       2.883   5.159  17.600  0.00  0.00    +0.000 N 
ATOM     10  H   UNL     1       1.879   5.202  17.501  0.00  0.00    +0.000 HD
BRANCH   9  11
ATOM     11  C   UNL     1       3.584   4.031  17.015  0.00  0.00    +0.000 C 
BRANCH  11  12
ATOM     12  C   UNL     1       4.017   3.031  18.081  0.00  0.00    +0.000 C 
BRANCH  12  13
ATOM     13  C   UNL     1       3.018   2.947  19.199  0.00  0.00    +0.000 A 
ATOM     14  C   UNL     1       3.438   2.956  20.527  0.00  0.00    +0.000 A 
ATOM     15  C   UNL     1       2.482   2.861  21.533  0.00  0.00    +0.000 A 
ATOM     16  C   UNL     1       1.140   2.756  21.191  0.00  0.00    +0.000 A 
ATOM     17  C   UNL     1       0.808   2.756  19.847  0.00  0.00    +0.000 A 
ATOM     18  N   UNL     1       1.713   2.848  18.848  0.00  0.00    +0.000 NA
ENDBRANCH  12  13
ENDBRANCH  11  12
ENDBRANCH   9  11
ENDBRANCH   1   8
BRANCH   4  19
ATOM     19  S   UNL     1       0.128  10.807  20.115  0.00  0.00    +0.000 S 
ATOM     20  O   UNL     1      -0.427  10.376  21.379  0.00  0.00    +0.000 OA
ATOM     21  O   UNL     1       0.923  12.013  20.016  0.00  0.00    +0.000 OA
BRANCH  19  22
ATOM     22  N   UNL     1      -1.150  10.900  18.965  0.00  0.00    +0.000 NA
ATOM     23  C   UNL     1      -1.548   9.618  18.334  0.00  0.00    +0.000 C 
ATOM     24  C   UNL     1      -1.990   9.770  16.880  0.00  0.00    +0.000 C 
ATOM     25  C   UNL     1      -3.434  10.227  16.718  0.00  0.00    +0.000 C 
ATOM     26  C   UNL     1      -3.702  11.619  17.271  0.00  0.00    +0.000 C 
ATOM     27  C   UNL     1      -3.584  11.673  18.787  0.00  0.00    +0.000 C 
ATOM     28  C   UNL     1      -2.170  11.932  19.279  0.00  0.00    +0.000 C 
ENDBRANCH  19  22
ENDBRANCH   4  19
TORSDOF 6
ENDMDL
