MODEL 1
REMARK VINA RESULT:      -8.7      0.000      0.000
REMARK  Name = 
REMARK  6 active torsions:
REMARK  status: ('A' for Active; 'I' for Inactive)
REMARK    1  A    between atoms: C_1  and  O_2
REMARK    2  A    between atoms: O_2  and  C_3
REMARK    3  A    between atoms: C_7  and  C_8
REMARK    4  A    between atoms: N_12  and  N_13
REMARK    5  A    between atoms: C_14  and  C_15
REMARK    6  A    between atoms: C_14  and  C_16
REMARK                            x       y       z     vdW  Elec       q    Type
REMARK                         _______ _______ _______ _____ _____    ______ ____
ROOT
ATOM      1  C   UNL     1       3.551   5.068  18.678  0.00  0.00    +0.000 A 
ATOM      2  C   UNL     1       2.999   3.954  19.268  0.00  0.00    +0.000 A 
ATOM      3  S   UNL     1       1.924   4.433  20.523  0.00  0.00    +0.000 S 
ATOM      4  C   UNL     1       2.284   6.101  20.188  0.00  0.00    +0.000 A 
ATOM      5  N   UNL     1       1.745   7.120  20.912  0.00  0.00    +0.000 N 
ATOM      6  N   UNL     1       3.138   6.272  19.204  0.00  0.00    +0.000 NA
ATOM      7  H   UNL     1       1.457   6.866  21.854  0.00  0.00    +0.000 HD
ENDROOT
BRANCH   1  12
ATOM      8  C   UNL     1       6.570   6.008  16.689  0.00  0.00    +0.000 A 
ATOM      9  C   UNL     1       6.462   5.146  15.597  0.00  0.00    +0.000 A 
ATOM     10  C   UNL     1       5.366   4.287  15.485  0.00  0.00    +0.000 A 
ATOM     11  C   UNL     1       4.446   4.183  16.531  0.00  0.00    +0.000 A 
ATOM     12  C   UNL     1       4.557   5.031  17.641  0.00  0.00    +0.000 A 
ATOM     13  C   UNL     1       5.620   5.943  17.709  0.00  0.00    +0.000 A 
BRANCH   8  15
ATOM     14  C   UNL     1       7.724   7.774  17.758  0.00  0.00    +0.000 C 
ATOM     15  O   UNL     1       7.541   6.967  16.602  0.00  0.00    +0.000 OA
ENDBRANCH   8  15
ENDBRANCH   1  12
BRANCH   5  16
ATOM     16  N   UNL     1       1.512   8.351  20.345  0.00  0.00    +0.000 NA
ATOM     17  C   UNL     1       0.891   9.308  20.965  0.00  0.00    +0.000 C 
ATOM     18  C   UNL     1       0.371   9.181  22.395  0.00  0.00    +0.000 C 
BRANCH  17  19
ATOM     19  C   UNL     1       0.657  10.624  20.204  0.00  0.00    +0.000 A 
ATOM     20  C   UNL     1       1.418  11.767  20.640  0.00  0.00    +0.000 A 
ATOM     21  C   UNL     1       1.249  13.002  20.051  0.00  0.00    +0.000 A 
ATOM     22  C   UNL     1       0.318  13.100  19.006  0.00  0.00    +0.000 A 
ATOM     23  C   UNL     1      -0.451  11.993  18.579  0.00  0.00    +0.000 A 
ATOM     24  C   UNL     1      -1.461  12.245  17.691  0.00  0.00    +0.000 A 
ATOM     25  C   UNL     1      -2.327  11.225  17.268  0.00  0.00    +0.000 A 
ATOM     26  C   UNL     1      -1.966   9.915  17.069  0.00  0.00    +0.000 A 
ATOM     27  C   UNL     1      -1.064   9.719  18.153  0.00  0.00    +0.000 A 
ATOM     28  C   UNL     1      -0.295  10.694  19.036  0.00  0.00    +0.000 A 
ENDBRANCH  17  19
ENDBRANCH   5  16
TORSDOF 4
ENDMDL
MODEL 2
REMARK VINA RESULT:      -8.4      1.088      1.611
REMARK  Name = 
REMARK  6 active torsions:
REMARK  status: ('A' for Active; 'I' for Inactive)
REMARK    1  A    between atoms: C_1  and  O_2
REMARK    2  A    between atoms: O_2  and  C_3
REMARK    3  A    between atoms: C_7  and  C_8
REMARK    4  A    between atoms: N_12  and  N_13
REMARK    5  A    between atoms: C_14  and  C_15
REMARK    6  A    between atoms: C_14  and  C_16
REMARK                            x       y       z     vdW  Elec       q    Type
REMARK                         _______ _______ _______ _____ _____    ______ ____
ROOT
ATOM      1  C   UNL     1       3.589   4.985  19.083  0.00  0.00    +0.000 A 
ATOM      2  C   UNL     1       2.966   3.862  19.577  0.00  0.00    +0.000 A 
ATOM      3  S   UNL     1       1.738   4.321  20.691  0.00  0.00    +0.000 S 
ATOM      4  C   UNL     1       2.138   5.994  20.436  0.00  0.00    +0.000 A 
ATOM      5  N   UNL     1       1.510   7.001  21.102  0.00  0.00    +0.000 N 
ATOM      6  N   UNL     1       3.112   6.180  19.573  0.00  0.00    +0.000 NA
ATOM      7  H   UNL     1       1.103   6.730  21.994  0.00  0.00    +0.000 HD
ENDROOT
BRANCH   1  12
ATOM      8  C   UNL     1       5.537   4.722  15.907  0.00  0.00    +0.000 A 
ATOM      9  C   UNL     1       6.848   4.746  16.382  0.00  0.00    +0.000 A 
ATOM     10  C   UNL     1       7.097   4.799  17.756  0.00  0.00    +0.000 A 
ATOM     11  C   UNL     1       6.041   4.968  18.655  0.00  0.00    +0.000 A 
ATOM     12  C   UNL     1       4.720   4.964  18.185  0.00  0.00    +0.000 A 
ATOM     13  C   UNL     1       4.479   4.835  16.809  0.00  0.00    +0.000 A 
BRANCH   8  15
ATOM     14  C   UNL     1       6.589   4.212  13.851  0.00  0.00    +0.000 C 
ATOM     15  O   UNL     1       5.387   4.438  14.577  0.00  0.00    +0.000 OA
ENDBRANCH   8  15
ENDBRANCH   1  12
BRANCH   5  16
ATOM     16  N   UNL     1       1.352   8.242  20.532  0.00  0.00    +0.000 NA
ATOM     17  C   UNL     1       0.559   9.147  21.019  0.00  0.00    +0.000 C 
ATOM     18  C   UNL     1      -0.267   8.943  22.288  0.00  0.00    +0.000 C 
BRANCH  17  19
ATOM     19  C   UNL     1       0.441  10.481  20.263  0.00  0.00    +0.000 A 
ATOM     20  C   UNL     1       1.240  11.575  20.753  0.00  0.00    +0.000 A 
ATOM     21  C   UNL     1       1.171  12.823  20.170  0.00  0.00    +0.000 A 
ATOM     22  C   UNL     1       0.305  12.983  19.078  0.00  0.00    +0.000 A 
ATOM     23  C   UNL     1      -0.500  11.925  18.597  0.00  0.00    +0.000 A 
ATOM     24  C   UNL     1      -1.445  12.241  17.660  0.00  0.00    +0.000 A 
ATOM     25  C   UNL     1      -2.342  11.275  17.179  0.00  0.00    +0.000 A 
ATOM     26  C   UNL     1      -2.044   9.949  16.984  0.00  0.00    +0.000 A 
ATOM     27  C   UNL     1      -1.215   9.694  18.112  0.00  0.00    +0.000 A 
ATOM     28  C   UNL     1      -0.441  10.616  19.047  0.00  0.00    +0.000 A 
ENDBRANCH  17  19
ENDBRANCH   5  16
TORSDOF 4
ENDMDL
MODEL 3
REMARK VINA RESULT:      -8.4      3.002      8.371
REMARK  Name = 
REMARK  6 active torsions:
REMARK  status: ('A' for Active; 'I' for Inactive)
REMARK    1  A    between atoms: C_1  and  O_2
REMARK    2  A    between atoms: O_2  and  C_3
REMARK    3  A    between atoms: C_7  and  C_8
REMARK    4  A    between atoms: N_12  and  N_13
REMARK    5  A    between atoms: C_14  and  C_15
REMARK    6  A    between atoms: C_14  and  C_16
REMARK                            x       y       z     vdW  Elec       q    Type
REMARK                         _______ _______ _______ _____ _____    ______ ____
ROOT
ATOM      1  C   UNL     1      -1.374  10.787  19.137  0.00  0.00    +0.000 A 
ATOM      2  C   UNL     1      -1.323  11.707  20.159  0.00  0.00    +0.000 A 
ATOM      3  S   UNL     1      -0.094  11.265  21.279  0.00  0.00    +0.000 S 
ATOM      4  C   UNL     1       0.275   9.866  20.315  0.00  0.00    +0.000 A 
ATOM      5  N   UNL     1       1.226   8.963  20.679  0.00  0.00    +0.000 N 
ATOM      6  N   UNL     1      -0.467   9.755  19.236  0.00  0.00    +0.000 NA
ATOM      7  H   UNL     1       1.418   8.929  21.677  0.00  0.00    +0.000 HD
ENDROOT
BRANCH   1  12
ATOM      8  C   UNL     1      -2.837  10.369  15.726  0.00  0.00    +0.000 A 
ATOM      9  C   UNL     1      -4.094  10.952  15.889  0.00  0.00    +0.000 A 
ATOM     10  C   UNL     1      -4.446  11.531  17.110  0.00  0.00    +0.000 A 
ATOM     11  C   UNL     1      -3.601  11.407  18.216  0.00  0.00    +0.000 A 
ATOM     12  C   UNL     1      -2.344  10.807  18.067  0.00  0.00    +0.000 A 
ATOM     13  C   UNL     1      -1.970  10.294  16.816  0.00  0.00    +0.000 A 
BRANCH   8  15
ATOM     14  C   UNL     1      -3.567   9.933  13.519  0.00  0.00    +0.000 C 
ATOM     15  O   UNL     1      -2.492  10.037  14.444  0.00  0.00    +0.000 OA
ENDBRANCH   8  15
ENDBRANCH   1  12
BRANCH   5  16
ATOM     16  N   UNL     1       1.935   8.257  19.737  0.00  0.00    +0.000 NA
ATOM     17  C   UNL     1       2.106   6.971  19.799  0.00  0.00    +0.000 C 
ATOM     18  C   UNL     1       1.524   6.100  20.910  0.00  0.00    +0.000 C 
BRANCH  17  19
ATOM     19  C   UNL     1       2.956   6.306  18.703  0.00  0.00    +0.000 A 
ATOM     20  C   UNL     1       3.694   7.186  17.833  0.00  0.00    +0.000 A 
ATOM     21  C   UNL     1       4.450   6.688  16.792  0.00  0.00    +0.000 A 
ATOM     22  C   UNL     1       4.482   5.296  16.621  0.00  0.00    +0.000 A 
ATOM     23  C   UNL     1       3.749   4.420  17.453  0.00  0.00    +0.000 A 
ATOM     24  C   UNL     1       3.697   3.106  17.078  0.00  0.00    +0.000 A 
ATOM     25  C   UNL     1       2.931   2.174  17.796  0.00  0.00    +0.000 A 
ATOM     26  C   UNL     1       2.747   2.188  19.157  0.00  0.00    +0.000 A 
ATOM     27  C   UNL     1       2.631   3.585  19.397  0.00  0.00    +0.000 A 
ATOM     28  C   UNL     1       3.035   4.804  18.577  0.00  0.00    +0.000 A 
ENDBRANCH  17  19
ENDBRANCH   5  16
TORSDOF 4
ENDMDL
MODEL 4
REMARK VINA RESULT:      -8.4      0.693      2.338
REMARK  Name = 
REMARK  6 active torsions:
REMARK  status: ('A' for Active; 'I' for Inactive)
REMARK    1  A    between atoms: C_1  and  O_2
REMARK    2  A    between atoms: O_2  and  C_3
REMARK    3  A    between atoms: C_7  and  C_8
REMARK    4  A    between atoms: N_12  and  N_13
REMARK    5  A    between atoms: C_14  and  C_15
REMARK    6  A    between atoms: C_14  and  C_16
REMARK                            x       y       z     vdW  Elec       q    Type
REMARK                         _______ _______ _______ _____ _____    ______ ____
ROOT
ATOM      1  C   UNL     1       3.538   5.231  18.882  0.00  0.00    +0.000 A 
ATOM      2  C   UNL     1       3.149   4.151  19.642  0.00  0.00    +0.000 A 
ATOM      3  S   UNL     1       2.074   4.670  20.881  0.00  0.00    +0.000 S 
ATOM      4  C   UNL     1       2.216   6.307  20.313  0.00  0.00    +0.000 A 
ATOM      5  N   UNL     1       1.587   7.346  20.927  0.00  0.00    +0.000 N 
ATOM      6  N   UNL     1       3.004   6.439  19.269  0.00  0.00    +0.000 NA
ATOM      7  H   UNL     1       1.369   7.190  21.908  0.00  0.00    +0.000 HD
ENDROOT
BRANCH   1  12
ATOM      8  C   UNL     1       6.455   6.137  16.732  0.00  0.00    +0.000 A 
ATOM      9  C   UNL     1       6.315   5.234  15.678  0.00  0.00    +0.000 A 
ATOM     10  C   UNL     1       5.229   4.355  15.645  0.00  0.00    +0.000 A 
ATOM     11  C   UNL     1       4.356   4.278  16.734  0.00  0.00    +0.000 A 
ATOM     12  C   UNL     1       4.500   5.168  17.806  0.00  0.00    +0.000 A 
ATOM     13  C   UNL     1       5.551   6.097  17.794  0.00  0.00    +0.000 A 
BRANCH   8  15
ATOM     14  C   UNL     1       7.783   7.813  17.743  0.00  0.00    +0.000 C 
ATOM     15  O   UNL     1       7.407   7.107  16.568  0.00  0.00    +0.000 OA
ENDBRANCH   8  15
ENDBRANCH   1  12
BRANCH   5  16
ATOM     16  N   UNL     1       1.184   8.453  20.218  0.00  0.00    +0.000 NA
ATOM     17  C   UNL     1       0.396   9.359  20.711  0.00  0.00    +0.000 C 
ATOM     18  C   UNL     1      -0.153   9.308  22.135  0.00  0.00    +0.000 C 
BRANCH  17  19
ATOM     19  C   UNL     1      -0.013  10.529  19.801  0.00  0.00    +0.000 A 
ATOM     20  C   UNL     1      -1.143  10.310  18.934  0.00  0.00    +0.000 A 
ATOM     21  C   UNL     1      -1.560  11.281  18.049  0.00  0.00    +0.000 A 
ATOM     22  C   UNL     1      -0.852  12.492  18.033  0.00  0.00    +0.000 A 
ATOM     23  C   UNL     1       0.270  12.716  18.863  0.00  0.00    +0.000 A 
ATOM     24  C   UNL     1       0.999  13.850  18.627  0.00  0.00    +0.000 A 
ATOM     25  C   UNL     1       2.173  14.122  19.347  0.00  0.00    +0.000 A 
ATOM     26  C   UNL     1       2.380  13.805  20.667  0.00  0.00    +0.000 A 
ATOM     27  C   UNL     1       1.743  12.535  20.740  0.00  0.00    +0.000 A 
ATOM     28  C   UNL     1       0.715  11.850  19.848  0.00  0.00    +0.000 A 
ENDBRANCH  17  19
ENDBRANCH   5  16
TORSDOF 4
ENDMDL
MODEL 5
REMARK VINA RESULT:      -8.3      3.430      8.681
REMARK  Name = 
REMARK  6 active torsions:
REMARK  status: ('A' for Active; 'I' for Inactive)
REMARK    1  A    between atoms: C_1  and  O_2
REMARK    2  A    between atoms: O_2  and  C_3
REMARK    3  A    between atoms: C_7  and  C_8
REMARK    4  A    between atoms: N_12  and  N_13
REMARK    5  A    between atoms: C_14  and  C_15
REMARK    6  A    between atoms: C_14  and  C_16
REMARK                            x       y       z     vdW  Elec       q    Type
REMARK                         _______ _______ _______ _____ _____    ______ ____
ROOT
ATOM      1  C   UNL     1      -1.260  10.691  18.990  0.00  0.00    +0.000 A 
ATOM      2  C   UNL     1      -1.261  11.579  20.042  0.00  0.00    +0.000 A 
ATOM      3  S   UNL     1      -0.091  11.100  21.209  0.00  0.00    +0.000 S 
ATOM      4  C   UNL     1       0.328   9.732  20.220  0.00  0.00    +0.000 A 
ATOM      5  N   UNL     1       1.260   8.817  20.604  0.00  0.00    +0.000 N 
ATOM      6  N   UNL     1      -0.358   9.657  19.102  0.00  0.00    +0.000 NA
ATOM      7  H   UNL     1       1.401   8.751  21.609  0.00  0.00    +0.000 HD
ENDROOT
BRANCH   1  12
ATOM      8  C   UNL     1      -4.285  11.555  16.977  0.00  0.00    +0.000 A 
ATOM      9  C   UNL     1      -4.084  10.788  15.830  0.00  0.00    +0.000 A 
ATOM     10  C   UNL     1      -2.976   9.942  15.735  0.00  0.00    +0.000 A 
ATOM     11  C   UNL     1      -1.990   9.964  16.725  0.00  0.00    +0.000 A 
ATOM     12  C   UNL     1      -2.174  10.747  17.873  0.00  0.00    +0.000 A 
ATOM     13  C   UNL     1      -3.327  11.536  17.991  0.00  0.00    +0.000 A 
BRANCH   8  15
ATOM     14  C   UNL     1      -6.098  12.157  18.373  0.00  0.00    +0.000 C 
ATOM     15  O   UNL     1      -5.503  12.170  17.081  0.00  0.00    +0.000 OA
ENDBRANCH   8  15
ENDBRANCH   1  12
BRANCH   5  16
ATOM     16  N   UNL     1       2.017   8.141  19.676  0.00  0.00    +0.000 NA
ATOM     17  C   UNL     1       2.223   6.861  19.732  0.00  0.00    +0.000 C 
ATOM     18  C   UNL     1       1.633   5.962  20.816  0.00  0.00    +0.000 C 
BRANCH  17  19
ATOM     19  C   UNL     1       3.124   6.231  18.655  0.00  0.00    +0.000 A 
ATOM     20  C   UNL     1       3.810   7.140  17.773  0.00  0.00    +0.000 A 
ATOM     21  C   UNL     1       4.606   6.673  16.748  0.00  0.00    +0.000 A 
ATOM     22  C   UNL     1       4.731   5.283  16.606  0.00  0.00    +0.000 A 
ATOM     23  C   UNL     1       4.050   4.378  17.451  0.00  0.00    +0.000 A 
ATOM     24  C   UNL     1       4.088   3.055  17.101  0.00  0.00    +0.000 A 
ATOM     25  C   UNL     1       3.379   2.090  17.833  0.00  0.00    +0.000 A 
ATOM     26  C   UNL     1       3.182   2.118  19.192  0.00  0.00    +0.000 A 
ATOM     27  C   UNL     1       2.972   3.509  19.403  0.00  0.00    +0.000 A 
ATOM     28  C   UNL     1       3.303   4.736  18.561  0.00  0.00    +0.000 A 
ENDBRANCH  17  19
ENDBRANCH   5  16
TORSDOF 4
ENDMDL
MODEL 6
REMARK VINA RESULT:      -8.3      2.872      8.450
REMARK  Name = 
REMARK  6 active torsions:
REMARK  status: ('A' for Active; 'I' for Inactive)
REMARK    1  A    between atoms: C_1  and  O_2
REMARK    2  A    between atoms: O_2  and  C_3
REMARK    3  A    between atoms: C_7  and  C_8
REMARK    4  A    between atoms: N_12  and  N_13
REMARK    5  A    between atoms: C_14  and  C_15
REMARK    6  A    between atoms: C_14  and  C_16
REMARK                            x       y       z     vdW  Elec       q    Type
REMARK                         _______ _______ _______ _____ _____    ______ ____
ROOT
ATOM      1  C   UNL     1      -0.803  10.716  18.915  0.00  0.00    +0.000 A 
ATOM      2  C   UNL     1      -0.395  11.768  19.703  0.00  0.00    +0.000 A 
ATOM      3  S   UNL     1       0.950  11.288  20.662  0.00  0.00    +0.000 S 
ATOM      4  C   UNL     1       0.883   9.701  19.955  0.00  0.00    +0.000 A 
ATOM      5  N   UNL     1       1.730   8.703  20.327  0.00  0.00    +0.000 N 
ATOM      6  N   UNL     1      -0.073   9.558  19.064  0.00  0.00    +0.000 NA
ATOM      7  H   UNL     1       2.116   8.801  21.264  0.00  0.00    +0.000 HD
ENDROOT
BRANCH   1  12
ATOM      8  C   UNL     1      -2.911  10.212  15.872  0.00  0.00    +0.000 A 
ATOM      9  C   UNL     1      -4.076  10.893  16.226  0.00  0.00    +0.000 A 
ATOM     10  C   UNL     1      -4.154  11.565  17.448  0.00  0.00    +0.000 A 
ATOM     11  C   UNL     1      -3.123  11.443  18.383  0.00  0.00    +0.000 A 
ATOM     12  C   UNL     1      -1.956  10.746  18.044  0.00  0.00    +0.000 A 
ATOM     13  C   UNL     1      -1.858  10.137  16.785  0.00  0.00    +0.000 A 
BRANCH   8  15
ATOM     14  C   UNL     1      -3.944  10.119  13.747  0.00  0.00    +0.000 C 
ATOM     15  O   UNL     1      -2.837   9.784  14.575  0.00  0.00    +0.000 OA
ENDBRANCH   8  15
ENDBRANCH   1  12
BRANCH   5  16
ATOM     16  N   UNL     1       2.108   7.722  19.441  0.00  0.00    +0.000 NA
ATOM     17  C   UNL     1       2.077   6.458  19.733  0.00  0.00    +0.000 C 
ATOM     18  C   UNL     1       1.600   5.919  21.080  0.00  0.00    +0.000 C 
BRANCH  17  19
ATOM     19  C   UNL     1       2.565   5.462  18.666  0.00  0.00    +0.000 A 
ATOM     20  C   UNL     1       1.725   4.319  18.417  0.00  0.00    +0.000 A 
ATOM     21  C   UNL     1       2.097   3.347  17.511  0.00  0.00    +0.000 A 
ATOM     22  C   UNL     1       3.314   3.521  16.835  0.00  0.00    +0.000 A 
ATOM     23  C   UNL     1       4.158   4.627  17.082  0.00  0.00    +0.000 A 
ATOM     24  C   UNL     1       5.402   4.596  16.515  0.00  0.00    +0.000 A 
ATOM     25  C   UNL     1       6.340   5.610  16.765  0.00  0.00    +0.000 A 
ATOM     26  C   UNL     1       6.037   6.938  16.941  0.00  0.00    +0.000 A 
ATOM     27  C   UNL     1       4.834   6.840  17.694  0.00  0.00    +0.000 A 
ATOM     28  C   UNL     1       3.841   5.702  17.898  0.00  0.00    +0.000 A 
ENDBRANCH  17  19
ENDBRANCH   5  16
TORSDOF 4
ENDMDL
MODEL 7
REMARK VINA RESULT:      -8.2      3.279      8.710
REMARK  Name = 
REMARK  6 active torsions:
REMARK  status: ('A' for Active; 'I' for Inactive)
REMARK    1  A    between atoms: C_1  and  O_2
REMARK    2  A    between atoms: O_2  and  C_3
REMARK    3  A    between atoms: C_7  and  C_8
REMARK    4  A    between atoms: N_12  and  N_13
REMARK    5  A    between atoms: C_14  and  C_15
REMARK    6  A    between atoms: C_14  and  C_16
REMARK                            x       y       z     vdW  Elec       q    Type
REMARK                         _______ _______ _______ _____ _____    ______ ____
ROOT
ATOM      1  C   UNL     1      -0.724  10.588  19.063  0.00  0.00    +0.000 A 
ATOM      2  C   UNL     1      -0.350  11.573  19.948  0.00  0.00    +0.000 A 
ATOM      3  S   UNL     1       0.951  11.013  20.925  0.00  0.00    +0.000 S 
ATOM      4  C   UNL     1       0.912   9.486  20.094  0.00  0.00    +0.000 A 
ATOM      5  N   UNL     1       1.740   8.458  20.425  0.00  0.00    +0.000 N 
ATOM      6  N   UNL     1      -0.004   9.418  19.154  0.00  0.00    +0.000 NA
ATOM      7  H   UNL     1       2.083   8.480  21.382  0.00  0.00    +0.000 HD
ENDROOT
BRANCH   1  12
ATOM      8  C   UNL     1      -4.063  11.565  17.704  0.00  0.00    +0.000 A 
ATOM      9  C   UNL     1      -4.109  10.826  16.521  0.00  0.00    +0.000 A 
ATOM     10  C   UNL     1      -3.061   9.963  16.191  0.00  0.00    +0.000 A 
ATOM     11  C   UNL     1      -1.900   9.939  16.968  0.00  0.00    +0.000 A 
ATOM     12  C   UNL     1      -1.837  10.692  18.148  0.00  0.00    +0.000 A 
ATOM     13  C   UNL     1      -2.926  11.499  18.509  0.00  0.00    +0.000 A 
BRANCH   8  15
ATOM     14  C   UNL     1      -6.051  12.625  16.984  0.00  0.00    +0.000 C 
ATOM     15  O   UNL     1      -5.223  12.199  18.058  0.00  0.00    +0.000 OA
ENDBRANCH   8  15
ENDBRANCH   1  12
BRANCH   5  16
ATOM     16  N   UNL     1       2.154   7.547  19.482  0.00  0.00    +0.000 NA
ATOM     17  C   UNL     1       2.181   6.267  19.701  0.00  0.00    +0.000 C 
ATOM     18  C   UNL     1       1.737   5.632  21.016  0.00  0.00    +0.000 C 
BRANCH  17  19
ATOM     19  C   UNL     1       2.705   5.357  18.577  0.00  0.00    +0.000 A 
ATOM     20  C   UNL     1       1.889   4.220  18.232  0.00  0.00    +0.000 A 
ATOM     21  C   UNL     1       2.294   3.320  17.268  0.00  0.00    +0.000 A 
ATOM     22  C   UNL     1       3.519   3.560  16.630  0.00  0.00    +0.000 A 
ATOM     23  C   UNL     1       4.340   4.660  16.969  0.00  0.00    +0.000 A 
ATOM     24  C   UNL     1       5.595   4.688  16.426  0.00  0.00    +0.000 A 
ATOM     25  C   UNL     1       6.510   5.698  16.763  0.00  0.00    +0.000 A 
ATOM     26  C   UNL     1       6.181   7.005  17.026  0.00  0.00    +0.000 A 
ATOM     27  C   UNL     1       4.967   6.835  17.747  0.00  0.00    +0.000 A 
ATOM     28  C   UNL     1       3.990   5.670  17.851  0.00  0.00    +0.000 A 
ENDBRANCH  17  19
ENDBRANCH   5  16
TORSDOF 4
ENDMDL
MODEL 8
REMARK VINA RESULT:      -8.2      1.425      2.318
REMARK  Name = 
REMARK  6 active torsions:
REMARK  status: ('A' for Active; 'I' for Inactive)
REMARK    1  A    between atoms: C_1  and  O_2
REMARK    2  A    between atoms: O_2  and  C_3
REMARK    3  A    between atoms: C_7  and  C_8
REMARK    4  A    between atoms: N_12  and  N_13
REMARK    5  A    between atoms: C_14  and  C_15
REMARK    6  A    between atoms: C_14  and  C_16
REMARK                            x       y       z     vdW  Elec       q    Type
REMARK                         _______ _______ _______ _____ _____    ______ ____
ROOT
ATOM      1  C   UNL     1       3.455   4.938  18.631  0.00  0.00    +0.000 A 
ATOM      2  C   UNL     1       2.763   3.819  19.032  0.00  0.00    +0.000 A 
ATOM      3  S   UNL     1       1.630   4.242  20.256  0.00  0.00    +0.000 S 
ATOM      4  C   UNL     1       2.156   5.897  20.164  0.00  0.00    +0.000 A 
ATOM      5  N   UNL     1       1.647   6.867  20.970  0.00  0.00    +0.000 N 
ATOM      6  N   UNL     1       3.102   6.103  19.275  0.00  0.00    +0.000 NA
ATOM      7  H   UNL     1       1.260   6.529  21.848  0.00  0.00    +0.000 HD
ENDROOT
BRANCH   1  12
ATOM      8  C   UNL     1       6.464   6.082  16.736  0.00  0.00    +0.000 A 
ATOM      9  C   UNL     1       6.570   5.092  15.759  0.00  0.00    +0.000 A 
ATOM     10  C   UNL     1       5.620   4.070  15.688  0.00  0.00    +0.000 A 
ATOM     11  C   UNL     1       4.641   3.952  16.678  0.00  0.00    +0.000 A 
ATOM     12  C   UNL     1       4.538   4.931  17.675  0.00  0.00    +0.000 A 
ATOM     13  C   UNL     1       5.452   5.995  17.693  0.00  0.00    +0.000 A 
BRANCH   8  15
ATOM     14  C   UNL     1       7.762   7.752  17.794  0.00  0.00    +0.000 C 
ATOM     15  O   UNL     1       7.294   7.160  16.589  0.00  0.00    +0.000 OA
ENDBRANCH   8  15
ENDBRANCH   1  12
BRANCH   5  16
ATOM     16  N   UNL     1       1.567   8.173  20.549  0.00  0.00    +0.000 NA
ATOM     17  C   UNL     1       0.663   9.000  20.979  0.00  0.00    +0.000 C 
ATOM     18  C   UNL     1      -0.396   8.621  22.012  0.00  0.00    +0.000 C 
BRANCH  17  19
ATOM     19  C   UNL     1       0.656  10.424  20.399  0.00  0.00    +0.000 A 
ATOM     20  C   UNL     1       1.204  10.585  19.076  0.00  0.00    +0.000 A 
ATOM     21  C   UNL     1       1.283  11.829  18.485  0.00  0.00    +0.000 A 
ATOM     22  C   UNL     1       0.801  12.926  19.214  0.00  0.00    +0.000 A 
ATOM     23  C   UNL     1       0.279  12.788  20.521  0.00  0.00    +0.000 A 
ATOM     24  C   UNL     1       0.021  13.941  21.210  0.00  0.00    +0.000 A 
ATOM     25  C   UNL     1      -0.427  13.907  22.540  0.00  0.00    +0.000 A 
ATOM     26  C   UNL     1      -1.264  12.954  23.067  0.00  0.00    +0.000 A 
ATOM     27  C   UNL     1      -0.779  11.785  22.418  0.00  0.00    +0.000 A 
ATOM     28  C   UNL     1       0.069  11.581  21.168  0.00  0.00    +0.000 A 
ENDBRANCH  17  19
ENDBRANCH   5  16
TORSDOF 4
ENDMDL
MODEL 9
REMARK VINA RESULT:      -8.1      0.992      1.006
REMARK  Name = 
REMARK  6 active torsions:
REMARK  status: ('A' for Active; 'I' for Inactive)
REMARK    1  A    between atoms: C_1  and  O_2
REMARK    2  A    between atoms: O_2  and  C_3
REMARK    3  A    between atoms: C_7  and  C_8
REMARK    4  A    between atoms: N_12  and  N_13
REMARK    5  A    between atoms: C_14  and  C_15
REMARK    6  A    between atoms: C_14  and  C_16
REMARK                            x       y       z     vdW  Elec       q    Type
REMARK                         _______ _______ _______ _____ _____    ______ ____
ROOT
ATOM      1  C   UNL     1       3.184   4.656  19.072  0.00  0.00    +0.000 A 
ATOM      2  C   UNL     1       2.485   3.577  19.564  0.00  0.00    +0.000 A 
ATOM      3  S   UNL     1       1.304   4.115  20.693  0.00  0.00    +0.000 S 
ATOM      4  C   UNL     1       1.821   5.757  20.445  0.00  0.00    +0.000 A 
ATOM      5  N   UNL     1       1.273   6.801  21.124  0.00  0.00    +0.000 N 
ATOM      6  N   UNL     1       2.798   5.878  19.574  0.00  0.00    +0.000 NA
ATOM      7  H   UNL     1       0.856   6.554  22.018  0.00  0.00    +0.000 HD
ENDROOT
BRANCH   1  12
ATOM      8  C   UNL     1       6.715   4.581  17.857  0.00  0.00    +0.000 A 
ATOM      9  C   UNL     1       6.533   4.546  16.474  0.00  0.00    +0.000 A 
ATOM     10  C   UNL     1       5.246   4.599  15.934  0.00  0.00    +0.000 A 
ATOM     11  C   UNL     1       4.129   4.544  16.773  0.00  0.00    +0.000 A 
ATOM     12  C   UNL     1       4.302   4.560  18.163  0.00  0.00    +0.000 A 
ATOM     13  C   UNL     1       5.600   4.582  18.695  0.00  0.00    +0.000 A 
BRANCH   8  15
ATOM     14  C   UNL     1       8.193   5.761  19.277  0.00  0.00    +0.000 C 
ATOM     15  O   UNL     1       8.002   4.758  18.287  0.00  0.00    +0.000 OA
ENDBRANCH   8  15
ENDBRANCH   1  12
BRANCH   5  16
ATOM     16  N   UNL     1       1.200   8.054  20.564  0.00  0.00    +0.000 NA
ATOM     17  C   UNL     1       0.534   9.031  21.101  0.00  0.00    +0.000 C 
ATOM     18  C   UNL     1      -0.222   8.902  22.422  0.00  0.00    +0.000 C 
BRANCH  17  19
ATOM     19  C   UNL     1       0.496  10.373  20.353  0.00  0.00    +0.000 A 
ATOM     20  C   UNL     1       1.356  11.416  20.852  0.00  0.00    +0.000 A 
ATOM     21  C   UNL     1       1.363  12.670  20.276  0.00  0.00    +0.000 A 
ATOM     22  C   UNL     1       0.512  12.886  19.182  0.00  0.00    +0.000 A 
ATOM     23  C   UNL     1      -0.351  11.879  18.692  0.00  0.00    +0.000 A 
ATOM     24  C   UNL     1      -1.272  12.256  17.753  0.00  0.00    +0.000 A 
ATOM     25  C   UNL     1      -2.223  11.347  17.262  0.00  0.00    +0.000 A 
ATOM     26  C   UNL     1      -2.001  10.007  17.061  0.00  0.00    +0.000 A 
ATOM     27  C   UNL     1      -1.193   9.697  18.190  0.00  0.00    +0.000 A 
ATOM     28  C   UNL     1      -0.371  10.566  19.134  0.00  0.00    +0.000 A 
ENDBRANCH  17  19
ENDBRANCH   5  16
TORSDOF 4
ENDMDL
