MODEL 1
REMARK VINA RESULT:      -8.9      0.000      0.000
REMARK  Name = 
REMARK  8 active torsions:
REMARK  status: ('A' for Active; 'I' for Inactive)
REMARK    1  A    between atoms: C_1  and  C_2
REMARK    2  A    between atoms: C_6  and  C_7
REMARK    3  A    between atoms: C_8  and  N_9
REMARK    4  A    between atoms: C_13  and  C_14
REMARK    5  A    between atoms: C_17  and  O_18
REMARK    6  A    between atoms: O_18  and  C_19
REMARK    7  A    between atoms: C_19  and  C_20
REMARK    8  A    between atoms: N_24  and  C_25
REMARK                            x       y       z     vdW  Elec       q    Type
REMARK                         _______ _______ _______ _____ _____    ______ ____
ROOT
ATOM      1  N   UNL     1      -3.485  12.992  19.267  0.00  0.00    +0.000 N 
ATOM      2  C   UNL     1      -2.364  12.191  19.119  0.00  0.00    +0.000 A 
ATOM      3  N   UNL     1      -2.437  11.053  18.457  0.00  0.00    +0.000 NA
ATOM      4  C   UNL     1      -1.380  10.164  18.473  0.00  0.00    +0.000 A 
ATOM      5  C   UNL     1      -0.204  10.386  19.088  0.00  0.00    +0.000 A 
ATOM      6  N   UNL     1      -0.042  11.639  19.670  0.00  0.00    +0.000 N 
ATOM      7  C   UNL     1       1.027  12.235  20.285  0.00  0.00    +0.000 A 
ATOM      8  N   UNL     1       0.746  13.460  20.680  0.00  0.00    +0.000 NA
ATOM      9  C   UNL     1      -0.562  13.668  20.311  0.00  0.00    +0.000 A 
ATOM     10  C   UNL     1      -1.077  12.549  19.688  0.00  0.00    +0.000 A 
ATOM     11  H   UNL     1      -3.338  13.849  19.788  0.00  0.00    +0.000 HD
ENDROOT
BRANCH   1  19
ATOM     12  C   UNL     1      -4.381  12.685  22.020  0.00  0.00    +0.000 C 
ATOM     13  C   UNL     1      -5.253  12.357  20.838  0.00  0.00    +0.000 A 
ATOM     14  C   UNL     1      -6.539  11.847  21.112  0.00  0.00    +0.000 A 
ATOM     15  C   UNL     1      -7.409  11.521  20.083  0.00  0.00    +0.000 A 
ATOM     16  C   UNL     1      -6.998  11.669  18.770  0.00  0.00    +0.000 A 
ATOM     17  C   UNL     1      -5.706  12.136  18.451  0.00  0.00    +0.000 A 
ATOM     18  C   UNL     1      -5.375  12.168  16.982  0.00  0.00    +0.000 C 
ATOM     19  C   UNL     1      -4.820  12.526  19.492  0.00  0.00    +0.000 A 
ENDBRANCH   1  19
BRANCH   5  20
ATOM     20  C   UNL     1       0.816   9.325  19.129  0.00  0.00    +0.000 A 
ATOM     21  C   UNL     1       1.539   9.007  17.979  0.00  0.00    +0.000 A 
ATOM     22  C   UNL     1       2.466   7.961  17.997  0.00  0.00    +0.000 A 
ATOM     23  C   UNL     1       2.697   7.223  19.162  0.00  0.00    +0.000 A 
ATOM     24  C   UNL     1       1.976   7.529  20.314  0.00  0.00    +0.000 A 
ATOM     25  C   UNL     1       1.037   8.575  20.296  0.00  0.00    +0.000 A 
BRANCH  23  26
ATOM     26  O   UNL     1       3.591   6.201  19.023  0.00  0.00    +0.000 OA
BRANCH  26  27
ATOM     27  C   UNL     1       3.339   5.223  18.005  0.00  0.00    +0.000 C 
BRANCH  27  28
ATOM     28  C   UNL     1       3.931   3.882  18.487  0.00  0.00    +0.000 C 
ATOM     29  C   UNL     1       3.484   2.700  17.612  0.00  0.00    +0.000 C 
ATOM     30  C   UNL     1       2.022   2.346  17.868  0.00  0.00    +0.000 C 
ATOM     31  C   UNL     1       1.778   2.090  19.353  0.00  0.00    +0.000 C 
ATOM     32  N   UNL     1       2.189   3.234  20.185  0.00  0.00    +0.000 NA
ATOM     33  C   UNL     1       1.975   2.906  21.600  0.00  0.00    +0.000 C 
ATOM     34  C   UNL     1       3.601   3.587  19.961  0.00  0.00    +0.000 C 
ENDBRANCH  27  28
ENDBRANCH  26  27
ENDBRANCH  23  26
ENDBRANCH   5  20
TORSDOF 5
ENDMDL
MODEL 2
REMARK VINA RESULT:      -8.7      0.511      1.605
REMARK  Name = 
REMARK  8 active torsions:
REMARK  status: ('A' for Active; 'I' for Inactive)
REMARK    1  A    between atoms: C_1  and  C_2
REMARK    2  A    between atoms: C_6  and  C_7
REMARK    3  A    between atoms: C_8  and  N_9
REMARK    4  A    between atoms: C_13  and  C_14
REMARK    5  A    between atoms: C_17  and  O_18
REMARK    6  A    between atoms: O_18  and  C_19
REMARK    7  A    between atoms: C_19  and  C_20
REMARK    8  A    between atoms: N_24  and  C_25
REMARK                            x       y       z     vdW  Elec       q    Type
REMARK                         _______ _______ _______ _____ _____    ______ ____
ROOT
ATOM      1  N   UNL     1      -3.525  12.834  19.155  0.00  0.00    +0.000 N 
ATOM      2  C   UNL     1      -2.395  12.041  19.035  0.00  0.00    +0.000 A 
ATOM      3  N   UNL     1      -2.470  10.849  18.477  0.00  0.00    +0.000 NA
ATOM      4  C   UNL     1      -1.396   9.982  18.530  0.00  0.00    +0.000 A 
ATOM      5  C   UNL     1      -0.202  10.275  19.079  0.00  0.00    +0.000 A 
ATOM      6  N   UNL     1      -0.044  11.576  19.543  0.00  0.00    +0.000 N 
ATOM      7  C   UNL     1       1.035  12.241  20.063  0.00  0.00    +0.000 A 
ATOM      8  N   UNL     1       0.746  13.491  20.361  0.00  0.00    +0.000 NA
ATOM      9  C   UNL     1      -0.579  13.646  20.025  0.00  0.00    +0.000 A 
ATOM     10  C   UNL     1      -1.095  12.468  19.521  0.00  0.00    +0.000 A 
ATOM     11  H   UNL     1      -3.375  13.735  19.594  0.00  0.00    +0.000 HD
ENDROOT
BRANCH   1  19
ATOM     12  C   UNL     1      -5.258  12.036  16.957  0.00  0.00    +0.000 C 
ATOM     13  C   UNL     1      -5.697  11.996  18.396  0.00  0.00    +0.000 A 
ATOM     14  C   UNL     1      -7.022  11.586  18.651  0.00  0.00    +0.000 A 
ATOM     15  C   UNL     1      -7.508  11.519  19.947  0.00  0.00    +0.000 A 
ATOM     16  C   UNL     1      -6.693  11.888  21.002  0.00  0.00    +0.000 A 
ATOM     17  C   UNL     1      -5.375  12.344  20.788  0.00  0.00    +0.000 A 
ATOM     18  C   UNL     1      -4.637  12.786  22.025  0.00  0.00    +0.000 C 
ATOM     19  C   UNL     1      -4.841  12.369  19.471  0.00  0.00    +0.000 A 
ENDBRANCH   1  19
BRANCH   5  20
ATOM     20  C   UNL     1       0.838   9.239  19.173  0.00  0.00    +0.000 A 
ATOM     21  C   UNL     1       1.616   8.926  18.057  0.00  0.00    +0.000 A 
ATOM     22  C   UNL     1       2.564   7.902  18.124  0.00  0.00    +0.000 A 
ATOM     23  C   UNL     1       2.764   7.181  19.305  0.00  0.00    +0.000 A 
ATOM     24  C   UNL     1       1.988   7.481  20.423  0.00  0.00    +0.000 A 
ATOM     25  C   UNL     1       1.027   8.504  20.356  0.00  0.00    +0.000 A 
BRANCH  23  26
ATOM     26  O   UNL     1       3.685   6.178  19.214  0.00  0.00    +0.000 OA
BRANCH  26  27
ATOM     27  C   UNL     1       3.872   5.553  17.937  0.00  0.00    +0.000 C 
BRANCH  27  28
ATOM     28  C   UNL     1       3.757   4.028  18.142  0.00  0.00    +0.000 C 
ATOM     29  C   UNL     1       2.596   3.418  17.339  0.00  0.00    +0.000 C 
ATOM     30  C   UNL     1       1.249   3.778  17.958  0.00  0.00    +0.000 C 
ATOM     31  C   UNL     1       1.205   3.380  19.431  0.00  0.00    +0.000 C 
ATOM     32  N   UNL     1       2.307   3.982  20.199  0.00  0.00    +0.000 NA
ATOM     33  C   UNL     1       2.236   3.522  21.591  0.00  0.00    +0.000 C 
ATOM     34  C   UNL     1       3.619   3.640  19.625  0.00  0.00    +0.000 C 
ENDBRANCH  27  28
ENDBRANCH  26  27
ENDBRANCH  23  26
ENDBRANCH   5  20
TORSDOF 5
ENDMDL
MODEL 3
REMARK VINA RESULT:      -8.6      1.322      1.980
REMARK  Name = 
REMARK  8 active torsions:
REMARK  status: ('A' for Active; 'I' for Inactive)
REMARK    1  A    between atoms: C_1  and  C_2
REMARK    2  A    between atoms: C_6  and  C_7
REMARK    3  A    between atoms: C_8  and  N_9
REMARK    4  A    between atoms: C_13  and  C_14
REMARK    5  A    between atoms: C_17  and  O_18
REMARK    6  A    between atoms: O_18  and  C_19
REMARK    7  A    between atoms: C_19  and  C_20
REMARK    8  A    between atoms: N_24  and  C_25
REMARK                            x       y       z     vdW  Elec       q    Type
REMARK                         _______ _______ _______ _____ _____    ______ ____
ROOT
ATOM      1  N   UNL     1      -2.345  13.707  20.502  0.00  0.00    +0.000 N 
ATOM      2  C   UNL     1      -1.486  12.744  19.997  0.00  0.00    +0.000 A 
ATOM      3  N   UNL     1      -1.911  11.515  19.781  0.00  0.00    +0.000 NA
ATOM      4  C   UNL     1      -1.017  10.510  19.465  0.00  0.00    +0.000 A 
ATOM      5  C   UNL     1       0.307  10.690  19.296  0.00  0.00    +0.000 A 
ATOM      6  N   UNL     1       0.763  12.001  19.372  0.00  0.00    +0.000 N 
ATOM      7  C   UNL     1       1.998  12.558  19.165  0.00  0.00    +0.000 A 
ATOM      8  N   UNL     1       1.981  13.865  19.326  0.00  0.00    +0.000 NA
ATOM      9  C   UNL     1       0.681  14.172  19.657  0.00  0.00    +0.000 A 
ATOM     10  C   UNL     1      -0.094  13.030  19.698  0.00  0.00    +0.000 A 
ATOM     11  H   UNL     1      -1.936  14.624  20.635  0.00  0.00    +0.000 HD
ENDROOT
BRANCH   1  19
ATOM     12  C   UNL     1      -1.549  13.852  23.298  0.00  0.00    +0.000 C 
ATOM     13  C   UNL     1      -2.957  13.541  22.868  0.00  0.00    +0.000 A 
ATOM     14  C   UNL     1      -3.895  13.277  23.887  0.00  0.00    +0.000 A 
ATOM     15  C   UNL     1      -5.215  12.984  23.579  0.00  0.00    +0.000 A 
ATOM     16  C   UNL     1      -5.609  12.919  22.254  0.00  0.00    +0.000 A 
ATOM     17  C   UNL     1      -4.693  13.135  21.203  0.00  0.00    +0.000 A 
ATOM     18  C   UNL     1      -5.249  12.951  19.815  0.00  0.00    +0.000 C 
ATOM     19  C   UNL     1      -3.349  13.489  21.500  0.00  0.00    +0.000 A 
ENDBRANCH   1  19
BRANCH   5  20
ATOM     20  C   UNL     1       1.182   9.529  19.063  0.00  0.00    +0.000 A 
ATOM     21  C   UNL     1       1.748   9.323  17.805  0.00  0.00    +0.000 A 
ATOM     22  C   UNL     1       2.531   8.191  17.562  0.00  0.00    +0.000 A 
ATOM     23  C   UNL     1       2.774   7.253  18.569  0.00  0.00    +0.000 A 
ATOM     24  C   UNL     1       2.208   7.447  19.828  0.00  0.00    +0.000 A 
ATOM     25  C   UNL     1       1.412   8.579  20.072  0.00  0.00    +0.000 A 
BRANCH  23  26
ATOM     26  O   UNL     1       3.513   6.174  18.179  0.00  0.00    +0.000 OA
BRANCH  26  27
ATOM     27  C   UNL     1       4.126   5.376  19.202  0.00  0.00    +0.000 C 
BRANCH  27  28
ATOM     28  C   UNL     1       3.880   3.894  18.848  0.00  0.00    +0.000 C 
ATOM     29  C   UNL     1       2.886   3.730  17.687  0.00  0.00    +0.000 C 
ATOM     30  C   UNL     1       1.461   4.041  18.132  0.00  0.00    +0.000 C 
ATOM     31  C   UNL     1       1.076   3.198  19.346  0.00  0.00    +0.000 C 
ATOM     32  N   UNL     1       2.019   3.375  20.462  0.00  0.00    +0.000 NA
ATOM     33  C   UNL     1       1.622   2.504  21.575  0.00  0.00    +0.000 C 
ATOM     34  C   UNL     1       3.402   3.071  20.057  0.00  0.00    +0.000 C 
ENDBRANCH  27  28
ENDBRANCH  26  27
ENDBRANCH  23  26
ENDBRANCH   5  20
TORSDOF 5
ENDMDL
MODEL 4
REMARK VINA RESULT:      -8.6      0.577      1.831
REMARK  Name = 
REMARK  8 active torsions:
REMARK  status: ('A' for Active; 'I' for Inactive)
REMARK    1  A    between atoms: C_1  and  C_2
REMARK    2  A    between atoms: C_6  and  C_7
REMARK    3  A    between atoms: C_8  and  N_9
REMARK    4  A    between atoms: C_13  and  C_14
REMARK    5  A    between atoms: C_17  and  O_18
REMARK    6  A    between atoms: O_18  and  C_19
REMARK    7  A    between atoms: C_19  and  C_20
REMARK    8  A    between atoms: N_24  and  C_25
REMARK                            x       y       z     vdW  Elec       q    Type
REMARK                         _______ _______ _______ _____ _____    ______ ____
ROOT
ATOM      1  N   UNL     1      -3.628  13.236  19.731  0.00  0.00    +0.000 N 
ATOM      2  C   UNL     1      -2.548  12.415  19.446  0.00  0.00    +0.000 A 
ATOM      3  N   UNL     1      -2.726  11.269  18.818  0.00  0.00    +0.000 NA
ATOM      4  C   UNL     1      -1.688  10.365  18.705  0.00  0.00    +0.000 A 
ATOM      5  C   UNL     1      -0.436  10.578  19.151  0.00  0.00    +0.000 A 
ATOM      6  N   UNL     1      -0.180  11.836  19.685  0.00  0.00    +0.000 N 
ATOM      7  C   UNL     1       0.970  12.425  20.139  0.00  0.00    +0.000 A 
ATOM      8  N   UNL     1       0.762  13.659  20.548  0.00  0.00    +0.000 NA
ATOM      9  C   UNL     1      -0.581  13.882  20.357  0.00  0.00    +0.000 A 
ATOM     10  C   UNL     1      -1.191  12.762  19.828  0.00  0.00    +0.000 A 
ATOM     11  H   UNL     1      -3.400  14.098  20.214  0.00  0.00    +0.000 HD
ENDROOT
BRANCH   1  19
ATOM     12  C   UNL     1      -5.620  12.727  17.670  0.00  0.00    +0.000 C 
ATOM     13  C   UNL     1      -5.907  12.564  19.139  0.00  0.00    +0.000 A 
ATOM     14  C   UNL     1      -7.217  12.183  19.497  0.00  0.00    +0.000 A 
ATOM     15  C   UNL     1      -7.567  12.008  20.827  0.00  0.00    +0.000 A 
ATOM     16  C   UNL     1      -6.628  12.239  21.816  0.00  0.00    +0.000 A 
ATOM     17  C   UNL     1      -5.319  12.661  21.504  0.00  0.00    +0.000 A 
ATOM     18  C   UNL     1      -4.434  12.950  22.688  0.00  0.00    +0.000 C 
ATOM     19  C   UNL     1      -4.926  12.794  20.144  0.00  0.00    +0.000 A 
ENDBRANCH   1  19
BRANCH   5  20
ATOM     20  C   UNL     1       0.565   9.502  19.070  0.00  0.00    +0.000 A 
ATOM     21  C   UNL     1       0.859   8.736  20.199  0.00  0.00    +0.000 A 
ATOM     22  C   UNL     1       1.852   7.753  20.144  0.00  0.00    +0.000 A 
ATOM     23  C   UNL     1       2.558   7.509  18.963  0.00  0.00    +0.000 A 
ATOM     24  C   UNL     1       2.277   8.273  17.832  0.00  0.00    +0.000 A 
ATOM     25  C   UNL     1       1.286   9.268  17.887  0.00  0.00    +0.000 A 
BRANCH  23  26
ATOM     26  O   UNL     1       3.531   6.556  19.066  0.00  0.00    +0.000 OA
BRANCH  26  27
ATOM     27  C   UNL     1       3.658   5.609  17.997  0.00  0.00    +0.000 C 
BRANCH  27  28
ATOM     28  C   UNL     1       4.091   4.263  18.614  0.00  0.00    +0.000 C 
ATOM     29  C   UNL     1       3.943   3.094  17.625  0.00  0.00    +0.000 C 
ATOM     30  C   UNL     1       2.477   2.727  17.420  0.00  0.00    +0.000 C 
ATOM     31  C   UNL     1       1.797   2.442  18.758  0.00  0.00    +0.000 C 
ATOM     32  N   UNL     1       1.925   3.572  19.693  0.00  0.00    +0.000 NA
ATOM     33  C   UNL     1       1.295   3.216  20.971  0.00  0.00    +0.000 C 
ATOM     34  C   UNL     1       3.333   3.938  19.913  0.00  0.00    +0.000 C 
ENDBRANCH  27  28
ENDBRANCH  26  27
ENDBRANCH  23  26
ENDBRANCH   5  20
TORSDOF 5
ENDMDL
MODEL 5
REMARK VINA RESULT:      -8.5      1.902      2.600
REMARK  Name = 
REMARK  8 active torsions:
REMARK  status: ('A' for Active; 'I' for Inactive)
REMARK    1  A    between atoms: C_1  and  C_2
REMARK    2  A    between atoms: C_6  and  C_7
REMARK    3  A    between atoms: C_8  and  N_9
REMARK    4  A    between atoms: C_13  and  C_14
REMARK    5  A    between atoms: C_17  and  O_18
REMARK    6  A    between atoms: O_18  and  C_19
REMARK    7  A    between atoms: C_19  and  C_20
REMARK    8  A    between atoms: N_24  and  C_25
REMARK                            x       y       z     vdW  Elec       q    Type
REMARK                         _______ _______ _______ _____ _____    ______ ____
ROOT
ATOM      1  N   UNL     1      -3.538  13.052  19.825  0.00  0.00    +0.000 N 
ATOM      2  C   UNL     1      -2.429  12.275  19.531  0.00  0.00    +0.000 A 
ATOM      3  N   UNL     1      -2.506  11.313  18.633  0.00  0.00    +0.000 NA
ATOM      4  C   UNL     1      -1.467  10.416  18.479  0.00  0.00    +0.000 A 
ATOM      5  C   UNL     1      -0.305  10.467  19.156  0.00  0.00    +0.000 A 
ATOM      6  N   UNL     1      -0.135  11.557  20.003  0.00  0.00    +0.000 N 
ATOM      7  C   UNL     1       0.927  11.976  20.759  0.00  0.00    +0.000 A 
ATOM      8  N   UNL     1       0.659  13.091  21.408  0.00  0.00    +0.000 NA
ATOM      9  C   UNL     1      -0.634  13.409  21.062  0.00  0.00    +0.000 A 
ATOM     10  C   UNL     1      -1.152  12.467  20.195  0.00  0.00    +0.000 A 
ATOM     11  H   UNL     1      -3.390  13.770  20.525  0.00  0.00    +0.000 HD
ENDROOT
BRANCH   1  19
ATOM     12  C   UNL     1      -4.752  12.850  22.463  0.00  0.00    +0.000 C 
ATOM     13  C   UNL     1      -5.477  12.465  21.202  0.00  0.00    +0.000 A 
ATOM     14  C   UNL     1      -6.783  11.953  21.344  0.00  0.00    +0.000 A 
ATOM     15  C   UNL     1      -7.523  11.576  20.234  0.00  0.00    +0.000 A 
ATOM     16  C   UNL     1      -6.961  11.674  18.973  0.00  0.00    +0.000 A 
ATOM     17  C   UNL     1      -5.643  12.141  18.790  0.00  0.00    +0.000 A 
ATOM     18  C   UNL     1      -5.140  12.116  17.370  0.00  0.00    +0.000 C 
ATOM     19  C   UNL     1      -4.888  12.583  19.911  0.00  0.00    +0.000 A 
ENDBRANCH   1  19
BRANCH   5  20
ATOM     20  C   UNL     1       0.693   9.397  18.987  0.00  0.00    +0.000 A 
ATOM     21  C   UNL     1       1.039   8.588  20.069  0.00  0.00    +0.000 A 
ATOM     22  C   UNL     1       2.028   7.611  19.930  0.00  0.00    +0.000 A 
ATOM     23  C   UNL     1       2.679   7.414  18.709  0.00  0.00    +0.000 A 
ATOM     24  C   UNL     1       2.346   8.222  17.623  0.00  0.00    +0.000 A 
ATOM     25  C   UNL     1       1.358   9.212  17.763  0.00  0.00    +0.000 A 
BRANCH  23  26
ATOM     26  O   UNL     1       3.657   6.461  18.729  0.00  0.00    +0.000 OA
BRANCH  26  27
ATOM     27  C   UNL     1       3.840   5.665  17.551  0.00  0.00    +0.000 C 
BRANCH  27  28
ATOM     28  C   UNL     1       5.050   6.240  16.783  0.00  0.00    +0.000 C 
ATOM     29  C   UNL     1       5.552   5.283  15.688  0.00  0.00    +0.000 C 
ATOM     30  C   UNL     1       6.282   4.088  16.293  0.00  0.00    +0.000 C 
ATOM     31  C   UNL     1       7.406   4.551  17.217  0.00  0.00    +0.000 C 
ATOM     32  N   UNL     1       6.916   5.450  18.275  0.00  0.00    +0.000 NA
ATOM     33  C   UNL     1       8.049   5.895  19.095  0.00  0.00    +0.000 C 
ATOM     34  C   UNL     1       6.216   6.616  17.713  0.00  0.00    +0.000 C 
ENDBRANCH  27  28
ENDBRANCH  26  27
ENDBRANCH  23  26
ENDBRANCH   5  20
TORSDOF 5
ENDMDL
MODEL 6
REMARK VINA RESULT:      -8.5      1.311      2.218
REMARK  Name = 
REMARK  8 active torsions:
REMARK  status: ('A' for Active; 'I' for Inactive)
REMARK    1  A    between atoms: C_1  and  C_2
REMARK    2  A    between atoms: C_6  and  C_7
REMARK    3  A    between atoms: C_8  and  N_9
REMARK    4  A    between atoms: C_13  and  C_14
REMARK    5  A    between atoms: C_17  and  O_18
REMARK    6  A    between atoms: O_18  and  C_19
REMARK    7  A    between atoms: C_19  and  C_20
REMARK    8  A    between atoms: N_24  and  C_25
REMARK                            x       y       z     vdW  Elec       q    Type
REMARK                         _______ _______ _______ _____ _____    ______ ____
ROOT
ATOM      1  N   UNL     1      -2.024  13.540  20.044  0.00  0.00    +0.000 N 
ATOM      2  C   UNL     1      -1.216  12.502  19.607  0.00  0.00    +0.000 A 
ATOM      3  N   UNL     1      -1.669  11.264  19.586  0.00  0.00    +0.000 NA
ATOM      4  C   UNL     1      -0.812  10.210  19.337  0.00  0.00    +0.000 A 
ATOM      5  C   UNL     1       0.496  10.339  19.048  0.00  0.00    +0.000 A 
ATOM      6  N   UNL     1       0.970  11.639  18.916  0.00  0.00    +0.000 N 
ATOM      7  C   UNL     1       2.191  12.139  18.546  0.00  0.00    +0.000 A 
ATOM      8  N   UNL     1       2.200  13.457  18.536  0.00  0.00    +0.000 NA
ATOM      9  C   UNL     1       0.933  13.830  18.920  0.00  0.00    +0.000 A 
ATOM     10  C   UNL     1       0.152  12.719  19.169  0.00  0.00    +0.000 A 
ATOM     11  H   UNL     1      -1.596  14.458  20.025  0.00  0.00    +0.000 HD
ENDROOT
BRANCH   1  19
ATOM     12  C   UNL     1      -0.995  13.939  22.738  0.00  0.00    +0.000 C 
ATOM     13  C   UNL     1      -2.445  13.649  22.455  0.00  0.00    +0.000 A 
ATOM     14  C   UNL     1      -3.305  13.537  23.566  0.00  0.00    +0.000 A 
ATOM     15  C   UNL     1      -4.656  13.275  23.395  0.00  0.00    +0.000 A 
ATOM     16  C   UNL     1      -5.159  13.090  22.120  0.00  0.00    +0.000 A 
ATOM     17  C   UNL     1      -4.326  13.153  20.984  0.00  0.00    +0.000 A 
ATOM     18  C   UNL     1      -5.000  12.852  19.671  0.00  0.00    +0.000 C 
ATOM     19  C   UNL     1      -2.949  13.474  21.135  0.00  0.00    +0.000 A 
ENDBRANCH   1  19
BRANCH   5  20
ATOM     20  C   UNL     1       1.339   9.140  18.903  0.00  0.00    +0.000 A 
ATOM     21  C   UNL     1       1.501   8.267  19.980  0.00  0.00    +0.000 A 
ATOM     22  C   UNL     1       2.347   7.161  19.867  0.00  0.00    +0.000 A 
ATOM     23  C   UNL     1       3.035   6.898  18.679  0.00  0.00    +0.000 A 
ATOM     24  C   UNL     1       2.885   7.767  17.601  0.00  0.00    +0.000 A 
ATOM     25  C   UNL     1       2.042   8.886  17.714  0.00  0.00    +0.000 A 
BRANCH  23  26
ATOM     26  O   UNL     1       3.863   5.813  18.726  0.00  0.00    +0.000 OA
BRANCH  26  27
ATOM     27  C   UNL     1       3.722   4.817  17.704  0.00  0.00    +0.000 C 
BRANCH  27  28
ATOM     28  C   UNL     1       3.976   3.441  18.354  0.00  0.00    +0.000 C 
ATOM     29  C   UNL     1       3.122   2.330  17.721  0.00  0.00    +0.000 C 
ATOM     30  C   UNL     1       1.660   2.453  18.139  0.00  0.00    +0.000 C 
ATOM     31  C   UNL     1       1.532   2.484  19.660  0.00  0.00    +0.000 C 
ATOM     32  N   UNL     1       2.336   3.561  20.260  0.00  0.00    +0.000 NA
ATOM     33  C   UNL     1       2.208   3.505  21.721  0.00  0.00    +0.000 C 
ATOM     34  C   UNL     1       3.754   3.457  19.877  0.00  0.00    +0.000 C 
ENDBRANCH  27  28
ENDBRANCH  26  27
ENDBRANCH  23  26
ENDBRANCH   5  20
TORSDOF 5
ENDMDL
MODEL 7
REMARK VINA RESULT:      -8.4      1.711      2.728
REMARK  Name = 
REMARK  8 active torsions:
REMARK  status: ('A' for Active; 'I' for Inactive)
REMARK    1  A    between atoms: C_1  and  C_2
REMARK    2  A    between atoms: C_6  and  C_7
REMARK    3  A    between atoms: C_8  and  N_9
REMARK    4  A    between atoms: C_13  and  C_14
REMARK    5  A    between atoms: C_17  and  O_18
REMARK    6  A    between atoms: O_18  and  C_19
REMARK    7  A    between atoms: C_19  and  C_20
REMARK    8  A    between atoms: N_24  and  C_25
REMARK                            x       y       z     vdW  Elec       q    Type
REMARK                         _______ _______ _______ _____ _____    ______ ____
ROOT
ATOM      1  N   UNL     1      -3.414  13.022  19.484  0.00  0.00    +0.000 N 
ATOM      2  C   UNL     1      -2.318  12.200  19.273  0.00  0.00    +0.000 A 
ATOM      3  N   UNL     1      -2.428  11.115  18.532  0.00  0.00    +0.000 NA
ATOM      4  C   UNL     1      -1.397  10.197  18.478  0.00  0.00    +0.000 A 
ATOM      5  C   UNL     1      -0.213  10.339  19.101  0.00  0.00    +0.000 A 
ATOM      6  N   UNL     1      -0.011  11.542  19.769  0.00  0.00    +0.000 N 
ATOM      7  C   UNL     1       1.078  12.061  20.418  0.00  0.00    +0.000 A 
ATOM      8  N   UNL     1       0.835  13.263  20.901  0.00  0.00    +0.000 NA
ATOM      9  C   UNL     1      -0.468  13.535  20.556  0.00  0.00    +0.000 A 
ATOM     10  C   UNL     1      -1.018  12.479  19.858  0.00  0.00    +0.000 A 
ATOM     11  H   UNL     1      -3.239  13.835  20.063  0.00  0.00    +0.000 HD
ENDROOT
BRANCH   1  19
ATOM     12  C   UNL     1      -4.392  12.808  22.217  0.00  0.00    +0.000 C 
ATOM     13  C   UNL     1      -5.235  12.457  21.020  0.00  0.00    +0.000 A 
ATOM     14  C   UNL     1      -6.536  11.973  21.272  0.00  0.00    +0.000 A 
ATOM     15  C   UNL     1      -7.380  11.629  20.228  0.00  0.00    +0.000 A 
ATOM     16  C   UNL     1      -6.930  11.733  18.923  0.00  0.00    +0.000 A 
ATOM     17  C   UNL     1      -5.623  12.173  18.629  0.00  0.00    +0.000 A 
ATOM     18  C   UNL     1      -5.250  12.158  17.170  0.00  0.00    +0.000 C 
ATOM     19  C   UNL     1      -4.761  12.581  19.684  0.00  0.00    +0.000 A 
ENDBRANCH   1  19
BRANCH   5  20
ATOM     20  C   UNL     1       0.775   9.249  19.060  0.00  0.00    +0.000 A 
ATOM     21  C   UNL     1       0.998   8.466  20.194  0.00  0.00    +0.000 A 
ATOM     22  C   UNL     1       1.976   7.468  20.179  0.00  0.00    +0.000 A 
ATOM     23  C   UNL     1       2.740   7.225  19.034  0.00  0.00    +0.000 A 
ATOM     24  C   UNL     1       2.530   8.005  17.899  0.00  0.00    +0.000 A 
ATOM     25  C   UNL     1       1.553   9.016  17.914  0.00  0.00    +0.000 A 
BRANCH  23  26
ATOM     26  O   UNL     1       3.691   6.256  19.177  0.00  0.00    +0.000 OA
BRANCH  26  27
ATOM     27  C   UNL     1       3.723   5.200  18.207  0.00  0.00    +0.000 C 
BRANCH  27  28
ATOM     28  C   UNL     1       5.136   4.580  18.237  0.00  0.00    +0.000 C 
ATOM     29  C   UNL     1       6.217   5.612  18.600  0.00  0.00    +0.000 C 
ATOM     30  C   UNL     1       6.473   6.573  17.443  0.00  0.00    +0.000 C 
ATOM     31  C   UNL     1       6.811   5.806  16.166  0.00  0.00    +0.000 C 
ATOM     32  N   UNL     1       5.763   4.833  15.813  0.00  0.00    +0.000 NA
ATOM     33  C   UNL     1       6.171   4.098  14.609  0.00  0.00    +0.000 C 
ATOM     34  C   UNL     1       5.506   3.890  16.913  0.00  0.00    +0.000 C 
ENDBRANCH  27  28
ENDBRANCH  26  27
ENDBRANCH  23  26
ENDBRANCH   5  20
TORSDOF 5
ENDMDL
MODEL 8
REMARK VINA RESULT:      -8.3      1.060      1.819
REMARK  Name = 
REMARK  8 active torsions:
REMARK  status: ('A' for Active; 'I' for Inactive)
REMARK    1  A    between atoms: C_1  and  C_2
REMARK    2  A    between atoms: C_6  and  C_7
REMARK    3  A    between atoms: C_8  and  N_9
REMARK    4  A    between atoms: C_13  and  C_14
REMARK    5  A    between atoms: C_17  and  O_18
REMARK    6  A    between atoms: O_18  and  C_19
REMARK    7  A    between atoms: C_19  and  C_20
REMARK    8  A    between atoms: N_24  and  C_25
REMARK                            x       y       z     vdW  Elec       q    Type
REMARK                         _______ _______ _______ _____ _____    ______ ____
ROOT
ATOM      1  N   UNL     1      -3.743  13.312  19.711  0.00  0.00    +0.000 N 
ATOM      2  C   UNL     1      -2.649  12.483  19.518  0.00  0.00    +0.000 A 
ATOM      3  N   UNL     1      -2.772  11.360  18.839  0.00  0.00    +0.000 NA
ATOM      4  C   UNL     1      -1.740  10.442  18.810  0.00  0.00    +0.000 A 
ATOM      5  C   UNL     1      -0.542  10.621  19.395  0.00  0.00    +0.000 A 
ATOM      6  N   UNL     1      -0.329  11.858  19.994  0.00  0.00    +0.000 N 
ATOM      7  C   UNL     1       0.773  12.414  20.589  0.00  0.00    +0.000 A 
ATOM      8  N   UNL     1       0.538  13.638  21.012  0.00  0.00    +0.000 NA
ATOM      9  C   UNL     1      -0.774  13.889  20.684  0.00  0.00    +0.000 A 
ATOM     10  C   UNL     1      -1.337  12.795  20.056  0.00  0.00    +0.000 A 
ATOM     11  H   UNL     1      -3.557  14.155  20.242  0.00  0.00    +0.000 HD
ENDROOT
BRANCH   1  19
ATOM     12  C   UNL     1      -4.545  12.900  22.479  0.00  0.00    +0.000 C 
ATOM     13  C   UNL     1      -5.472  12.659  21.318  0.00  0.00    +0.000 A 
ATOM     14  C   UNL     1      -6.763  12.177  21.618  0.00  0.00    +0.000 A 
ATOM     15  C   UNL     1      -7.681  11.931  20.609  0.00  0.00    +0.000 A 
ATOM     16  C   UNL     1      -7.315  12.129  19.289  0.00  0.00    +0.000 A 
ATOM     17  C   UNL     1      -6.021  12.569  18.943  0.00  0.00    +0.000 A 
ATOM     18  C   UNL     1      -5.744  12.662  17.465  0.00  0.00    +0.000 C 
ATOM     19  C   UNL     1      -5.084  12.879  19.966  0.00  0.00    +0.000 A 
ENDBRANCH   1  19
BRANCH   5  20
ATOM     20  C   UNL     1       0.449   9.532  19.390  0.00  0.00    +0.000 A 
ATOM     21  C   UNL     1       0.668   8.781  20.545  0.00  0.00    +0.000 A 
ATOM     22  C   UNL     1       1.648   7.785  20.563  0.00  0.00    +0.000 A 
ATOM     23  C   UNL     1       2.419   7.513  19.429  0.00  0.00    +0.000 A 
ATOM     24  C   UNL     1       2.213   8.261  18.272  0.00  0.00    +0.000 A 
ATOM     25  C   UNL     1       1.233   9.269  18.254  0.00  0.00    +0.000 A 
BRANCH  23  26
ATOM     26  O   UNL     1       3.372   6.550  19.603  0.00  0.00    +0.000 OA
BRANCH  26  27
ATOM     27  C   UNL     1       2.932   5.216  19.888  0.00  0.00    +0.000 C 
BRANCH  27  28
ATOM     28  C   UNL     1       2.285   4.653  18.605  0.00  0.00    +0.000 C 
ATOM     29  C   UNL     1       1.688   3.252  18.819  0.00  0.00    +0.000 C 
ATOM     30  C   UNL     1       2.785   2.198  18.938  0.00  0.00    +0.000 C 
ATOM     31  C   UNL     1       3.719   2.249  17.732  0.00  0.00    +0.000 C 
ATOM     32  N   UNL     1       4.303   3.587  17.543  0.00  0.00    +0.000 NA
ATOM     33  C   UNL     1       5.149   3.582  16.343  0.00  0.00    +0.000 C 
ATOM     34  C   UNL     1       3.262   4.620  17.416  0.00  0.00    +0.000 C 
ENDBRANCH  27  28
ENDBRANCH  26  27
ENDBRANCH  23  26
ENDBRANCH   5  20
TORSDOF 5
ENDMDL
MODEL 9
REMARK VINA RESULT:      -8.3      1.368      2.612
REMARK  Name = 
REMARK  8 active torsions:
REMARK  status: ('A' for Active; 'I' for Inactive)
REMARK    1  A    between atoms: C_1  and  C_2
REMARK    2  A    between atoms: C_6  and  C_7
REMARK    3  A    between atoms: C_8  and  N_9
REMARK    4  A    between atoms: C_13  and  C_14
REMARK    5  A    between atoms: C_17  and  O_18
REMARK    6  A    between atoms: O_18  and  C_19
REMARK    7  A    between atoms: C_19  and  C_20
REMARK    8  A    between atoms: N_24  and  C_25
REMARK                            x       y       z     vdW  Elec       q    Type
REMARK                         _______ _______ _______ _____ _____    ______ ____
ROOT
ATOM      1  N   UNL     1      -2.349  13.759  20.638  0.00  0.00    +0.000 N 
ATOM      2  C   UNL     1      -1.527  12.785  20.095  0.00  0.00    +0.000 A 
ATOM      3  N   UNL     1      -1.953  11.543  19.971  0.00  0.00    +0.000 NA
ATOM      4  C   UNL     1      -1.077  10.536  19.615  0.00  0.00    +0.000 A 
ATOM      5  C   UNL     1       0.222  10.721  19.315  0.00  0.00    +0.000 A 
ATOM      6  N   UNL     1       0.664  12.039  19.292  0.00  0.00    +0.000 N 
ATOM      7  C   UNL     1       1.866  12.599  18.947  0.00  0.00    +0.000 A 
ATOM      8  N   UNL     1       1.845  13.912  19.055  0.00  0.00    +0.000 NA
ATOM      9  C   UNL     1       0.578  14.219  19.493  0.00  0.00    +0.000 A 
ATOM     10  C   UNL     1      -0.173  13.072  19.655  0.00  0.00    +0.000 A 
ATOM     11  H   UNL     1      -1.942  14.686  20.693  0.00  0.00    +0.000 HD
ENDROOT
BRANCH   1  19
ATOM     12  C   UNL     1      -5.170  13.363  20.036  0.00  0.00    +0.000 C 
ATOM     13  C   UNL     1      -4.634  13.400  21.443  0.00  0.00    +0.000 A 
ATOM     14  C   UNL     1      -5.571  13.272  22.489  0.00  0.00    +0.000 A 
ATOM     15  C   UNL     1      -5.163  13.292  23.814  0.00  0.00    +0.000 A 
ATOM     16  C   UNL     1      -3.825  13.473  24.114  0.00  0.00    +0.000 A 
ATOM     17  C   UNL     1      -2.861  13.647  23.099  0.00  0.00    +0.000 A 
ATOM     18  C   UNL     1      -1.458  13.912  23.580  0.00  0.00    +0.000 C 
ATOM     19  C   UNL     1      -3.252  13.575  21.734  0.00  0.00    +0.000 A 
ENDBRANCH   1  19
BRANCH   5  20
ATOM     20  C   UNL     1       1.088   9.561  19.049  0.00  0.00    +0.000 A 
ATOM     21  C   UNL     1       1.331   8.626  20.056  0.00  0.00    +0.000 A 
ATOM     22  C   UNL     1       2.200   7.556  19.828  0.00  0.00    +0.000 A 
ATOM     23  C   UNL     1       2.830   7.390  18.591  0.00  0.00    +0.000 A 
ATOM     24  C   UNL     1       2.599   8.322  17.581  0.00  0.00    +0.000 A 
ATOM     25  C   UNL     1       1.733   9.405  17.811  0.00  0.00    +0.000 A 
BRANCH  23  26
ATOM     26  O   UNL     1       3.689   6.331  18.524  0.00  0.00    +0.000 OA
BRANCH  26  27
ATOM     27  C   UNL     1       3.241   5.147  17.851  0.00  0.00    +0.000 C 
BRANCH  27  28
ATOM     28  C   UNL     1       3.850   3.934  18.585  0.00  0.00    +0.000 C 
ATOM     29  C   UNL     1       3.722   2.635  17.770  0.00  0.00    +0.000 C 
ATOM     30  C   UNL     1       2.283   2.129  17.763  0.00  0.00    +0.000 C 
ATOM     31  C   UNL     1       1.756   1.972  19.187  0.00  0.00    +0.000 C 
ATOM     32  N   UNL     1       1.863   3.223  19.956  0.00  0.00    +0.000 NA
ATOM     33  C   UNL     1       1.387   2.992  21.326  0.00  0.00    +0.000 C 
ATOM     34  C   UNL     1       3.246   3.726  19.985  0.00  0.00    +0.000 C 
ENDBRANCH  27  28
ENDBRANCH  26  27
ENDBRANCH  23  26
ENDBRANCH   5  20
TORSDOF 5
ENDMDL
