MODEL 1
REMARK VINA RESULT:      -8.2      0.000      0.000
REMARK  Name = 
REMARK  7 active torsions:
REMARK  status: ('A' for Active; 'I' for Inactive)
REMARK    1  A    between atoms: C_2  and  C_3
REMARK    2  A    between atoms: C_3  and  O_4
REMARK    3  A    between atoms: O_4  and  C_5
REMARK    4  A    between atoms: C_5  and  C_7
REMARK    5  A    between atoms: C_10  and  N_11
REMARK    6  A    between atoms: C_17  and  N_18
REMARK    7  A    between atoms: N_22  and  C_23
REMARK                            x       y       z     vdW  Elec       q    Type
REMARK                         _______ _______ _______ _____ _____    ______ ____
ROOT
ATOM      1  C   UNL     1       6.987   6.607  16.655  0.00  0.00    +0.000 C 
ATOM      2  O   UNL     1       7.689   5.970  15.884  0.00  0.00    +0.000 OA
ENDROOT
BRANCH   1   3
ATOM      3  C   UNL     1       5.787   6.047  17.336  0.00  0.00    +0.000 A 
ATOM      4  C   UNL     1       4.639   6.830  17.427  0.00  0.00    +0.000 A 
ATOM      5  C   UNL     1       3.455   6.307  17.978  0.00  0.00    +0.000 A 
ATOM      6  C   UNL     1       3.352   4.988  18.471  0.00  0.00    +0.000 A 
ATOM      7  C   UNL     1       4.547   4.238  18.377  0.00  0.00    +0.000 A 
ATOM      8  C   UNL     1       5.745   4.739  17.819  0.00  0.00    +0.000 A 
BRANCH   6   9
ATOM      9  N   UNL     1       2.129   4.547  18.945  0.00  0.00    +0.000 N 
ATOM     10  C   UNL     1       1.644   4.712  20.332  0.00  0.00    +0.000 C 
ATOM     11  C   UNL     1       1.189   3.353  20.898  0.00  0.00    +0.000 C 
ATOM     12  O   UNL     1       0.227   2.699  20.054  0.00  0.00    +0.000 OA
ATOM     13  C   UNL     1       0.769   2.502  18.738  0.00  0.00    +0.000 C 
ATOM     14  C   UNL     1       1.141   3.846  18.092  0.00  0.00    +0.000 C 
ENDBRANCH   6   9
BRANCH   7  15
ATOM     15  N   UNL     1       4.648   2.897  18.923  0.00  0.00    +0.000 N 
ATOM     16  O   UNL     1       4.133   1.970  18.282  0.00  0.00    +0.000 OA
ATOM     17  O   UNL     1       5.213   2.780  20.021  0.00  0.00    +0.000 OA
ENDBRANCH   7  15
ENDBRANCH   1   3
BRANCH   1  18
ATOM     18  O   UNL     1       7.226   7.877  17.068  0.00  0.00    +0.000 OA
BRANCH  18  19
ATOM     19  C   UNL     1       8.120   7.974  18.185  0.00  0.00    +0.000 C 
BRANCH  19  21
ATOM     20  O   UNL     1       8.132  10.306  17.601  0.00  0.00    +0.000 OA
ATOM     21  C   UNL     1       8.563   9.433  18.349  0.00  0.00    +0.000 C 
ATOM     22  N   UNL     1       9.430   9.633  19.421  0.00  0.00    +0.000 N 
ATOM     23  H   UNL     1       9.534   8.865  20.073  0.00  0.00    +0.000 HD
BRANCH  22  24
ATOM     24  C   UNL     1       9.757  10.917  19.920  0.00  0.00    +0.000 A 
ATOM     25  C   UNL     1      10.615  11.805  19.233  0.00  0.00    +0.000 A 
ATOM     26  C   UNL     1      10.635  13.168  19.534  0.00  0.00    +0.000 A 
ATOM     27  C   UNL     1       9.773  13.597  20.512  0.00  0.00    +0.000 A 
ATOM     28  C   UNL     1       9.038  12.714  21.271  0.00  0.00    +0.000 A 
ATOM     29  C   UNL     1       9.058  11.355  21.048  0.00  0.00    +0.000 A 
ATOM     30  O   UNL     1       8.185  13.361  22.118  0.00  0.00    +0.000 OA
ATOM     31  C   UNL     1       8.217  14.667  21.505  0.00  0.00    +0.000 C 
ATOM     32  O   UNL     1       9.440  14.892  20.775  0.00  0.00    +0.000 OA
ENDBRANCH  22  24
ENDBRANCH  19  21
ENDBRANCH  18  19
ENDBRANCH   1  18
TORSDOF 7
ENDMDL
MODEL 2
REMARK VINA RESULT:      -8.2      2.149     10.343
REMARK  Name = 
REMARK  7 active torsions:
REMARK  status: ('A' for Active; 'I' for Inactive)
REMARK    1  A    between atoms: C_2  and  C_3
REMARK    2  A    between atoms: C_3  and  O_4
REMARK    3  A    between atoms: O_4  and  C_5
REMARK    4  A    between atoms: C_5  and  C_7
REMARK    5  A    between atoms: C_10  and  N_11
REMARK    6  A    between atoms: C_17  and  N_18
REMARK    7  A    between atoms: N_22  and  C_23
REMARK                            x       y       z     vdW  Elec       q    Type
REMARK                         _______ _______ _______ _____ _____    ______ ____
ROOT
ATOM      1  C   UNL     1       8.207   8.266  18.195  0.00  0.00    +0.000 C 
ATOM      2  O   UNL     1       8.583   7.384  18.952  0.00  0.00    +0.000 OA
ENDROOT
BRANCH   1   3
ATOM      3  C   UNL     1       8.614   9.694  18.323  0.00  0.00    +0.000 A 
ATOM      4  C   UNL     1       8.126  10.616  17.401  0.00  0.00    +0.000 A 
ATOM      5  C   UNL     1       8.407  11.987  17.541  0.00  0.00    +0.000 A 
ATOM      6  C   UNL     1       9.190  12.510  18.592  0.00  0.00    +0.000 A 
ATOM      7  C   UNL     1       9.681  11.535  19.490  0.00  0.00    +0.000 A 
ATOM      8  C   UNL     1       9.402  10.154  19.377  0.00  0.00    +0.000 A 
BRANCH   6   9
ATOM      9  N   UNL     1       9.368  13.880  18.675  0.00  0.00    +0.000 N 
ATOM     10  C   UNL     1       8.365  14.839  19.187  0.00  0.00    +0.000 C 
ATOM     11  C   UNL     1       8.144  15.969  18.163  0.00  0.00    +0.000 C 
ATOM     12  O   UNL     1       9.370  16.611  17.779  0.00  0.00    +0.000 OA
ATOM     13  C   UNL     1      10.286  15.651  17.227  0.00  0.00    +0.000 C 
ATOM     14  C   UNL     1      10.617  14.557  18.255  0.00  0.00    +0.000 C 
ENDBRANCH   6   9
BRANCH   7  15
ATOM     15  N   UNL     1      10.580  11.883  20.575  0.00  0.00    +0.000 N 
ATOM     16  O   UNL     1      10.080  12.240  21.651  0.00  0.00    +0.000 OA
ATOM     17  O   UNL     1      11.796  11.836  20.332  0.00  0.00    +0.000 OA
ENDBRANCH   7  15
ENDBRANCH   1   3
BRANCH   1  18
ATOM     18  O   UNL     1       7.438   8.082  17.093  0.00  0.00    +0.000 OA
BRANCH  18  19
ATOM     19  C   UNL     1       7.053   6.719  16.867  0.00  0.00    +0.000 C 
BRANCH  19  21
ATOM     20  O   UNL     1       4.739   7.362  16.992  0.00  0.00    +0.000 OA
ATOM     21  C   UNL     1       5.592   6.533  17.295  0.00  0.00    +0.000 C 
ATOM     22  N   UNL     1       5.366   5.348  17.994  0.00  0.00    +0.000 N 
ATOM     23  H   UNL     1       6.114   4.666  17.990  0.00  0.00    +0.000 HD
BRANCH  22  24
ATOM     24  C   UNL     1       4.069   4.843  18.257  0.00  0.00    +0.000 A 
ATOM     25  C   UNL     1       3.427   3.917  17.404  0.00  0.00    +0.000 A 
ATOM     26  C   UNL     1       2.340   3.160  17.848  0.00  0.00    +0.000 A 
ATOM     27  C   UNL     1       1.945   3.351  19.148  0.00  0.00    +0.000 A 
ATOM     28  C   UNL     1       2.483   4.348  19.932  0.00  0.00    +0.000 A 
ATOM     29  C   UNL     1       3.504   5.162  19.494  0.00  0.00    +0.000 A 
ATOM     30  O   UNL     1       2.009   4.297  21.212  0.00  0.00    +0.000 OA
ATOM     31  C   UNL     1       1.459   2.963  21.190  0.00  0.00    +0.000 C 
ATOM     32  O   UNL     1       1.101   2.549  19.855  0.00  0.00    +0.000 OA
ENDBRANCH  22  24
ENDBRANCH  19  21
ENDBRANCH  18  19
ENDBRANCH   1  18
TORSDOF 7
ENDMDL
MODEL 3
REMARK VINA RESULT:      -8.2      1.954     10.305
REMARK  Name = 
REMARK  7 active torsions:
REMARK  status: ('A' for Active; 'I' for Inactive)
REMARK    1  A    between atoms: C_2  and  C_3
REMARK    2  A    between atoms: C_3  and  O_4
REMARK    3  A    between atoms: O_4  and  C_5
REMARK    4  A    between atoms: C_5  and  C_7
REMARK    5  A    between atoms: C_10  and  N_11
REMARK    6  A    between atoms: C_17  and  N_18
REMARK    7  A    between atoms: N_22  and  C_23
REMARK                            x       y       z     vdW  Elec       q    Type
REMARK                         _______ _______ _______ _____ _____    ______ ____
ROOT
ATOM      1  C   UNL     1       8.191   8.210  18.222  0.00  0.00    +0.000 C 
ATOM      2  O   UNL     1       8.568   7.328  18.979  0.00  0.00    +0.000 OA
ENDROOT
BRANCH   1   3
ATOM      3  C   UNL     1       8.593   9.639  18.353  0.00  0.00    +0.000 A 
ATOM      4  C   UNL     1       8.083  10.565  17.447  0.00  0.00    +0.000 A 
ATOM      5  C   UNL     1       8.361  11.937  17.591  0.00  0.00    +0.000 A 
ATOM      6  C   UNL     1       9.160  12.456  18.632  0.00  0.00    +0.000 A 
ATOM      7  C   UNL     1       9.672  11.477  19.514  0.00  0.00    +0.000 A 
ATOM      8  C   UNL     1       9.399  10.095  19.395  0.00  0.00    +0.000 A 
BRANCH   6   9
ATOM      9  N   UNL     1       9.332  13.826  18.722  0.00  0.00    +0.000 N 
ATOM     10  C   UNL     1      10.436  14.588  18.099  0.00  0.00    +0.000 C 
ATOM     11  C   UNL     1      11.130  15.471  19.154  0.00  0.00    +0.000 C 
ATOM     12  O   UNL     1      10.205  16.319  19.855  0.00  0.00    +0.000 OA
ATOM     13  C   UNL     1       9.191  15.529  20.498  0.00  0.00    +0.000 C 
ATOM     14  C   UNL     1       8.402  14.707  19.466  0.00  0.00    +0.000 C 
ENDBRANCH   6   9
BRANCH   7  15
ATOM     15  N   UNL     1      10.590  11.822  20.584  0.00  0.00    +0.000 N 
ATOM     16  O   UNL     1      10.109  12.210  21.658  0.00  0.00    +0.000 OA
ATOM     17  O   UNL     1      11.802  11.741  20.331  0.00  0.00    +0.000 OA
ENDBRANCH   7  15
ENDBRANCH   1   3
BRANCH   1  18
ATOM     18  O   UNL     1       7.425   8.025  17.118  0.00  0.00    +0.000 OA
BRANCH  18  19
ATOM     19  C   UNL     1       7.110   6.652  16.845  0.00  0.00    +0.000 C 
BRANCH  19  21
ATOM     20  O   UNL     1       4.840   6.804  16.067  0.00  0.00    +0.000 OA
ATOM     21  C   UNL     1       5.595   6.451  16.969  0.00  0.00    +0.000 C 
ATOM     22  N   UNL     1       5.214   5.814  18.148  0.00  0.00    +0.000 N 
ATOM     23  H   UNL     1       5.953   5.395  18.700  0.00  0.00    +0.000 HD
BRANCH  22  24
ATOM     24  C   UNL     1       3.914   5.293  18.359  0.00  0.00    +0.000 A 
ATOM     25  C   UNL     1       3.251   4.492  17.402  0.00  0.00    +0.000 A 
ATOM     26  C   UNL     1       2.160   3.696  17.757  0.00  0.00    +0.000 A 
ATOM     27  C   UNL     1       1.781   3.721  19.076  0.00  0.00    +0.000 A 
ATOM     28  C   UNL     1       2.340   4.602  19.976  0.00  0.00    +0.000 A 
ATOM     29  C   UNL     1       3.366   5.455  19.634  0.00  0.00    +0.000 A 
ATOM     30  O   UNL     1       1.879   4.391  21.244  0.00  0.00    +0.000 OA
ATOM     31  C   UNL     1       1.313   3.077  21.055  0.00  0.00    +0.000 C 
ATOM     32  O   UNL     1       0.936   2.843  19.683  0.00  0.00    +0.000 OA
ENDBRANCH  22  24
ENDBRANCH  19  21
ENDBRANCH  18  19
ENDBRANCH   1  18
TORSDOF 7
ENDMDL
MODEL 4
REMARK VINA RESULT:      -8.0      1.570      2.132
REMARK  Name = 
REMARK  7 active torsions:
REMARK  status: ('A' for Active; 'I' for Inactive)
REMARK    1  A    between atoms: C_2  and  C_3
REMARK    2  A    between atoms: C_3  and  O_4
REMARK    3  A    between atoms: O_4  and  C_5
REMARK    4  A    between atoms: C_5  and  C_7
REMARK    5  A    between atoms: C_10  and  N_11
REMARK    6  A    between atoms: C_17  and  N_18
REMARK    7  A    between atoms: N_22  and  C_23
REMARK                            x       y       z     vdW  Elec       q    Type
REMARK                         _______ _______ _______ _____ _____    ______ ____
ROOT
ATOM      1  C   UNL     1       6.926   6.849  16.734  0.00  0.00    +0.000 C 
ATOM      2  O   UNL     1       7.610   6.209  15.950  0.00  0.00    +0.000 OA
ENDROOT
BRANCH   1   3
ATOM      3  C   UNL     1       5.692   6.318  17.379  0.00  0.00    +0.000 A 
ATOM      4  C   UNL     1       5.650   4.975  17.744  0.00  0.00    +0.000 A 
ATOM      5  C   UNL     1       4.544   4.455  18.440  0.00  0.00    +0.000 A 
ATOM      6  C   UNL     1       3.424   5.235  18.800  0.00  0.00    +0.000 A 
ATOM      7  C   UNL     1       3.502   6.585  18.390  0.00  0.00    +0.000 A 
ATOM      8  C   UNL     1       4.608   7.133  17.699  0.00  0.00    +0.000 A 
BRANCH   6   9
ATOM      9  N   UNL     1       2.407   4.646  19.531  0.00  0.00    +0.000 N 
ATOM     10  C   UNL     1       2.244   4.747  20.997  0.00  0.00    +0.000 C 
ATOM     11  C   UNL     1       2.099   3.341  21.611  0.00  0.00    +0.000 C 
ATOM     12  O   UNL     1       1.050   2.577  20.994  0.00  0.00    +0.000 OA
ATOM     13  C   UNL     1       1.289   2.450  19.582  0.00  0.00    +0.000 C 
ATOM     14  C   UNL     1       1.337   3.831  18.910  0.00  0.00    +0.000 C 
ENDBRANCH   6   9
BRANCH   7  15
ATOM     15  N   UNL     1       2.399   7.507  18.592  0.00  0.00    +0.000 N 
ATOM     16  O   UNL     1       2.112   7.821  19.755  0.00  0.00    +0.000 OA
ATOM     17  O   UNL     1       1.792   7.886  17.578  0.00  0.00    +0.000 OA
ENDBRANCH   7  15
ENDBRANCH   1   3
BRANCH   1  18
ATOM     18  O   UNL     1       7.213   8.092  17.196  0.00  0.00    +0.000 OA
BRANCH  18  19
ATOM     19  C   UNL     1       8.189   8.117  18.247  0.00  0.00    +0.000 C 
BRANCH  19  21
ATOM     20  O   UNL     1       8.244  10.468  17.746  0.00  0.00    +0.000 OA
ATOM     21  C   UNL     1       8.649   9.562  18.469  0.00  0.00    +0.000 C 
ATOM     22  N   UNL     1       9.502   9.711  19.562  0.00  0.00    +0.000 N 
ATOM     23  H   UNL     1       9.584   8.919  20.188  0.00  0.00    +0.000 HD
BRANCH  22  24
ATOM     24  C   UNL     1       9.840  10.972  20.111  0.00  0.00    +0.000 A 
ATOM     25  C   UNL     1      10.877  11.776  19.589  0.00  0.00    +0.000 A 
ATOM     26  C   UNL     1      10.956  13.138  19.888  0.00  0.00    +0.000 A 
ATOM     27  C   UNL     1       9.972  13.650  20.696  0.00  0.00    +0.000 A 
ATOM     28  C   UNL     1       9.043  12.841  21.312  0.00  0.00    +0.000 A 
ATOM     29  C   UNL     1       8.989  11.482  21.096  0.00  0.00    +0.000 A 
ATOM     30  O   UNL     1       8.108  13.568  21.992  0.00  0.00    +0.000 OA
ATOM     31  C   UNL     1       8.357  14.858  21.394  0.00  0.00    +0.000 C 
ATOM     32  O   UNL     1       9.705  14.971  20.895  0.00  0.00    +0.000 OA
ENDBRANCH  22  24
ENDBRANCH  19  21
ENDBRANCH  18  19
ENDBRANCH   1  18
TORSDOF 7
ENDMDL
MODEL 5
REMARK VINA RESULT:      -7.9      1.115      1.352
REMARK  Name = 
REMARK  7 active torsions:
REMARK  status: ('A' for Active; 'I' for Inactive)
REMARK    1  A    between atoms: C_2  and  C_3
REMARK    2  A    between atoms: C_3  and  O_4
REMARK    3  A    between atoms: O_4  and  C_5
REMARK    4  A    between atoms: C_5  and  C_7
REMARK    5  A    between atoms: C_10  and  N_11
REMARK    6  A    between atoms: C_17  and  N_18
REMARK    7  A    between atoms: N_22  and  C_23
REMARK                            x       y       z     vdW  Elec       q    Type
REMARK                         _______ _______ _______ _____ _____    ______ ____
ROOT
ATOM      1  C   UNL     1       6.864   5.862  16.069  0.00  0.00    +0.000 C 
ATOM      2  O   UNL     1       7.027   5.498  14.914  0.00  0.00    +0.000 OA
ENDROOT
BRANCH   1   3
ATOM      3  C   UNL     1       5.698   5.462  16.905  0.00  0.00    +0.000 A 
ATOM      4  C   UNL     1       4.588   6.302  16.955  0.00  0.00    +0.000 A 
ATOM      5  C   UNL     1       3.430   5.919  17.655  0.00  0.00    +0.000 A 
ATOM      6  C   UNL     1       3.315   4.692  18.343  0.00  0.00    +0.000 A 
ATOM      7  C   UNL     1       4.472   3.883  18.281  0.00  0.00    +0.000 A 
ATOM      8  C   UNL     1       5.644   4.241  17.576  0.00  0.00    +0.000 A 
BRANCH   6   9
ATOM      9  N   UNL     1       2.115   4.381  18.958  0.00  0.00    +0.000 N 
ATOM     10  C   UNL     1       1.761   4.718  20.354  0.00  0.00    +0.000 C 
ATOM     11  C   UNL     1       1.282   3.455  21.097  0.00  0.00    +0.000 C 
ATOM     12  O   UNL     1       0.216   2.782  20.407  0.00  0.00    +0.000 OA
ATOM     13  C   UNL     1       0.631   2.417  19.081  0.00  0.00    +0.000 C 
ATOM     14  C   UNL     1       1.020   3.661  18.267  0.00  0.00    +0.000 C 
ENDBRANCH   6   9
BRANCH   7  15
ATOM     15  N   UNL     1       4.565   2.631  19.011  0.00  0.00    +0.000 N 
ATOM     16  O   UNL     1       5.195   2.628  20.078  0.00  0.00    +0.000 OA
ATOM     17  O   UNL     1       4.037   1.637  18.489  0.00  0.00    +0.000 OA
ENDBRANCH   7  15
ENDBRANCH   1   3
BRANCH   1  18
ATOM     18  O   UNL     1       7.738   6.609  16.789  0.00  0.00    +0.000 OA
BRANCH  18  19
ATOM     19  C   UNL     1       7.242   7.905  17.153  0.00  0.00    +0.000 C 
BRANCH  19  21
ATOM     20  O   UNL     1       8.815   7.874  18.971  0.00  0.00    +0.000 OA
ATOM     21  C   UNL     1       8.215   8.555  18.144  0.00  0.00    +0.000 C 
ATOM     22  N   UNL     1       8.355   9.930  17.964  0.00  0.00    +0.000 N 
ATOM     23  H   UNL     1       7.963  10.321  17.116  0.00  0.00    +0.000 HD
BRANCH  22  24
ATOM     24  C   UNL     1       9.381  10.688  18.578  0.00  0.00    +0.000 A 
ATOM     25  C   UNL     1      10.433  11.279  17.844  0.00  0.00    +0.000 A 
ATOM     26  C   UNL     1      11.207  12.306  18.390  0.00  0.00    +0.000 A 
ATOM     27  C   UNL     1      10.883  12.716  19.659  0.00  0.00    +0.000 A 
ATOM     28  C   UNL     1       9.949  12.049  20.421  0.00  0.00    +0.000 A 
ATOM     29  C   UNL     1       9.224  10.983  19.935  0.00  0.00    +0.000 A 
ATOM     30  O   UNL     1       9.720  12.681  21.610  0.00  0.00    +0.000 OA
ATOM     31  C   UNL     1      10.310  13.960  21.295  0.00  0.00    +0.000 C 
ATOM     32  O   UNL     1      11.319  13.852  20.269  0.00  0.00    +0.000 OA
ENDBRANCH  22  24
ENDBRANCH  19  21
ENDBRANCH  18  19
ENDBRANCH   1  18
TORSDOF 7
ENDMDL
MODEL 6
REMARK VINA RESULT:      -7.9      1.448      2.013
REMARK  Name = 
REMARK  7 active torsions:
REMARK  status: ('A' for Active; 'I' for Inactive)
REMARK    1  A    between atoms: C_2  and  C_3
REMARK    2  A    between atoms: C_3  and  O_4
REMARK    3  A    between atoms: O_4  and  C_5
REMARK    4  A    between atoms: C_5  and  C_7
REMARK    5  A    between atoms: C_10  and  N_11
REMARK    6  A    between atoms: C_17  and  N_18
REMARK    7  A    between atoms: N_22  and  C_23
REMARK                            x       y       z     vdW  Elec       q    Type
REMARK                         _______ _______ _______ _____ _____    ______ ____
ROOT
ATOM      1  C   UNL     1       7.003   6.638  16.649  0.00  0.00    +0.000 C 
ATOM      2  O   UNL     1       7.751   6.177  15.800  0.00  0.00    +0.000 OA
ENDROOT
BRANCH   1   3
ATOM      3  C   UNL     1       5.877   5.877  17.259  0.00  0.00    +0.000 A 
ATOM      4  C   UNL     1       5.976   4.491  17.352  0.00  0.00    +0.000 A 
ATOM      5  C   UNL     1       4.981   3.742  18.006  0.00  0.00    +0.000 A 
ATOM      6  C   UNL     1       3.837   4.327  18.591  0.00  0.00    +0.000 A 
ATOM      7  C   UNL     1       3.769   5.732  18.454  0.00  0.00    +0.000 A 
ATOM      8  C   UNL     1       4.762   6.506  17.811  0.00  0.00    +0.000 A 
BRANCH   6   9
ATOM      9  N   UNL     1       2.939   3.513  19.259  0.00  0.00    +0.000 N 
ATOM     10  C   UNL     1       1.538   3.277  18.851  0.00  0.00    +0.000 C 
ATOM     11  C   UNL     1       0.590   3.546  20.036  0.00  0.00    +0.000 C 
ATOM     12  O   UNL     1       0.952   2.801  21.210  0.00  0.00    +0.000 OA
ATOM     13  C   UNL     1       2.298   3.115  21.606  0.00  0.00    +0.000 C 
ATOM     14  C   UNL     1       3.292   2.764  20.488  0.00  0.00    +0.000 C 
ENDBRANCH   6   9
BRANCH   7  15
ATOM     15  N   UNL     1       2.617   6.487  18.912  0.00  0.00    +0.000 N 
ATOM     16  O   UNL     1       1.938   7.079  18.062  0.00  0.00    +0.000 OA
ATOM     17  O   UNL     1       2.418   6.518  20.136  0.00  0.00    +0.000 OA
ENDBRANCH   7  15
ENDBRANCH   1   3
BRANCH   1  18
ATOM     18  O   UNL     1       7.118   7.865  17.217  0.00  0.00    +0.000 OA
BRANCH  18  19
ATOM     19  C   UNL     1       8.133   7.950  18.227  0.00  0.00    +0.000 C 
BRANCH  19  21
ATOM     20  O   UNL     1       8.077  10.290  17.674  0.00  0.00    +0.000 OA
ATOM     21  C   UNL     1       8.555   9.415  18.392  0.00  0.00    +0.000 C 
ATOM     22  N   UNL     1       9.462   9.619  19.430  0.00  0.00    +0.000 N 
ATOM     23  H   UNL     1       9.608   8.845  20.067  0.00  0.00    +0.000 HD
BRANCH  22  24
ATOM     24  C   UNL     1       9.786  10.902  19.932  0.00  0.00    +0.000 A 
ATOM     25  C   UNL     1      10.764  11.729  19.335  0.00  0.00    +0.000 A 
ATOM     26  C   UNL     1      10.811  13.099  19.599  0.00  0.00    +0.000 A 
ATOM     27  C   UNL     1       9.856  13.597  20.450  0.00  0.00    +0.000 A 
ATOM     28  C   UNL     1       8.992  12.771  21.135  0.00  0.00    +0.000 A 
ATOM     29  C   UNL     1       8.974  11.406  20.952  0.00  0.00    +0.000 A 
ATOM     30  O   UNL     1       8.072  13.483  21.851  0.00  0.00    +0.000 OA
ATOM     31  C   UNL     1       8.242  14.766  21.213  0.00  0.00    +0.000 C 
ATOM     32  O   UNL     1       9.555  14.912  20.635  0.00  0.00    +0.000 OA
ENDBRANCH  22  24
ENDBRANCH  19  21
ENDBRANCH  18  19
ENDBRANCH   1  18
TORSDOF 7
ENDMDL
MODEL 7
REMARK VINA RESULT:      -7.9      5.152      6.614
REMARK  Name = 
REMARK  7 active torsions:
REMARK  status: ('A' for Active; 'I' for Inactive)
REMARK    1  A    between atoms: C_2  and  C_3
REMARK    2  A    between atoms: C_3  and  O_4
REMARK    3  A    between atoms: O_4  and  C_5
REMARK    4  A    between atoms: C_5  and  C_7
REMARK    5  A    between atoms: C_10  and  N_11
REMARK    6  A    between atoms: C_17  and  N_18
REMARK    7  A    between atoms: N_22  and  C_23
REMARK                            x       y       z     vdW  Elec       q    Type
REMARK                         _______ _______ _______ _____ _____    ______ ____
ROOT
ATOM      1  C   UNL     1       1.247   9.002  18.407  0.00  0.00    +0.000 C 
ATOM      2  O   UNL     1       0.493   9.535  17.607  0.00  0.00    +0.000 OA
ENDROOT
BRANCH   1   3
ATOM      3  C   UNL     1       2.197   7.913  18.048  0.00  0.00    +0.000 A 
ATOM      4  C   UNL     1       3.436   8.252  17.509  0.00  0.00    +0.000 A 
ATOM      5  C   UNL     1       4.399   7.262  17.244  0.00  0.00    +0.000 A 
ATOM      6  C   UNL     1       4.181   5.890  17.491  0.00  0.00    +0.000 A 
ATOM      7  C   UNL     1       2.904   5.591  18.018  0.00  0.00    +0.000 A 
ATOM      8  C   UNL     1       1.924   6.569  18.302  0.00  0.00    +0.000 A 
BRANCH   6   9
ATOM      9  N   UNL     1       5.210   4.996  17.248  0.00  0.00    +0.000 N 
ATOM     10  C   UNL     1       6.155   4.489  18.266  0.00  0.00    +0.000 C 
ATOM     11  C   UNL     1       7.606   4.695  17.788  0.00  0.00    +0.000 C 
ATOM     12  O   UNL     1       7.842   4.128  16.488  0.00  0.00    +0.000 OA
ATOM     13  C   UNL     1       6.945   4.701  15.523  0.00  0.00    +0.000 C 
ATOM     14  C   UNL     1       5.482   4.428  15.907  0.00  0.00    +0.000 C 
ENDBRANCH   6   9
BRANCH   7  15
ATOM     15  N   UNL     1       2.475   4.223  18.243  0.00  0.00    +0.000 N 
ATOM     16  O   UNL     1       1.851   3.654  17.335  0.00  0.00    +0.000 OA
ATOM     17  O   UNL     1       2.730   3.730  19.352  0.00  0.00    +0.000 OA
ENDBRANCH   7  15
ENDBRANCH   1   3
BRANCH   1  18
ATOM     18  O   UNL     1       1.394   9.360  19.708  0.00  0.00    +0.000 OA
BRANCH  18  19
ATOM     19  C   UNL     1       0.371  10.239  20.194  0.00  0.00    +0.000 C 
BRANCH  19  21
ATOM     20  O   UNL     1       1.390  12.031  21.433  0.00  0.00    +0.000 OA
ATOM     21  C   UNL     1       0.954  11.649  20.351  0.00  0.00    +0.000 C 
ATOM     22  N   UNL     1       0.964  12.380  19.164  0.00  0.00    +0.000 N 
ATOM     23  H   UNL     1       0.768  11.869  18.312  0.00  0.00    +0.000 HD
BRANCH  22  24
ATOM     24  C   UNL     1       1.685  13.588  19.008  0.00  0.00    +0.000 A 
ATOM     25  C   UNL     1       2.968  13.638  18.419  0.00  0.00    +0.000 A 
ATOM     26  C   UNL     1       3.498  14.839  17.942  0.00  0.00    +0.000 A 
ATOM     27  C   UNL     1       2.706  15.954  18.060  0.00  0.00    +0.000 A 
ATOM     28  C   UNL     1       1.516  15.929  18.754  0.00  0.00    +0.000 A 
ATOM     29  C   UNL     1       1.005  14.773  19.303  0.00  0.00    +0.000 A 
ATOM     30  O   UNL     1       0.853  17.120  18.667  0.00  0.00    +0.000 OA
ATOM     31  C   UNL     1       1.573  17.690  17.553  0.00  0.00    +0.000 C 
ATOM     32  O   UNL     1       2.905  17.148  17.437  0.00  0.00    +0.000 OA
ENDBRANCH  22  24
ENDBRANCH  19  21
ENDBRANCH  18  19
ENDBRANCH   1  18
TORSDOF 7
ENDMDL
MODEL 8
REMARK VINA RESULT:      -7.8      2.100     10.650
REMARK  Name = 
REMARK  7 active torsions:
REMARK  status: ('A' for Active; 'I' for Inactive)
REMARK    1  A    between atoms: C_2  and  C_3
REMARK    2  A    between atoms: C_3  and  O_4
REMARK    3  A    between atoms: O_4  and  C_5
REMARK    4  A    between atoms: C_5  and  C_7
REMARK    5  A    between atoms: C_10  and  N_11
REMARK    6  A    between atoms: C_17  and  N_18
REMARK    7  A    between atoms: N_22  and  C_23
REMARK                            x       y       z     vdW  Elec       q    Type
REMARK                         _______ _______ _______ _____ _____    ______ ____
ROOT
ATOM      1  C   UNL     1       8.061   8.674  17.993  0.00  0.00    +0.000 C 
ATOM      2  O   UNL     1       7.338   8.667  17.008  0.00  0.00    +0.000 OA
ENDROOT
BRANCH   1   3
ATOM      3  C   UNL     1       8.677   9.907  18.557  0.00  0.00    +0.000 A 
ATOM      4  C   UNL     1       9.350   9.826  19.774  0.00  0.00    +0.000 A 
ATOM      5  C   UNL     1      10.026  10.943  20.296  0.00  0.00    +0.000 A 
ATOM      6  C   UNL     1      10.064  12.194  19.644  0.00  0.00    +0.000 A 
ATOM      7  C   UNL     1       9.351  12.235  18.424  0.00  0.00    +0.000 A 
ATOM      8  C   UNL     1       8.673  11.123  17.875  0.00  0.00    +0.000 A 
BRANCH   6   9
ATOM      9  N   UNL     1      10.801  13.220  20.210  0.00  0.00    +0.000 N 
ATOM     10  C   UNL     1      10.309  14.148  21.251  0.00  0.00    +0.000 C 
ATOM     11  C   UNL     1      10.547  15.606  20.814  0.00  0.00    +0.000 C 
ATOM     12  O   UNL     1      11.917  15.857  20.459  0.00  0.00    +0.000 OA
ATOM     13  C   UNL     1      12.327  14.977  19.400  0.00  0.00    +0.000 C 
ATOM     14  C   UNL     1      12.204  13.507  19.831  0.00  0.00    +0.000 C 
ENDBRANCH   6   9
BRANCH   7  15
ATOM     15  N   UNL     1       9.203  13.466  17.670  0.00  0.00    +0.000 N 
ATOM     16  O   UNL     1       8.125  14.070  17.751  0.00  0.00    +0.000 OA
ATOM     17  O   UNL     1      10.162  13.806  16.959  0.00  0.00    +0.000 OA
ENDBRANCH   7  15
ENDBRANCH   1   3
BRANCH   1  18
ATOM     18  O   UNL     1       8.353   7.595  18.762  0.00  0.00    +0.000 OA
BRANCH  18  19
ATOM     19  C   UNL     1       8.005   6.337  18.166  0.00  0.00    +0.000 C 
BRANCH  19  21
ATOM     20  O   UNL     1       7.247   5.362  20.229  0.00  0.00    +0.000 OA
ATOM     21  C   UNL     1       6.982   5.624  19.059  0.00  0.00    +0.000 C 
ATOM     22  N   UNL     1       5.770   5.369  18.420  0.00  0.00    +0.000 N 
ATOM     23  H   UNL     1       5.620   5.824  17.528  0.00  0.00    +0.000 HD
BRANCH  22  24
ATOM     24  C   UNL     1       4.603   4.965  19.112  0.00  0.00    +0.000 A 
ATOM     25  C   UNL     1       3.648   5.887  19.597  0.00  0.00    +0.000 A 
ATOM     26  C   UNL     1       2.356   5.479  19.936  0.00  0.00    +0.000 A 
ATOM     27  C   UNL     1       2.063   4.150  19.760  0.00  0.00    +0.000 A 
ATOM     28  C   UNL     1       3.032   3.231  19.419  0.00  0.00    +0.000 A 
ATOM     29  C   UNL     1       4.333   3.595  19.154  0.00  0.00    +0.000 A 
ATOM     30  O   UNL     1       2.502   1.990  19.210  0.00  0.00    +0.000 OA
ATOM     31  C   UNL     1       1.113   2.363  19.083  0.00  0.00    +0.000 C 
ATOM     32  O   UNL     1       0.819   3.595  19.772  0.00  0.00    +0.000 OA
ENDBRANCH  22  24
ENDBRANCH  19  21
ENDBRANCH  18  19
ENDBRANCH   1  18
TORSDOF 7
ENDMDL
MODEL 9
REMARK VINA RESULT:      -7.8      4.111      7.942
REMARK  Name = 
REMARK  7 active torsions:
REMARK  status: ('A' for Active; 'I' for Inactive)
REMARK    1  A    between atoms: C_2  and  C_3
REMARK    2  A    between atoms: C_3  and  O_4
REMARK    3  A    between atoms: O_4  and  C_5
REMARK    4  A    between atoms: C_5  and  C_7
REMARK    5  A    between atoms: C_10  and  N_11
REMARK    6  A    between atoms: C_17  and  N_18
REMARK    7  A    between atoms: N_22  and  C_23
REMARK                            x       y       z     vdW  Elec       q    Type
REMARK                         _______ _______ _______ _____ _____    ______ ____
ROOT
ATOM      1  C   UNL     1       1.826   5.024  20.633  0.00  0.00    +0.000 C 
ATOM      2  O   UNL     1       2.479   4.647  21.594  0.00  0.00    +0.000 OA
ENDROOT
BRANCH   1   3
ATOM      3  C   UNL     1       1.730   6.448  20.207  0.00  0.00    +0.000 A 
ATOM      4  C   UNL     1       2.117   6.790  18.914  0.00  0.00    +0.000 A 
ATOM      5  C   UNL     1       1.954   8.105  18.440  0.00  0.00    +0.000 A 
ATOM      6  C   UNL     1       1.408   9.144  19.223  0.00  0.00    +0.000 A 
ATOM      7  C   UNL     1       1.050   8.756  20.534  0.00  0.00    +0.000 A 
ATOM      8  C   UNL     1       1.194   7.439  21.029  0.00  0.00    +0.000 A 
BRANCH   6   9
ATOM      9  N   UNL     1       1.238  10.392  18.651  0.00  0.00    +0.000 N 
ATOM     10  C   UNL     1       2.331  11.260  18.159  0.00  0.00    +0.000 C 
ATOM     11  C   UNL     1       2.206  12.667  18.776  0.00  0.00    +0.000 C 
ATOM     12  O   UNL     1       0.908  13.247  18.566  0.00  0.00    +0.000 OA
ATOM     13  C   UNL     1      -0.113  12.400  19.119  0.00  0.00    +0.000 C 
ATOM     14  C   UNL     1      -0.093  11.014  18.456  0.00  0.00    +0.000 C 
ENDBRANCH   6   9
BRANCH   7  15
ATOM     15  N   UNL     1       0.563   9.716  21.506  0.00  0.00    +0.000 N 
ATOM     16  O   UNL     1      -0.616   9.621  21.875  0.00  0.00    +0.000 OA
ATOM     17  O   UNL     1       1.357  10.597  21.871  0.00  0.00    +0.000 OA
ENDBRANCH   7  15
ENDBRANCH   1   3
BRANCH   1  18
ATOM     18  O   UNL     1       1.159   4.217  19.769  0.00  0.00    +0.000 OA
BRANCH  18  19
ATOM     19  C   UNL     1       1.742   2.916  19.612  0.00  0.00    +0.000 C 
BRANCH  19  21
ATOM     20  O   UNL     1       2.918   2.480  17.560  0.00  0.00    +0.000 OA
ATOM     21  C   UNL     1       2.943   3.017  18.664  0.00  0.00    +0.000 C 
ATOM     22  N   UNL     1       3.987   3.790  19.170  0.00  0.00    +0.000 N 
ATOM     23  H   UNL     1       3.788   4.340  19.997  0.00  0.00    +0.000 HD
BRANCH  22  24
ATOM     24  C   UNL     1       5.072   4.236  18.378  0.00  0.00    +0.000 A 
ATOM     25  C   UNL     1       5.056   4.182  16.966  0.00  0.00    +0.000 A 
ATOM     26  C   UNL     1       5.944   4.944  16.203  0.00  0.00    +0.000 A 
ATOM     27  C   UNL     1       6.813   5.752  16.893  0.00  0.00    +0.000 A 
ATOM     28  C   UNL     1       6.919   5.701  18.265  0.00  0.00    +0.000 A 
ATOM     29  C   UNL     1       6.109   4.900  19.039  0.00  0.00    +0.000 A 
ATOM     30  O   UNL     1       7.777   6.650  18.743  0.00  0.00    +0.000 OA
ATOM     31  C   UNL     1       7.849   7.489  17.571  0.00  0.00    +0.000 C 
ATOM     32  O   UNL     1       7.566   6.755  16.363  0.00  0.00    +0.000 OA
ENDBRANCH  22  24
ENDBRANCH  19  21
ENDBRANCH  18  19
ENDBRANCH   1  18
TORSDOF 7
ENDMDL
