MODEL 1
REMARK VINA RESULT:      -6.6      0.000      0.000
REMARK  Name = 
REMARK  12 active torsions:
REMARK  status: ('A' for Active; 'I' for Inactive)
REMARK    1  A    between atoms: C_2  and  O_3
REMARK    2  A    between atoms: C_2  and  C_4
REMARK    3  A    between atoms: C_4  and  C_5
REMARK    4  A    between atoms: C_5  and  C_6
REMARK    5  A    between atoms: C_6  and  C_7
REMARK    6  A    between atoms: C_7  and  C_8
REMARK    7  A    between atoms: C_8  and  C_9
REMARK    8  A    between atoms: C_9  and  C_10
REMARK    9  A    between atoms: C_10  and  N_11
REMARK   10  A    between atoms: C_13  and  C_14
REMARK   11  A    between atoms: C_20  and  C_21
REMARK   12  A    between atoms: C_27  and  C_28
REMARK                            x       y       z     vdW  Elec       q    Type
REMARK                         _______ _______ _______ _____ _____    ______ ____
ROOT
ATOM      1  N   UNL     1       0.803  10.878  18.676  0.00  0.00    +0.000 N 
ATOM      2  N   UNL     1       1.748  11.859  18.537  0.00  0.00    +0.000 NA
ATOM      3  C   UNL     1       1.601  12.972  19.194  0.00  0.00    +0.000 A 
ATOM      4  C   UNL     1       0.423  13.262  20.091  0.00  0.00    +0.000 A 
ATOM      5  C   UNL     1      -0.481  12.266  20.230  0.00  0.00    +0.000 A 
ATOM      6  C   UNL     1      -0.298  10.970  19.510  0.00  0.00    +0.000 A 
ATOM      7  O   UNL     1      -1.102  10.051  19.663  0.00  0.00    +0.000 OA
ENDROOT
BRANCH   3   8
ATOM      8  C   UNL     1       2.689  13.999  19.007  0.00  0.00    +0.000 A 
ATOM      9  C   UNL     1       3.594  14.225  20.058  0.00  0.00    +0.000 A 
ATOM     10  C   UNL     1       4.585  15.212  19.949  0.00  0.00    +0.000 A 
ATOM     11  C   UNL     1       4.697  15.967  18.787  0.00  0.00    +0.000 A 
ATOM     12  C   UNL     1       3.798  15.765  17.747  0.00  0.00    +0.000 A 
ATOM     13  C   UNL     1       2.782  14.815  17.876  0.00  0.00    +0.000 A 
ENDBRANCH   3   8
BRANCH   4  14
ATOM     14  C   UNL     1       0.202  14.556  20.768  0.00  0.00    +0.000 A 
ATOM     15  C   UNL     1       0.649  14.755  22.085  0.00  0.00    +0.000 A 
ATOM     16  C   UNL     1       0.476  15.987  22.714  0.00  0.00    +0.000 A 
ATOM     17  C   UNL     1      -0.200  17.013  22.058  0.00  0.00    +0.000 A 
ATOM     18  C   UNL     1      -0.696  16.810  20.770  0.00  0.00    +0.000 A 
ATOM     19  C   UNL     1      -0.488  15.590  20.121  0.00  0.00    +0.000 A 
ENDBRANCH   4  14
BRANCH   5  20
ATOM     20  C   UNL     1      -1.681  12.403  21.089  0.00  0.00    +0.000 A 
ATOM     21  C   UNL     1      -1.634  12.041  22.439  0.00  0.00    +0.000 A 
ATOM     22  C   UNL     1      -2.774  12.160  23.239  0.00  0.00    +0.000 A 
ATOM     23  C   UNL     1      -3.963  12.642  22.689  0.00  0.00    +0.000 A 
ATOM     24  C   UNL     1      -4.014  13.011  21.348  0.00  0.00    +0.000 A 
ATOM     25  C   UNL     1      -2.877  12.898  20.546  0.00  0.00    +0.000 A 
ENDBRANCH   5  20
BRANCH   1  26
ATOM     26  C   UNL     1       1.067   9.620  17.981  0.00  0.00    +0.000 C 
BRANCH  26  27
ATOM     27  C   UNL     1       1.984   8.707  18.800  0.00  0.00    +0.000 C 
BRANCH  27  28
ATOM     28  C   UNL     1       2.872   7.841  17.903  0.00  0.00    +0.000 C 
BRANCH  28  29
ATOM     29  C   UNL     1       2.638   6.351  18.166  0.00  0.00    +0.000 C 
BRANCH  29  30
ATOM     30  C   UNL     1       3.891   5.519  17.883  0.00  0.00    +0.000 C 
BRANCH  30  31
ATOM     31  C   UNL     1       4.940   6.336  17.126  0.00  0.00    +0.000 C 
BRANCH  31  32
ATOM     32  C   UNL     1       5.273   5.708  15.773  0.00  0.00    +0.000 C 
BRANCH  32  34
ATOM     33  O   UNL     1       7.640   5.577  15.229  0.00  0.00    +0.000 OA
ATOM     34  C   UNL     1       6.652   5.088  15.756  0.00  0.00    +0.000 C 
BRANCH  34  35
ATOM     35  O   UNL     1       6.691   3.904  16.407  0.00  0.00    +0.000 OA
ATOM     36  H   UNL     1       6.201   3.905  17.250  0.00  0.00    +0.000 HD
ENDBRANCH  34  35
ENDBRANCH  32  34
ENDBRANCH  31  32
ENDBRANCH  30  31
ENDBRANCH  29  30
ENDBRANCH  28  29
ENDBRANCH  27  28
ENDBRANCH  26  27
ENDBRANCH   1  26
TORSDOF 12
ENDMDL
MODEL 2
REMARK VINA RESULT:      -6.6      0.928      4.796
REMARK  Name = 
REMARK  12 active torsions:
REMARK  status: ('A' for Active; 'I' for Inactive)
REMARK    1  A    between atoms: C_2  and  O_3
REMARK    2  A    between atoms: C_2  and  C_4
REMARK    3  A    between atoms: C_4  and  C_5
REMARK    4  A    between atoms: C_5  and  C_6
REMARK    5  A    between atoms: C_6  and  C_7
REMARK    6  A    between atoms: C_7  and  C_8
REMARK    7  A    between atoms: C_8  and  C_9
REMARK    8  A    between atoms: C_9  and  C_10
REMARK    9  A    between atoms: C_10  and  N_11
REMARK   10  A    between atoms: C_13  and  C_14
REMARK   11  A    between atoms: C_20  and  C_21
REMARK   12  A    between atoms: C_27  and  C_28
REMARK                            x       y       z     vdW  Elec       q    Type
REMARK                         _______ _______ _______ _____ _____    ______ ____
ROOT
ATOM      1  N   UNL     1       0.817  10.981  18.851  0.00  0.00    +0.000 N 
ATOM      2  N   UNL     1      -0.297  11.141  19.630  0.00  0.00    +0.000 NA
ATOM      3  C   UNL     1      -0.498  12.287  20.212  0.00  0.00    +0.000 A 
ATOM      4  C   UNL     1       0.447  13.457  20.099  0.00  0.00    +0.000 A 
ATOM      5  C   UNL     1       1.525  13.280  19.301  0.00  0.00    +0.000 A 
ATOM      6  C   UNL     1       1.742  11.979  18.599  0.00  0.00    +0.000 A 
ATOM      7  O   UNL     1       2.704  11.830  17.846  0.00  0.00    +0.000 OA
ENDROOT
BRANCH   3   8
ATOM      8  C   UNL     1      -1.754  12.397  21.039  0.00  0.00    +0.000 A 
ATOM      9  C   UNL     1      -2.931  12.854  20.424  0.00  0.00    +0.000 A 
ATOM     10  C   UNL     1      -4.107  13.029  21.169  0.00  0.00    +0.000 A 
ATOM     11  C   UNL     1      -4.127  12.728  22.526  0.00  0.00    +0.000 A 
ATOM     12  C   UNL     1      -2.965  12.290  23.151  0.00  0.00    +0.000 A 
ATOM     13  C   UNL     1      -1.783  12.164  22.416  0.00  0.00    +0.000 A 
ENDBRANCH   3   8
BRANCH   4  14
ATOM     14  C   UNL     1       0.273  14.731  20.828  0.00  0.00    +0.000 A 
ATOM     15  C   UNL     1       0.844  14.905  22.099  0.00  0.00    +0.000 A 
ATOM     16  C   UNL     1       0.714  16.119  22.775  0.00  0.00    +0.000 A 
ATOM     17  C   UNL     1      -0.040  17.147  22.214  0.00  0.00    +0.000 A 
ATOM     18  C   UNL     1      -0.657  16.966  20.977  0.00  0.00    +0.000 A 
ATOM     19  C   UNL     1      -0.494  15.766  20.279  0.00  0.00    +0.000 A 
ENDBRANCH   4  14
BRANCH   5  20
ATOM     20  C   UNL     1       2.531  14.346  19.086  0.00  0.00    +0.000 A 
ATOM     21  C   UNL     1       3.649  14.447  19.920  0.00  0.00    +0.000 A 
ATOM     22  C   UNL     1       4.587  15.465  19.720  0.00  0.00    +0.000 A 
ATOM     23  C   UNL     1       4.406  16.383  18.684  0.00  0.00    +0.000 A 
ATOM     24  C   UNL     1       3.298  16.283  17.846  0.00  0.00    +0.000 A 
ATOM     25  C   UNL     1       2.362  15.266  18.039  0.00  0.00    +0.000 A 
ENDBRANCH   5  20
BRANCH   1  26
ATOM     26  C   UNL     1       0.944   9.701  18.156  0.00  0.00    +0.000 C 
BRANCH  26  27
ATOM     27  C   UNL     1       1.886   8.749  18.897  0.00  0.00    +0.000 C 
BRANCH  27  28
ATOM     28  C   UNL     1       2.696   7.884  17.930  0.00  0.00    +0.000 C 
BRANCH  28  29
ATOM     29  C   UNL     1       3.015   6.517  18.544  0.00  0.00    +0.000 C 
BRANCH  29  30
ATOM     30  C   UNL     1       3.715   5.594  17.545  0.00  0.00    +0.000 C 
BRANCH  30  31
ATOM     31  C   UNL     1       5.163   6.028  17.308  0.00  0.00    +0.000 C 
BRANCH  31  32
ATOM     32  C   UNL     1       5.603   5.760  15.869  0.00  0.00    +0.000 C 
BRANCH  32  34
ATOM     33  O   UNL     1       7.571   4.606  16.711  0.00  0.00    +0.000 OA
ATOM     34  C   UNL     1       6.996   5.178  15.798  0.00  0.00    +0.000 C 
BRANCH  34  35
ATOM     35  O   UNL     1       7.564   5.351  14.583  0.00  0.00    +0.000 OA
ATOM     36  H   UNL     1       8.003   4.551  14.240  0.00  0.00    +0.000 HD
ENDBRANCH  34  35
ENDBRANCH  32  34
ENDBRANCH  31  32
ENDBRANCH  30  31
ENDBRANCH  29  30
ENDBRANCH  28  29
ENDBRANCH  27  28
ENDBRANCH  26  27
ENDBRANCH   1  26
TORSDOF 12
ENDMDL
MODEL 3
REMARK VINA RESULT:      -6.6      2.024      2.835
REMARK  Name = 
REMARK  12 active torsions:
REMARK  status: ('A' for Active; 'I' for Inactive)
REMARK    1  A    between atoms: C_2  and  O_3
REMARK    2  A    between atoms: C_2  and  C_4
REMARK    3  A    between atoms: C_4  and  C_5
REMARK    4  A    between atoms: C_5  and  C_6
REMARK    5  A    between atoms: C_6  and  C_7
REMARK    6  A    between atoms: C_7  and  C_8
REMARK    7  A    between atoms: C_8  and  C_9
REMARK    8  A    between atoms: C_9  and  C_10
REMARK    9  A    between atoms: C_10  and  N_11
REMARK   10  A    between atoms: C_13  and  C_14
REMARK   11  A    between atoms: C_20  and  C_21
REMARK   12  A    between atoms: C_27  and  C_28
REMARK                            x       y       z     vdW  Elec       q    Type
REMARK                         _______ _______ _______ _____ _____    ______ ____
ROOT
ATOM      1  N   UNL     1       0.917  10.799  18.697  0.00  0.00    +0.000 N 
ATOM      2  N   UNL     1       1.856  11.785  18.563  0.00  0.00    +0.000 NA
ATOM      3  C   UNL     1       1.690  12.904  19.206  0.00  0.00    +0.000 A 
ATOM      4  C   UNL     1       0.495  13.193  20.081  0.00  0.00    +0.000 A 
ATOM      5  C   UNL     1      -0.403  12.191  20.216  0.00  0.00    +0.000 A 
ATOM      6  C   UNL     1      -0.199  10.890  19.512  0.00  0.00    +0.000 A 
ATOM      7  O   UNL     1      -0.998   9.967  19.662  0.00  0.00    +0.000 OA
ENDROOT
BRANCH   3   8
ATOM      8  C   UNL     1       2.774  13.936  19.026  0.00  0.00    +0.000 A 
ATOM      9  C   UNL     1       2.891  14.586  17.787  0.00  0.00    +0.000 A 
ATOM     10  C   UNL     1       3.922  15.509  17.556  0.00  0.00    +0.000 A 
ATOM     11  C   UNL     1       4.831  15.809  18.564  0.00  0.00    +0.000 A 
ATOM     12  C   UNL     1       4.736  15.162  19.791  0.00  0.00    +0.000 A 
ATOM     13  C   UNL     1       3.738  14.207  20.001  0.00  0.00    +0.000 A 
ENDBRANCH   3   8
BRANCH   4  14
ATOM     14  C   UNL     1       0.254  14.493  20.742  0.00  0.00    +0.000 A 
ATOM     15  C   UNL     1      -0.423  15.520  20.063  0.00  0.00    +0.000 A 
ATOM     16  C   UNL     1      -0.686  16.734  20.696  0.00  0.00    +0.000 A 
ATOM     17  C   UNL     1      -0.222  16.957  21.990  0.00  0.00    +0.000 A 
ATOM     18  C   UNL     1       0.497  15.964  22.655  0.00  0.00    +0.000 A 
ATOM     19  C   UNL     1       0.727  14.731  22.038  0.00  0.00    +0.000 A 
ENDBRANCH   4  14
BRANCH   5  20
ATOM     20  C   UNL     1      -1.617  12.329  21.054  0.00  0.00    +0.000 A 
ATOM     21  C   UNL     1      -1.583  12.004  22.414  0.00  0.00    +0.000 A 
ATOM     22  C   UNL     1      -2.737  12.122  23.195  0.00  0.00    +0.000 A 
ATOM     23  C   UNL     1      -3.926  12.565  22.616  0.00  0.00    +0.000 A 
ATOM     24  C   UNL     1      -3.965  12.896  21.264  0.00  0.00    +0.000 A 
ATOM     25  C   UNL     1      -2.815  12.784  20.481  0.00  0.00    +0.000 A 
ENDBRANCH   5  20
BRANCH   1  26
ATOM     26  C   UNL     1       1.201   9.535  18.019  0.00  0.00    +0.000 C 
BRANCH  26  27
ATOM     27  C   UNL     1       1.912   8.547  18.947  0.00  0.00    +0.000 C 
BRANCH  27  28
ATOM     28  C   UNL     1       2.786   7.562  18.166  0.00  0.00    +0.000 C 
BRANCH  28  29
ATOM     29  C   UNL     1       2.736   6.164  18.788  0.00  0.00    +0.000 C 
BRANCH  29  30
ATOM     30  C   UNL     1       1.838   5.217  17.989  0.00  0.00    +0.000 C 
BRANCH  30  31
ATOM     31  C   UNL     1       1.698   3.863  18.687  0.00  0.00    +0.000 C 
BRANCH  31  32
ATOM     32  C   UNL     1       1.360   4.025  20.168  0.00  0.00    +0.000 C 
BRANCH  32  34
ATOM     33  O   UNL     1       3.276   2.676  20.817  0.00  0.00    +0.000 OA
ATOM     34  C   UNL     1       2.141   3.068  21.039  0.00  0.00    +0.000 C 
BRANCH  34  35
ATOM     35  O   UNL     1       1.443   2.680  22.131  0.00  0.00    +0.000 OA
ATOM     36  H   UNL     1       0.608   2.223  21.918  0.00  0.00    +0.000 HD
ENDBRANCH  34  35
ENDBRANCH  32  34
ENDBRANCH  31  32
ENDBRANCH  30  31
ENDBRANCH  29  30
ENDBRANCH  28  29
ENDBRANCH  27  28
ENDBRANCH  26  27
ENDBRANCH   1  26
TORSDOF 12
ENDMDL
MODEL 4
REMARK VINA RESULT:      -6.6      2.397      5.402
REMARK  Name = 
REMARK  12 active torsions:
REMARK  status: ('A' for Active; 'I' for Inactive)
REMARK    1  A    between atoms: C_2  and  O_3
REMARK    2  A    between atoms: C_2  and  C_4
REMARK    3  A    between atoms: C_4  and  C_5
REMARK    4  A    between atoms: C_5  and  C_6
REMARK    5  A    between atoms: C_6  and  C_7
REMARK    6  A    between atoms: C_7  and  C_8
REMARK    7  A    between atoms: C_8  and  C_9
REMARK    8  A    between atoms: C_9  and  C_10
REMARK    9  A    between atoms: C_10  and  N_11
REMARK   10  A    between atoms: C_13  and  C_14
REMARK   11  A    between atoms: C_20  and  C_21
REMARK   12  A    between atoms: C_27  and  C_28
REMARK                            x       y       z     vdW  Elec       q    Type
REMARK                         _______ _______ _______ _____ _____    ______ ____
ROOT
ATOM      1  N   UNL     1       0.768  11.171  18.821  0.00  0.00    +0.000 N 
ATOM      2  N   UNL     1      -0.328  11.354  19.619  0.00  0.00    +0.000 NA
ATOM      3  C   UNL     1      -0.485  12.497  20.221  0.00  0.00    +0.000 A 
ATOM      4  C   UNL     1       0.494  13.639  20.109  0.00  0.00    +0.000 A 
ATOM      5  C   UNL     1       1.553  13.441  19.293  0.00  0.00    +0.000 A 
ATOM      6  C   UNL     1       1.720  12.144  18.569  0.00  0.00    +0.000 A 
ATOM      7  O   UNL     1       2.666  11.976  17.800  0.00  0.00    +0.000 OA
ENDROOT
BRANCH   3   8
ATOM      8  C   UNL     1      -1.725  12.633  21.068  0.00  0.00    +0.000 A 
ATOM      9  C   UNL     1      -1.681  12.205  22.405  0.00  0.00    +0.000 A 
ATOM     10  C   UNL     1      -2.828  12.257  23.212  0.00  0.00    +0.000 A 
ATOM     11  C   UNL     1      -4.021  12.755  22.701  0.00  0.00    +0.000 A 
ATOM     12  C   UNL     1      -4.083  13.166  21.375  0.00  0.00    +0.000 A 
ATOM     13  C   UNL     1      -2.952  13.068  20.560  0.00  0.00    +0.000 A 
ENDBRANCH   3   8
BRANCH   4  14
ATOM     14  C   UNL     1       0.370  14.907  20.859  0.00  0.00    +0.000 A 
ATOM     15  C   UNL     1       0.957  15.042  22.128  0.00  0.00    +0.000 A 
ATOM     16  C   UNL     1       0.875  16.249  22.822  0.00  0.00    +0.000 A 
ATOM     17  C   UNL     1       0.152  17.311  22.284  0.00  0.00    +0.000 A 
ATOM     18  C   UNL     1      -0.480  17.170  21.049  0.00  0.00    +0.000 A 
ATOM     19  C   UNL     1      -0.365  15.977  20.332  0.00  0.00    +0.000 A 
ENDBRANCH   4  14
BRANCH   5  20
ATOM     20  C   UNL     1       2.588  14.479  19.077  0.00  0.00    +0.000 A 
ATOM     21  C   UNL     1       3.729  14.524  19.886  0.00  0.00    +0.000 A 
ATOM     22  C   UNL     1       4.694  15.516  19.686  0.00  0.00    +0.000 A 
ATOM     23  C   UNL     1       4.519  16.463  18.675  0.00  0.00    +0.000 A 
ATOM     24  C   UNL     1       3.390  16.418  17.863  0.00  0.00    +0.000 A 
ATOM     25  C   UNL     1       2.426  15.427  18.056  0.00  0.00    +0.000 A 
ENDBRANCH   5  20
BRANCH   1  26
ATOM     26  C   UNL     1       0.846   9.898  18.106  0.00  0.00    +0.000 C 
BRANCH  26  27
ATOM     27  C   UNL     1       1.713   8.884  18.856  0.00  0.00    +0.000 C 
BRANCH  27  28
ATOM     28  C   UNL     1       2.585   8.066  17.901  0.00  0.00    +0.000 C 
BRANCH  28  29
ATOM     29  C   UNL     1       2.604   6.587  18.297  0.00  0.00    +0.000 C 
BRANCH  29  30
ATOM     30  C   UNL     1       2.660   6.405  19.816  0.00  0.00    +0.000 C 
BRANCH  30  31
ATOM     31  C   UNL     1       1.827   5.202  20.262  0.00  0.00    +0.000 C 
BRANCH  31  32
ATOM     32  C   UNL     1       1.803   4.107  19.196  0.00  0.00    +0.000 C 
BRANCH  32  34
ATOM     33  O   UNL     1       0.287   2.257  18.760  0.00  0.00    +0.000 OA
ATOM     34  C   UNL     1       0.863   2.980  19.558  0.00  0.00    +0.000 C 
BRANCH  34  35
ATOM     35  O   UNL     1       0.720   2.838  20.895  0.00  0.00    +0.000 OA
ATOM     36  H   UNL     1       0.082   2.146  21.149  0.00  0.00    +0.000 HD
ENDBRANCH  34  35
ENDBRANCH  32  34
ENDBRANCH  31  32
ENDBRANCH  30  31
ENDBRANCH  29  30
ENDBRANCH  28  29
ENDBRANCH  27  28
ENDBRANCH  26  27
ENDBRANCH   1  26
TORSDOF 12
ENDMDL
MODEL 5
REMARK VINA RESULT:      -6.6      2.161      2.685
REMARK  Name = 
REMARK  12 active torsions:
REMARK  status: ('A' for Active; 'I' for Inactive)
REMARK    1  A    between atoms: C_2  and  O_3
REMARK    2  A    between atoms: C_2  and  C_4
REMARK    3  A    between atoms: C_4  and  C_5
REMARK    4  A    between atoms: C_5  and  C_6
REMARK    5  A    between atoms: C_6  and  C_7
REMARK    6  A    between atoms: C_7  and  C_8
REMARK    7  A    between atoms: C_8  and  C_9
REMARK    8  A    between atoms: C_9  and  C_10
REMARK    9  A    between atoms: C_10  and  N_11
REMARK   10  A    between atoms: C_13  and  C_14
REMARK   11  A    between atoms: C_20  and  C_21
REMARK   12  A    between atoms: C_27  and  C_28
REMARK                            x       y       z     vdW  Elec       q    Type
REMARK                         _______ _______ _______ _____ _____    ______ ____
ROOT
ATOM      1  N   UNL     1       0.738  10.780  18.650  0.00  0.00    +0.000 N 
ATOM      2  N   UNL     1       1.698  11.743  18.496  0.00  0.00    +0.000 NA
ATOM      3  C   UNL     1       1.574  12.865  19.143  0.00  0.00    +0.000 A 
ATOM      4  C   UNL     1       0.407  13.182  20.045  0.00  0.00    +0.000 A 
ATOM      5  C   UNL     1      -0.513  12.203  20.200  0.00  0.00    +0.000 A 
ATOM      6  C   UNL     1      -0.357  10.897  19.490  0.00  0.00    +0.000 A 
ATOM      7  O   UNL     1      -1.175   9.994  19.657  0.00  0.00    +0.000 OA
ENDROOT
BRANCH   3   8
ATOM      8  C   UNL     1       2.679  13.871  18.940  0.00  0.00    +0.000 A 
ATOM      9  C   UNL     1       3.567  14.123  19.998  0.00  0.00    +0.000 A 
ATOM     10  C   UNL     1       4.572  15.095  19.873  0.00  0.00    +0.000 A 
ATOM     11  C   UNL     1       4.714  15.806  18.687  0.00  0.00    +0.000 A 
ATOM     12  C   UNL     1       3.831  15.577  17.638  0.00  0.00    +0.000 A 
ATOM     13  C   UNL     1       2.802  14.645  17.783  0.00  0.00    +0.000 A 
ENDBRANCH   3   8
BRANCH   4  14
ATOM     14  C   UNL     1       0.212  14.486  20.712  0.00  0.00    +0.000 A 
ATOM     15  C   UNL     1       0.660  14.685  22.029  0.00  0.00    +0.000 A 
ATOM     16  C   UNL     1       0.512  15.925  22.649  0.00  0.00    +0.000 A 
ATOM     17  C   UNL     1      -0.139  16.961  21.982  0.00  0.00    +0.000 A 
ATOM     18  C   UNL     1      -0.635  16.759  20.694  0.00  0.00    +0.000 A 
ATOM     19  C   UNL     1      -0.452  15.530  20.055  0.00  0.00    +0.000 A 
ENDBRANCH   4  14
BRANCH   5  20
ATOM     20  C   UNL     1      -1.704  12.369  21.065  0.00  0.00    +0.000 A 
ATOM     21  C   UNL     1      -2.890  12.901  20.547  0.00  0.00    +0.000 A 
ATOM     22  C   UNL     1      -4.005  13.068  21.373  0.00  0.00    +0.000 A 
ATOM     23  C   UNL     1      -3.936  12.703  22.719  0.00  0.00    +0.000 A 
ATOM     24  C   UNL     1      -2.761  12.166  23.237  0.00  0.00    +0.000 A 
ATOM     25  C   UNL     1      -1.646  11.993  22.416  0.00  0.00    +0.000 A 
ENDBRANCH   5  20
BRANCH   1  26
ATOM     26  C   UNL     1       0.976   9.511  17.965  0.00  0.00    +0.000 C 
BRANCH  26  27
ATOM     27  C   UNL     1       2.422   9.040  18.140  0.00  0.00    +0.000 C 
BRANCH  27  28
ATOM     28  C   UNL     1       2.494   7.568  18.554  0.00  0.00    +0.000 C 
BRANCH  28  29
ATOM     29  C   UNL     1       3.577   6.824  17.767  0.00  0.00    +0.000 C 
BRANCH  29  30
ATOM     30  C   UNL     1       3.361   5.310  17.793  0.00  0.00    +0.000 C 
BRANCH  30  31
ATOM     31  C   UNL     1       2.303   4.917  18.827  0.00  0.00    +0.000 C 
BRANCH  31  32
ATOM     32  C   UNL     1       2.825   3.850  19.789  0.00  0.00    +0.000 C 
BRANCH  32  34
ATOM     33  O   UNL     1       2.142   3.361  22.071  0.00  0.00    +0.000 OA
ATOM     34  C   UNL     1       1.845   3.560  20.903  0.00  0.00    +0.000 C 
BRANCH  34  35
ATOM     35  O   UNL     1       0.564   3.546  20.470  0.00  0.00    +0.000 OA
ATOM     36  H   UNL     1      -0.040   3.049  21.053  0.00  0.00    +0.000 HD
ENDBRANCH  34  35
ENDBRANCH  32  34
ENDBRANCH  31  32
ENDBRANCH  30  31
ENDBRANCH  29  30
ENDBRANCH  28  29
ENDBRANCH  27  28
ENDBRANCH  26  27
ENDBRANCH   1  26
TORSDOF 12
ENDMDL
MODEL 6
REMARK VINA RESULT:      -6.6      0.523      1.368
REMARK  Name = 
REMARK  12 active torsions:
REMARK  status: ('A' for Active; 'I' for Inactive)
REMARK    1  A    between atoms: C_2  and  O_3
REMARK    2  A    between atoms: C_2  and  C_4
REMARK    3  A    between atoms: C_4  and  C_5
REMARK    4  A    between atoms: C_5  and  C_6
REMARK    5  A    between atoms: C_6  and  C_7
REMARK    6  A    between atoms: C_7  and  C_8
REMARK    7  A    between atoms: C_8  and  C_9
REMARK    8  A    between atoms: C_9  and  C_10
REMARK    9  A    between atoms: C_10  and  N_11
REMARK   10  A    between atoms: C_13  and  C_14
REMARK   11  A    between atoms: C_20  and  C_21
REMARK   12  A    between atoms: C_27  and  C_28
REMARK                            x       y       z     vdW  Elec       q    Type
REMARK                         _______ _______ _______ _____ _____    ______ ____
ROOT
ATOM      1  N   UNL     1       0.936  10.847  18.683  0.00  0.00    +0.000 N 
ATOM      2  N   UNL     1       1.867  11.841  18.554  0.00  0.00    +0.000 NA
ATOM      3  C   UNL     1       1.700  12.949  19.215  0.00  0.00    +0.000 A 
ATOM      4  C   UNL     1       0.514  13.217  20.108  0.00  0.00    +0.000 A 
ATOM      5  C   UNL     1      -0.376  12.207  20.238  0.00  0.00    +0.000 A 
ATOM      6  C   UNL     1      -0.170  10.918  19.512  0.00  0.00    +0.000 A 
ATOM      7  O   UNL     1      -0.962   9.987  19.657  0.00  0.00    +0.000 OA
ENDROOT
BRANCH   3   8
ATOM      8  C   UNL     1       2.775  13.992  19.039  0.00  0.00    +0.000 A 
ATOM      9  C   UNL     1       2.889  14.644  17.800  0.00  0.00    +0.000 A 
ATOM     10  C   UNL     1       3.912  15.577  17.573  0.00  0.00    +0.000 A 
ATOM     11  C   UNL     1       4.816  15.885  18.583  0.00  0.00    +0.000 A 
ATOM     12  C   UNL     1       4.725  15.235  19.809  0.00  0.00    +0.000 A 
ATOM     13  C   UNL     1       3.735  14.271  20.016  0.00  0.00    +0.000 A 
ENDBRANCH   3   8
BRANCH   4  14
ATOM     14  C   UNL     1       0.271  14.505  20.791  0.00  0.00    +0.000 A 
ATOM     15  C   UNL     1       0.759  14.723  22.090  0.00  0.00    +0.000 A 
ATOM     16  C   UNL     1       0.564  15.950  22.724  0.00  0.00    +0.000 A 
ATOM     17  C   UNL     1      -0.172  16.949  22.091  0.00  0.00    +0.000 A 
ATOM     18  C   UNL     1      -0.707  16.724  20.822  0.00  0.00    +0.000 A 
ATOM     19  C   UNL     1      -0.478  15.511  20.168  0.00  0.00    +0.000 A 
ENDBRANCH   4  14
BRANCH   5  20
ATOM     20  C   UNL     1      -1.581  12.323  21.092  0.00  0.00    +0.000 A 
ATOM     21  C   UNL     1      -2.775  12.834  20.571  0.00  0.00    +0.000 A 
ATOM     22  C   UNL     1      -3.904  12.955  21.386  0.00  0.00    +0.000 A 
ATOM     23  C   UNL     1      -3.840  12.563  22.724  0.00  0.00    +0.000 A 
ATOM     24  C   UNL     1      -2.658  12.046  23.247  0.00  0.00    +0.000 A 
ATOM     25  C   UNL     1      -1.529  11.920  22.435  0.00  0.00    +0.000 A 
ENDBRANCH   5  20
BRANCH   1  26
ATOM     26  C   UNL     1       1.222   9.596  17.983  0.00  0.00    +0.000 C 
BRANCH  26  27
ATOM     27  C   UNL     1       2.128   8.682  18.812  0.00  0.00    +0.000 C 
BRANCH  27  28
ATOM     28  C   UNL     1       2.307   7.311  18.155  0.00  0.00    +0.000 C 
BRANCH  28  29
ATOM     29  C   UNL     1       3.739   7.124  17.646  0.00  0.00    +0.000 C 
BRANCH  29  30
ATOM     30  C   UNL     1       4.349   5.807  18.133  0.00  0.00    +0.000 C 
BRANCH  30  31
ATOM     31  C   UNL     1       4.613   4.852  16.967  0.00  0.00    +0.000 C 
BRANCH  31  32
ATOM     32  C   UNL     1       5.574   5.461  15.947  0.00  0.00    +0.000 C 
BRANCH  32  34
ATOM     33  O   UNL     1       7.615   4.451  16.801  0.00  0.00    +0.000 OA
ATOM     34  C   UNL     1       7.006   5.444  16.433  0.00  0.00    +0.000 C 
BRANCH  34  35
ATOM     35  O   UNL     1       7.571   6.672  16.413  0.00  0.00    +0.000 OA
ATOM     36  H   UNL     1       8.136   6.854  17.186  0.00  0.00    +0.000 HD
ENDBRANCH  34  35
ENDBRANCH  32  34
ENDBRANCH  31  32
ENDBRANCH  30  31
ENDBRANCH  29  30
ENDBRANCH  28  29
ENDBRANCH  27  28
ENDBRANCH  26  27
ENDBRANCH   1  26
TORSDOF 12
ENDMDL
MODEL 7
REMARK VINA RESULT:      -6.6      2.033      2.831
REMARK  Name = 
REMARK  12 active torsions:
REMARK  status: ('A' for Active; 'I' for Inactive)
REMARK    1  A    between atoms: C_2  and  O_3
REMARK    2  A    between atoms: C_2  and  C_4
REMARK    3  A    between atoms: C_4  and  C_5
REMARK    4  A    between atoms: C_5  and  C_6
REMARK    5  A    between atoms: C_6  and  C_7
REMARK    6  A    between atoms: C_7  and  C_8
REMARK    7  A    between atoms: C_8  and  C_9
REMARK    8  A    between atoms: C_9  and  C_10
REMARK    9  A    between atoms: C_10  and  N_11
REMARK   10  A    between atoms: C_13  and  C_14
REMARK   11  A    between atoms: C_20  and  C_21
REMARK   12  A    between atoms: C_27  and  C_28
REMARK                            x       y       z     vdW  Elec       q    Type
REMARK                         _______ _______ _______ _____ _____    ______ ____
ROOT
ATOM      1  N   UNL     1       0.743  10.838  18.647  0.00  0.00    +0.000 N 
ATOM      2  N   UNL     1       1.703  11.802  18.496  0.00  0.00    +0.000 NA
ATOM      3  C   UNL     1       1.584  12.916  19.158  0.00  0.00    +0.000 A 
ATOM      4  C   UNL     1       0.425  13.223  20.073  0.00  0.00    +0.000 A 
ATOM      5  C   UNL     1      -0.494  12.242  20.223  0.00  0.00    +0.000 A 
ATOM      6  C   UNL     1      -0.344  10.946  19.496  0.00  0.00    +0.000 A 
ATOM      7  O   UNL     1      -1.161  10.041  19.660  0.00  0.00    +0.000 OA
ENDROOT
BRANCH   3   8
ATOM      8  C   UNL     1       2.688  13.924  18.958  0.00  0.00    +0.000 A 
ATOM      9  C   UNL     1       3.620  14.121  19.990  0.00  0.00    +0.000 A 
ATOM     10  C   UNL     1       4.627  15.091  19.870  0.00  0.00    +0.000 A 
ATOM     11  C   UNL     1       4.727  15.857  18.714  0.00  0.00    +0.000 A 
ATOM     12  C   UNL     1       3.801  15.684  17.692  0.00  0.00    +0.000 A 
ATOM     13  C   UNL     1       2.771  14.751  17.834  0.00  0.00    +0.000 A 
ENDBRANCH   3   8
BRANCH   4  14
ATOM     14  C   UNL     1       0.236  14.519  20.757  0.00  0.00    +0.000 A 
ATOM     15  C   UNL     1      -0.412  15.580  20.103  0.00  0.00    +0.000 A 
ATOM     16  C   UNL     1      -0.625  16.793  20.758  0.00  0.00    +0.000 A 
ATOM     17  C   UNL     1      -0.139  16.978  22.050  0.00  0.00    +0.000 A 
ATOM     18  C   UNL     1       0.553  15.950  22.690  0.00  0.00    +0.000 A 
ATOM     19  C   UNL     1       0.732  14.720  22.052  0.00  0.00    +0.000 A 
ENDBRANCH   4  14
BRANCH   5  20
ATOM     20  C   UNL     1      -1.678  12.398  21.100  0.00  0.00    +0.000 A 
ATOM     21  C   UNL     1      -1.617  12.033  22.449  0.00  0.00    +0.000 A 
ATOM     22  C   UNL     1      -2.743  12.169  23.266  0.00  0.00    +0.000 A 
ATOM     23  C   UNL     1      -3.932  12.672  22.735  0.00  0.00    +0.000 A 
ATOM     24  C   UNL     1      -3.997  13.043  21.395  0.00  0.00    +0.000 A 
ATOM     25  C   UNL     1      -2.874  12.913  20.576  0.00  0.00    +0.000 A 
ENDBRANCH   5  20
BRANCH   1  26
ATOM     26  C   UNL     1       0.975   9.577  17.944  0.00  0.00    +0.000 C 
BRANCH  26  27
ATOM     27  C   UNL     1       1.912   8.658  18.733  0.00  0.00    +0.000 C 
BRANCH  27  28
ATOM     28  C   UNL     1       2.989   8.041  17.837  0.00  0.00    +0.000 C 
BRANCH  28  29
ATOM     29  C   UNL     1       3.111   6.533  18.077  0.00  0.00    +0.000 C 
BRANCH  29  30
ATOM     30  C   UNL     1       2.639   6.140  19.479  0.00  0.00    +0.000 C 
BRANCH  30  31
ATOM     31  C   UNL     1       2.450   4.626  19.597  0.00  0.00    +0.000 C 
BRANCH  31  32
ATOM     32  C   UNL     1       1.493   4.265  20.732  0.00  0.00    +0.000 C 
BRANCH  32  34
ATOM     33  O   UNL     1       1.297   2.464  22.354  0.00  0.00    +0.000 OA
ATOM     34  C   UNL     1       1.935   3.027  21.478  0.00  0.00    +0.000 C 
BRANCH  34  35
ATOM     35  O   UNL     1       3.143   2.581  21.065  0.00  0.00    +0.000 OA
ATOM     36  H   UNL     1       3.253   1.616  21.147  0.00  0.00    +0.000 HD
ENDBRANCH  34  35
ENDBRANCH  32  34
ENDBRANCH  31  32
ENDBRANCH  30  31
ENDBRANCH  29  30
ENDBRANCH  28  29
ENDBRANCH  27  28
ENDBRANCH  26  27
ENDBRANCH   1  26
TORSDOF 12
ENDMDL
MODEL 8
REMARK VINA RESULT:      -6.5      0.597      1.061
REMARK  Name = 
REMARK  12 active torsions:
REMARK  status: ('A' for Active; 'I' for Inactive)
REMARK    1  A    between atoms: C_2  and  O_3
REMARK    2  A    between atoms: C_2  and  C_4
REMARK    3  A    between atoms: C_4  and  C_5
REMARK    4  A    between atoms: C_5  and  C_6
REMARK    5  A    between atoms: C_6  and  C_7
REMARK    6  A    between atoms: C_7  and  C_8
REMARK    7  A    between atoms: C_8  and  C_9
REMARK    8  A    between atoms: C_9  and  C_10
REMARK    9  A    between atoms: C_10  and  N_11
REMARK   10  A    between atoms: C_13  and  C_14
REMARK   11  A    between atoms: C_20  and  C_21
REMARK   12  A    between atoms: C_27  and  C_28
REMARK                            x       y       z     vdW  Elec       q    Type
REMARK                         _______ _______ _______ _____ _____    ______ ____
ROOT
ATOM      1  N   UNL     1       0.981  10.803  18.608  0.00  0.00    +0.000 N 
ATOM      2  N   UNL     1       1.912  11.794  18.452  0.00  0.00    +0.000 NA
ATOM      3  C   UNL     1       1.762  12.908  19.108  0.00  0.00    +0.000 A 
ATOM      4  C   UNL     1       0.596  13.186  20.024  0.00  0.00    +0.000 A 
ATOM      5  C   UNL     1      -0.294  12.179  20.181  0.00  0.00    +0.000 A 
ATOM      6  C   UNL     1      -0.108  10.884  19.460  0.00  0.00    +0.000 A 
ATOM      7  O   UNL     1      -0.898   9.956  19.629  0.00  0.00    +0.000 OA
ENDROOT
BRANCH   3   8
ATOM      8  C   UNL     1       2.836  13.946  18.901  0.00  0.00    +0.000 A 
ATOM      9  C   UNL     1       3.765  14.173  19.930  0.00  0.00    +0.000 A 
ATOM     10  C   UNL     1       4.743  15.172  19.804  0.00  0.00    +0.000 A 
ATOM     11  C   UNL     1       4.818  15.936  18.645  0.00  0.00    +0.000 A 
ATOM     12  C   UNL     1       3.895  15.732  17.626  0.00  0.00    +0.000 A 
ATOM     13  C   UNL     1       2.892  14.771  17.775  0.00  0.00    +0.000 A 
ENDBRANCH   3   8
BRANCH   4  14
ATOM     14  C   UNL     1       0.371  14.479  20.702  0.00  0.00    +0.000 A 
ATOM     15  C   UNL     1      -0.302  15.520  20.041  0.00  0.00    +0.000 A 
ATOM     16  C   UNL     1      -0.549  16.729  20.691  0.00  0.00    +0.000 A 
ATOM     17  C   UNL     1      -0.073  16.932  21.984  0.00  0.00    +0.000 A 
ATOM     18  C   UNL     1       0.643  15.925  22.630  0.00  0.00    +0.000 A 
ATOM     19  C   UNL     1       0.857  14.698  21.998  0.00  0.00    +0.000 A 
ENDBRANCH   4  14
BRANCH   5  20
ATOM     20  C   UNL     1      -1.480  12.305  21.058  0.00  0.00    +0.000 A 
ATOM     21  C   UNL     1      -1.411  11.934  22.406  0.00  0.00    +0.000 A 
ATOM     22  C   UNL     1      -2.539  12.042  23.224  0.00  0.00    +0.000 A 
ATOM     23  C   UNL     1      -3.739  12.522  22.696  0.00  0.00    +0.000 A 
ATOM     24  C   UNL     1      -3.812  12.899  21.358  0.00  0.00    +0.000 A 
ATOM     25  C   UNL     1      -2.687  12.797  20.538  0.00  0.00    +0.000 A 
ENDBRANCH   5  20
BRANCH   1  26
ATOM     26  C   UNL     1       1.248   9.546  17.912  0.00  0.00    +0.000 C 
BRANCH  26  27
ATOM     27  C   UNL     1       2.106   8.604  18.761  0.00  0.00    +0.000 C 
BRANCH  27  28
ATOM     28  C   UNL     1       2.995   7.709  17.894  0.00  0.00    +0.000 C 
BRANCH  28  29
ATOM     29  C   UNL     1       3.165   6.324  18.523  0.00  0.00    +0.000 C 
BRANCH  29  30
ATOM     30  C   UNL     1       4.558   5.747  18.261  0.00  0.00    +0.000 C 
BRANCH  30  31
ATOM     31  C   UNL     1       5.343   6.615  17.276  0.00  0.00    +0.000 C 
BRANCH  31  32
ATOM     32  C   UNL     1       6.844   6.340  17.354  0.00  0.00    +0.000 C 
BRANCH  32  34
ATOM     33  O   UNL     1       6.946   4.374  15.926  0.00  0.00    +0.000 OA
ATOM     34  C   UNL     1       7.181   4.910  16.999  0.00  0.00    +0.000 C 
BRANCH  34  35
ATOM     35  O   UNL     1       7.794   4.258  18.013  0.00  0.00    +0.000 OA
ATOM     36  H   UNL     1       7.502   3.334  18.116  0.00  0.00    +0.000 HD
ENDBRANCH  34  35
ENDBRANCH  32  34
ENDBRANCH  31  32
ENDBRANCH  30  31
ENDBRANCH  29  30
ENDBRANCH  28  29
ENDBRANCH  27  28
ENDBRANCH  26  27
ENDBRANCH   1  26
TORSDOF 12
ENDMDL
MODEL 9
REMARK VINA RESULT:      -6.5      0.643      1.081
REMARK  Name = 
REMARK  12 active torsions:
REMARK  status: ('A' for Active; 'I' for Inactive)
REMARK    1  A    between atoms: C_2  and  O_3
REMARK    2  A    between atoms: C_2  and  C_4
REMARK    3  A    between atoms: C_4  and  C_5
REMARK    4  A    between atoms: C_5  and  C_6
REMARK    5  A    between atoms: C_6  and  C_7
REMARK    6  A    between atoms: C_7  and  C_8
REMARK    7  A    between atoms: C_8  and  C_9
REMARK    8  A    between atoms: C_9  and  C_10
REMARK    9  A    between atoms: C_10  and  N_11
REMARK   10  A    between atoms: C_13  and  C_14
REMARK   11  A    between atoms: C_20  and  C_21
REMARK   12  A    between atoms: C_27  and  C_28
REMARK                            x       y       z     vdW  Elec       q    Type
REMARK                         _______ _______ _______ _____ _____    ______ ____
ROOT
ATOM      1  N   UNL     1       0.841  10.743  18.600  0.00  0.00    +0.000 N 
ATOM      2  N   UNL     1       1.781  11.724  18.444  0.00  0.00    +0.000 NA
ATOM      3  C   UNL     1       1.642  12.839  19.101  0.00  0.00    +0.000 A 
ATOM      4  C   UNL     1       0.478  13.128  20.015  0.00  0.00    +0.000 A 
ATOM      5  C   UNL     1      -0.422  12.131  20.171  0.00  0.00    +0.000 A 
ATOM      6  C   UNL     1      -0.248  10.834  19.451  0.00  0.00    +0.000 A 
ATOM      7  O   UNL     1      -1.047   9.914  19.619  0.00  0.00    +0.000 OA
ENDROOT
BRANCH   3   8
ATOM      8  C   UNL     1       2.726  13.867  18.895  0.00  0.00    +0.000 A 
ATOM      9  C   UNL     1       3.636  14.108  19.936  0.00  0.00    +0.000 A 
ATOM     10  C   UNL     1       4.623  15.098  19.810  0.00  0.00    +0.000 A 
ATOM     11  C   UNL     1       4.725  15.840  18.638  0.00  0.00    +0.000 A 
ATOM     12  C   UNL     1       3.819  15.623  17.606  0.00  0.00    +0.000 A 
ATOM     13  C   UNL     1       2.808  14.671  17.754  0.00  0.00    +0.000 A 
ENDBRANCH   3   8
BRANCH   4  14
ATOM     14  C   UNL     1       0.265  14.424  20.693  0.00  0.00    +0.000 A 
ATOM     15  C   UNL     1       0.739  14.629  21.999  0.00  0.00    +0.000 A 
ATOM     16  C   UNL     1       0.573  15.863  22.628  0.00  0.00    +0.000 A 
ATOM     17  C   UNL     1      -0.122  16.883  21.983  0.00  0.00    +0.000 A 
ATOM     18  C   UNL     1      -0.644  16.673  20.707  0.00  0.00    +0.000 A 
ATOM     19  C   UNL     1      -0.444  15.452  20.058  0.00  0.00    +0.000 A 
ENDBRANCH   4  14
BRANCH   5  20
ATOM     20  C   UNL     1      -1.608  12.268  21.048  0.00  0.00    +0.000 A 
ATOM     21  C   UNL     1      -2.820  12.745  20.536  0.00  0.00    +0.000 A 
ATOM     22  C   UNL     1      -3.931  12.886  21.372  0.00  0.00    +0.000 A 
ATOM     23  C   UNL     1      -3.831  12.550  22.724  0.00  0.00    +0.000 A 
ATOM     24  C   UNL     1      -2.630  12.068  23.237  0.00  0.00    +0.000 A 
ATOM     25  C   UNL     1      -1.520  11.921  22.405  0.00  0.00    +0.000 A 
ENDBRANCH   5  20
BRANCH   1  26
ATOM     26  C   UNL     1       1.097   9.483  17.904  0.00  0.00    +0.000 C 
BRANCH  26  27
ATOM     27  C   UNL     1       2.403   8.837  18.372  0.00  0.00    +0.000 C 
BRANCH  27  28
ATOM     28  C   UNL     1       2.151   7.694  19.359  0.00  0.00    +0.000 C 
BRANCH  28  29
ATOM     29  C   UNL     1       2.570   6.347  18.764  0.00  0.00    +0.000 C 
BRANCH  29  30
ATOM     30  C   UNL     1       3.666   6.507  17.708  0.00  0.00    +0.000 C 
BRANCH  30  31
ATOM     31  C   UNL     1       4.990   5.908  18.186  0.00  0.00    +0.000 C 
BRANCH  31  32
ATOM     32  C   UNL     1       6.063   5.976  17.100  0.00  0.00    +0.000 C 
BRANCH  32  34
ATOM     33  O   UNL     1       7.842   4.510  16.324  0.00  0.00    +0.000 OA
ATOM     34  C   UNL     1       7.035   4.821  17.187  0.00  0.00    +0.000 C 
BRANCH  34  35
ATOM     35  O   UNL     1       6.929   4.146  18.354  0.00  0.00    +0.000 OA
ATOM     36  H   UNL     1       7.789   3.930  18.760  0.00  0.00    +0.000 HD
ENDBRANCH  34  35
ENDBRANCH  32  34
ENDBRANCH  31  32
ENDBRANCH  30  31
ENDBRANCH  29  30
ENDBRANCH  28  29
ENDBRANCH  27  28
ENDBRANCH  26  27
ENDBRANCH   1  26
TORSDOF 12
ENDMDL
