MODEL 1
REMARK VINA RESULT:      -8.8      0.000      0.000
REMARK  Name = 
REMARK  7 active torsions:
REMARK  status: ('A' for Active; 'I' for Inactive)
REMARK    1  A    between atoms: C_1  and  O_2
REMARK    2  A    between atoms: O_2  and  C_3
REMARK    3  A    between atoms: C_10  and  C_11
REMARK    4  A    between atoms: N_22  and  C_23
REMARK    5  A    between atoms: C_23  and  C_24
REMARK    6  A    between atoms: C_23  and  C_25
REMARK    7  A    between atoms: C_23  and  C_26
REMARK                            x       y       z     vdW  Elec       q    Type
REMARK                         _______ _______ _______ _____ _____    ______ ____
ROOT
ATOM      1  C   UNL     1       2.089   7.258  19.446  0.00  0.00    +0.000 C 
ATOM      2  O   UNL     1       1.600   6.847  20.507  0.00  0.00    +0.000 OA
ATOM      3  N   UNL     1       1.834   8.574  19.016  0.00  0.00    +0.000 N 
ATOM      4  C   UNL     1       1.267   9.404  20.057  0.00  0.00    +0.000 C 
ATOM      5  C   UNL     1       1.158  10.854  19.621  0.00  0.00    +0.000 C 
ATOM      6  C   UNL     1      -0.026  10.956  18.643  0.00  0.00    +0.000 C 
ATOM      7  C   UNL     1       0.207   9.855  17.526  0.00  0.00    +0.000 C 
ATOM      8  C   UNL     1       1.548   9.022  17.641  0.00  0.00    +0.000 C 
ATOM      9  C   UNL     1      -1.382  10.742  19.448  0.00  0.00    +0.000 C 
ATOM     10  C   UNL     1      -1.579  11.895  20.390  0.00  0.00    +0.000 A 
ATOM     11  C   UNL     1      -2.054  11.990  21.675  0.00  0.00    +0.000 A 
ATOM     12  N   UNL     1      -1.989  13.322  22.018  0.00  0.00    +0.000 N 
ATOM     13  N   UNL     1      -1.407  14.062  21.035  0.00  0.00    +0.000 NA
ATOM     14  C   UNL     1      -1.164  13.196  20.032  0.00  0.00    +0.000 A 
ATOM     15  C   UNL     1      -0.481  13.471  18.765  0.00  0.00    +0.000 C 
ATOM     16  O   UNL     1      -0.272  14.597  18.301  0.00  0.00    +0.000 OA
ATOM     17  N   UNL     1      -0.078  12.336  18.055  0.00  0.00    +0.000 N 
ATOM     18  H   UNL     1       0.410  12.556  17.198  0.00  0.00    +0.000 HD
ENDROOT
BRANCH   1  26
ATOM     19  C   UNL     1       6.334   6.611  16.902  0.00  0.00    +0.000 A 
ATOM     20  N   UNL     1       7.214   5.863  16.194  0.00  0.00    +0.000 NA
ATOM     21  C   UNL     1       6.875   4.582  15.971  0.00  0.00    +0.000 A 
ATOM     22  C   UNL     1       5.699   4.008  16.423  0.00  0.00    +0.000 A 
ATOM     23  C   UNL     1       4.812   4.776  17.193  0.00  0.00    +0.000 A 
ATOM     24  C   UNL     1       3.600   4.243  17.676  0.00  0.00    +0.000 A 
ATOM     25  C   UNL     1       2.715   5.006  18.456  0.00  0.00    +0.000 A 
ATOM     26  C   UNL     1       3.034   6.324  18.772  0.00  0.00    +0.000 A 
ATOM     27  C   UNL     1       4.225   6.876  18.247  0.00  0.00    +0.000 A 
ATOM     28  C   UNL     1       5.135   6.119  17.466  0.00  0.00    +0.000 A 
BRANCH  19  30
ATOM     29  C   UNL     1       7.882   8.130  17.747  0.00  0.00    +0.000 C 
ATOM     30  O   UNL     1       6.635   7.952  17.074  0.00  0.00    +0.000 OA
ENDBRANCH  19  30
ENDBRANCH   1  26
BRANCH  12  31
ATOM     31  C   UNL     1      -2.431  13.949  23.286  0.00  0.00    +0.000 C 
ATOM     32  C   UNL     1      -1.220  14.466  24.088  0.00  0.00    +0.000 C 
ATOM     33  C   UNL     1      -3.385  15.133  23.014  0.00  0.00    +0.000 C 
ATOM     34  C   UNL     1      -3.199  12.945  24.177  0.00  0.00    +0.000 C 
ENDBRANCH  12  31
TORSDOF 3
ENDMDL
MODEL 2
REMARK VINA RESULT:      -8.4      2.446      3.464
REMARK  Name = 
REMARK  7 active torsions:
REMARK  status: ('A' for Active; 'I' for Inactive)
REMARK    1  A    between atoms: C_1  and  O_2
REMARK    2  A    between atoms: O_2  and  C_3
REMARK    3  A    between atoms: C_10  and  C_11
REMARK    4  A    between atoms: N_22  and  C_23
REMARK    5  A    between atoms: C_23  and  C_24
REMARK    6  A    between atoms: C_23  and  C_25
REMARK    7  A    between atoms: C_23  and  C_26
REMARK                            x       y       z     vdW  Elec       q    Type
REMARK                         _______ _______ _______ _____ _____    ______ ____
ROOT
ATOM      1  C   UNL     1       1.271   8.820  20.514  0.00  0.00    +0.000 C 
ATOM      2  O   UNL     1       1.160   8.579  21.723  0.00  0.00    +0.000 OA
ATOM      3  N   UNL     1       0.959  10.101  20.019  0.00  0.00    +0.000 N 
ATOM      4  C   UNL     1       0.840  11.092  21.067  0.00  0.00    +0.000 C 
ATOM      5  C   UNL     1       0.669  12.490  20.500  0.00  0.00    +0.000 C 
ATOM      6  C   UNL     1      -0.774  12.605  19.976  0.00  0.00    +0.000 C 
ATOM      7  C   UNL     1      -1.009  11.371  19.008  0.00  0.00    +0.000 C 
ATOM      8  C   UNL     1       0.238  10.425  18.775  0.00  0.00    +0.000 C 
ATOM      9  C   UNL     1      -1.774  12.618  21.214  0.00  0.00    +0.000 C 
ATOM     10  C   UNL     1      -1.562  13.880  22.000  0.00  0.00    +0.000 A 
ATOM     11  C   UNL     1      -1.554  14.161  23.344  0.00  0.00    +0.000 A 
ATOM     12  N   UNL     1      -1.296  15.509  23.459  0.00  0.00    +0.000 N 
ATOM     13  N   UNL     1      -1.052  16.076  22.246  0.00  0.00    +0.000 NA
ATOM     14  C   UNL     1      -1.224  15.086  21.348  0.00  0.00    +0.000 A 
ATOM     15  C   UNL     1      -1.011  15.151  19.899  0.00  0.00    +0.000 C 
ATOM     16  O   UNL     1      -0.912  16.194  19.244  0.00  0.00    +0.000 OA
ATOM     17  N   UNL     1      -0.947  13.911  19.258  0.00  0.00    +0.000 N 
ATOM     18  H   UNL     1      -0.776  13.986  18.264  0.00  0.00    +0.000 HD
ENDROOT
BRANCH   1  26
ATOM     19  C   UNL     1       2.870   4.099  20.241  0.00  0.00    +0.000 A 
ATOM     20  N   UNL     1       3.481   3.067  19.611  0.00  0.00    +0.000 NA
ATOM     21  C   UNL     1       3.991   3.319  18.394  0.00  0.00    +0.000 A 
ATOM     22  C   UNL     1       3.920   4.554  17.772  0.00  0.00    +0.000 A 
ATOM     23  C   UNL     1       3.248   5.608  18.411  0.00  0.00    +0.000 A 
ATOM     24  C   UNL     1       3.148   6.885  17.823  0.00  0.00    +0.000 A 
ATOM     25  C   UNL     1       2.467   7.939  18.456  0.00  0.00    +0.000 A 
ATOM     26  C   UNL     1       1.866   7.727  19.694  0.00  0.00    +0.000 A 
ATOM     27  C   UNL     1       2.008   6.461  20.307  0.00  0.00    +0.000 A 
ATOM     28  C   UNL     1       2.684   5.383  19.680  0.00  0.00    +0.000 A 
BRANCH  19  30
ATOM     29  C   UNL     1       1.618   2.687  21.603  0.00  0.00    +0.000 C 
ATOM     30  O   UNL     1       2.408   3.874  21.527  0.00  0.00    +0.000 OA
ENDBRANCH  19  30
ENDBRANCH   1  26
BRANCH  12  31
ATOM     31  C   UNL     1      -1.231  16.312  24.703  0.00  0.00    +0.000 C 
ATOM     32  C   UNL     1       0.156  16.965  24.857  0.00  0.00    +0.000 C 
ATOM     33  C   UNL     1      -2.303  17.424  24.700  0.00  0.00    +0.000 C 
ATOM     34  C   UNL     1      -1.488  15.440  25.954  0.00  0.00    +0.000 C 
ENDBRANCH  12  31
TORSDOF 3
ENDMDL
MODEL 3
REMARK VINA RESULT:      -8.3      2.575      4.029
REMARK  Name = 
REMARK  7 active torsions:
REMARK  status: ('A' for Active; 'I' for Inactive)
REMARK    1  A    between atoms: C_1  and  O_2
REMARK    2  A    between atoms: O_2  and  C_3
REMARK    3  A    between atoms: C_10  and  C_11
REMARK    4  A    between atoms: N_22  and  C_23
REMARK    5  A    between atoms: C_23  and  C_24
REMARK    6  A    between atoms: C_23  and  C_25
REMARK    7  A    between atoms: C_23  and  C_26
REMARK                            x       y       z     vdW  Elec       q    Type
REMARK                         _______ _______ _______ _____ _____    ______ ____
ROOT
ATOM      1  C   UNL     1       2.362   8.381  18.309  0.00  0.00    +0.000 C 
ATOM      2  O   UNL     1       2.788   9.287  17.580  0.00  0.00    +0.000 OA
ATOM      3  N   UNL     1       1.439   8.673  19.331  0.00  0.00    +0.000 N 
ATOM      4  C   UNL     1       0.852   9.989  19.195  0.00  0.00    +0.000 C 
ATOM      5  C   UNL     1      -0.258  10.215  20.207  0.00  0.00    +0.000 C 
ATOM      6  C   UNL     1       0.405  10.451  21.576  0.00  0.00    +0.000 C 
ATOM      7  C   UNL     1       1.402   9.242  21.817  0.00  0.00    +0.000 C 
ATOM      8  C   UNL     1       1.419   8.124  20.698  0.00  0.00    +0.000 C 
ATOM      9  C   UNL     1       1.138  11.864  21.558  0.00  0.00    +0.000 C 
ATOM     10  C   UNL     1       0.106  12.950  21.452  0.00  0.00    +0.000 A 
ATOM     11  C   UNL     1       0.060  14.140  20.769  0.00  0.00    +0.000 A 
ATOM     12  N   UNL     1      -1.161  14.709  21.058  0.00  0.00    +0.000 N 
ATOM     13  N   UNL     1      -1.925  13.885  21.826  0.00  0.00    +0.000 NA
ATOM     14  C   UNL     1      -1.151  12.811  22.078  0.00  0.00    +0.000 A 
ATOM     15  C   UNL     1      -1.526  11.595  22.805  0.00  0.00    +0.000 C 
ATOM     16  O   UNL     1      -2.515  11.483  23.538  0.00  0.00    +0.000 OA
ATOM     17  N   UNL     1      -0.649  10.519  22.642  0.00  0.00    +0.000 N 
ATOM     18  H   UNL     1      -0.945   9.687  23.136  0.00  0.00    +0.000 HD
ENDROOT
BRANCH   1  26
ATOM     19  C   UNL     1       1.958   3.460  19.041  0.00  0.00    +0.000 A 
ATOM     20  N   UNL     1       2.337   2.175  18.837  0.00  0.00    +0.000 NA
ATOM     21  C   UNL     1       3.391   1.976  18.029  0.00  0.00    +0.000 A 
ATOM     22  C   UNL     1       4.088   3.001  17.410  0.00  0.00    +0.000 A 
ATOM     23  C   UNL     1       3.665   4.326  17.590  0.00  0.00    +0.000 A 
ATOM     24  C   UNL     1       4.340   5.406  16.985  0.00  0.00    +0.000 A 
ATOM     25  C   UNL     1       3.912   6.734  17.155  0.00  0.00    +0.000 A 
ATOM     26  C   UNL     1       2.790   7.003  17.935  0.00  0.00    +0.000 A 
ATOM     27  C   UNL     1       2.142   5.926  18.583  0.00  0.00    +0.000 A 
ATOM     28  C   UNL     1       2.553   4.579  18.415  0.00  0.00    +0.000 A 
BRANCH  19  30
ATOM     29  C   UNL     1       1.136   3.006  21.171  0.00  0.00    +0.000 C 
ATOM     30  O   UNL     1       0.921   3.683  19.931  0.00  0.00    +0.000 OA
ENDBRANCH  19  30
ENDBRANCH   1  26
BRANCH  12  31
ATOM     31  C   UNL     1      -1.674  16.022  20.603  0.00  0.00    +0.000 C 
ATOM     32  C   UNL     1      -1.137  16.358  19.197  0.00  0.00    +0.000 C 
ATOM     33  C   UNL     1      -3.218  16.026  20.555  0.00  0.00    +0.000 C 
ATOM     34  C   UNL     1      -1.248  17.159  21.559  0.00  0.00    +0.000 C 
ENDBRANCH  12  31
TORSDOF 3
ENDMDL
MODEL 4
REMARK VINA RESULT:      -8.2      2.479      3.959
REMARK  Name = 
REMARK  7 active torsions:
REMARK  status: ('A' for Active; 'I' for Inactive)
REMARK    1  A    between atoms: C_1  and  O_2
REMARK    2  A    between atoms: O_2  and  C_3
REMARK    3  A    between atoms: C_10  and  C_11
REMARK    4  A    between atoms: N_22  and  C_23
REMARK    5  A    between atoms: C_23  and  C_24
REMARK    6  A    between atoms: C_23  and  C_25
REMARK    7  A    between atoms: C_23  and  C_26
REMARK                            x       y       z     vdW  Elec       q    Type
REMARK                         _______ _______ _______ _____ _____    ______ ____
ROOT
ATOM      1  C   UNL     1       2.018   9.073  18.366  0.00  0.00    +0.000 C 
ATOM      2  O   UNL     1       2.325  10.031  17.644  0.00  0.00    +0.000 OA
ATOM      3  N   UNL     1       1.094   9.247  19.413  0.00  0.00    +0.000 N 
ATOM      4  C   UNL     1       0.363  10.493  19.313  0.00  0.00    +0.000 C 
ATOM      5  C   UNL     1      -0.740  10.581  20.353  0.00  0.00    +0.000 C 
ATOM      6  C   UNL     1      -0.074  10.868  21.711  0.00  0.00    +0.000 C 
ATOM      7  C   UNL     1       1.054   9.772  21.909  0.00  0.00    +0.000 C 
ATOM      8  C   UNL     1       1.166   8.679  20.771  0.00  0.00    +0.000 C 
ATOM      9  C   UNL     1       0.500  12.353  21.702  0.00  0.00    +0.000 C 
ATOM     10  C   UNL     1      -0.646  13.321  21.637  0.00  0.00    +0.000 A 
ATOM     11  C   UNL     1      -0.838  14.509  20.976  0.00  0.00    +0.000 A 
ATOM     12  N   UNL     1      -2.106  14.936  21.302  0.00  0.00    +0.000 N 
ATOM     13  N   UNL     1      -2.758  14.022  22.072  0.00  0.00    +0.000 NA
ATOM     14  C   UNL     1      -1.865  13.037  22.289  0.00  0.00    +0.000 A 
ATOM     15  C   UNL     1      -2.088  11.776  23.003  0.00  0.00    +0.000 C 
ATOM     16  O   UNL     1      -3.041  11.546  23.755  0.00  0.00    +0.000 OA
ATOM     17  N   UNL     1      -1.104  10.804  22.801  0.00  0.00    +0.000 N 
ATOM     18  H   UNL     1      -1.295   9.938  23.287  0.00  0.00    +0.000 HD
ENDROOT
BRANCH   1  26
ATOM     19  C   UNL     1       2.085   4.115  18.941  0.00  0.00    +0.000 A 
ATOM     20  N   UNL     1       2.590   2.880  18.706  0.00  0.00    +0.000 NA
ATOM     21  C   UNL     1       3.672   2.810  17.912  0.00  0.00    +0.000 A 
ATOM     22  C   UNL     1       4.275   3.917  17.338  0.00  0.00    +0.000 A 
ATOM     23  C   UNL     1       3.722   5.189  17.550  0.00  0.00    +0.000 A 
ATOM     24  C   UNL     1       4.298   6.348  16.992  0.00  0.00    +0.000 A 
ATOM     25  C   UNL     1       3.739   7.622  17.193  0.00  0.00    +0.000 A 
ATOM     26  C   UNL     1       2.585   7.756  17.959  0.00  0.00    +0.000 A 
ATOM     27  C   UNL     1       2.034   6.600  18.561  0.00  0.00    +0.000 A 
ATOM     28  C   UNL     1       2.578   5.306  18.362  0.00  0.00    +0.000 A 
BRANCH  19  30
ATOM     29  C   UNL     1       1.123   3.259  20.881  0.00  0.00    +0.000 C 
ATOM     30  O   UNL     1       1.017   4.207  19.818  0.00  0.00    +0.000 OA
ENDBRANCH  19  30
ENDBRANCH   1  26
BRANCH  12  31
ATOM     31  C   UNL     1      -2.770  16.192  20.881  0.00  0.00    +0.000 C 
ATOM     32  C   UNL     1      -2.852  17.184  22.058  0.00  0.00    +0.000 C 
ATOM     33  C   UNL     1      -2.000  16.864  19.722  0.00  0.00    +0.000 C 
ATOM     34  C   UNL     1      -4.208  15.931  20.377  0.00  0.00    +0.000 C 
ENDBRANCH  12  31
TORSDOF 3
ENDMDL
MODEL 5
REMARK VINA RESULT:      -8.2      2.337      3.327
REMARK  Name = 
REMARK  7 active torsions:
REMARK  status: ('A' for Active; 'I' for Inactive)
REMARK    1  A    between atoms: C_1  and  O_2
REMARK    2  A    between atoms: O_2  and  C_3
REMARK    3  A    between atoms: C_10  and  C_11
REMARK    4  A    between atoms: N_22  and  C_23
REMARK    5  A    between atoms: C_23  and  C_24
REMARK    6  A    between atoms: C_23  and  C_25
REMARK    7  A    between atoms: C_23  and  C_26
REMARK                            x       y       z     vdW  Elec       q    Type
REMARK                         _______ _______ _______ _____ _____    ______ ____
ROOT
ATOM      1  C   UNL     1       1.522   8.193  20.019  0.00  0.00    +0.000 C 
ATOM      2  O   UNL     1       1.322   8.001  21.225  0.00  0.00    +0.000 OA
ATOM      3  N   UNL     1       1.286   9.463  19.459  0.00  0.00    +0.000 N 
ATOM      4  C   UNL     1       1.130  10.497  20.461  0.00  0.00    +0.000 C 
ATOM      5  C   UNL     1       1.044  11.877  19.834  0.00  0.00    +0.000 C 
ATOM      6  C   UNL     1      -0.356  12.016  19.209  0.00  0.00    +0.000 C 
ATOM      7  C   UNL     1      -0.567  10.755  18.272  0.00  0.00    +0.000 C 
ATOM      8  C   UNL     1       0.660   9.762  18.158  0.00  0.00    +0.000 C 
ATOM      9  C   UNL     1      -1.436  12.107  20.376  0.00  0.00    +0.000 C 
ATOM     10  C   UNL     1      -1.236  13.390  21.129  0.00  0.00    +0.000 A 
ATOM     11  C   UNL     1      -1.307  13.722  22.460  0.00  0.00    +0.000 A 
ATOM     12  N   UNL     1      -1.013  15.064  22.544  0.00  0.00    +0.000 N 
ATOM     13  N   UNL     1      -0.670  15.577  21.331  0.00  0.00    +0.000 NA
ATOM     14  C   UNL     1      -0.815  14.560  20.459  0.00  0.00    +0.000 A 
ATOM     15  C   UNL     1      -0.503  14.564  19.027  0.00  0.00    +0.000 C 
ATOM     16  O   UNL     1      -0.327  15.578  18.342  0.00  0.00    +0.000 OA
ATOM     17  N   UNL     1      -0.439  13.299  18.435  0.00  0.00    +0.000 N 
ATOM     18  H   UNL     1      -0.200  13.332  17.453  0.00  0.00    +0.000 HD
ENDROOT
BRANCH   1  26
ATOM     19  C   UNL     1       2.076   3.257  19.525  0.00  0.00    +0.000 A 
ATOM     20  N   UNL     1       2.644   2.156  18.977  0.00  0.00    +0.000 NA
ATOM     21  C   UNL     1       3.609   2.364  18.066  0.00  0.00    +0.000 A 
ATOM     22  C   UNL     1       4.035   3.621  17.671  0.00  0.00    +0.000 A 
ATOM     23  C   UNL     1       3.413   4.758  18.209  0.00  0.00    +0.000 A 
ATOM     24  C   UNL     1       3.808   6.060  17.844  0.00  0.00    +0.000 A 
ATOM     25  C   UNL     1       3.180   7.200  18.373  0.00  0.00    +0.000 A 
ATOM     26  C   UNL     1       2.134   7.053  19.280  0.00  0.00    +0.000 A 
ATOM     27  C   UNL     1       1.769   5.748  19.686  0.00  0.00    +0.000 A 
ATOM     28  C   UNL     1       2.385   4.586  19.155  0.00  0.00    +0.000 A 
BRANCH  19  30
ATOM     29  C   UNL     1       1.745   2.693  21.759  0.00  0.00    +0.000 C 
ATOM     30  O   UNL     1       1.134   3.057  20.520  0.00  0.00    +0.000 OA
ENDBRANCH  19  30
ENDBRANCH   1  26
BRANCH  12  31
ATOM     31  C   UNL     1      -1.005  15.911  23.760  0.00  0.00    +0.000 C 
ATOM     32  C   UNL     1      -1.319  15.067  25.012  0.00  0.00    +0.000 C 
ATOM     33  C   UNL     1       0.370  16.588  23.954  0.00  0.00    +0.000 C 
ATOM     34  C   UNL     1      -2.058  17.040  23.672  0.00  0.00    +0.000 C 
ENDBRANCH  12  31
TORSDOF 3
ENDMDL
MODEL 6
REMARK VINA RESULT:      -8.1      2.138      3.035
REMARK  Name = 
REMARK  7 active torsions:
REMARK  status: ('A' for Active; 'I' for Inactive)
REMARK    1  A    between atoms: C_1  and  O_2
REMARK    2  A    between atoms: O_2  and  C_3
REMARK    3  A    between atoms: C_10  and  C_11
REMARK    4  A    between atoms: N_22  and  C_23
REMARK    5  A    between atoms: C_23  and  C_24
REMARK    6  A    between atoms: C_23  and  C_25
REMARK    7  A    between atoms: C_23  and  C_26
REMARK                            x       y       z     vdW  Elec       q    Type
REMARK                         _______ _______ _______ _____ _____    ______ ____
ROOT
ATOM      1  C   UNL     1       2.036   8.827  18.648  0.00  0.00    +0.000 C 
ATOM      2  O   UNL     1       2.409   9.746  17.907  0.00  0.00    +0.000 OA
ATOM      3  N   UNL     1       1.079   9.075  19.650  0.00  0.00    +0.000 N 
ATOM      4  C   UNL     1       0.405  10.344  19.479  0.00  0.00    +0.000 C 
ATOM      5  C   UNL     1      -0.733  10.513  20.471  0.00  0.00    +0.000 C 
ATOM      6  C   UNL     1      -0.109  10.822  21.844  0.00  0.00    +0.000 C 
ATOM      7  C   UNL     1       0.965   9.690  22.124  0.00  0.00    +0.000 C 
ATOM      8  C   UNL     1       1.077   8.553  21.029  0.00  0.00    +0.000 C 
ATOM      9  C   UNL     1       0.525  12.281  21.807  0.00  0.00    +0.000 C 
ATOM     10  C   UNL     1      -0.577  13.290  21.664  0.00  0.00    +0.000 A 
ATOM     11  C   UNL     1      -0.695  14.461  20.955  0.00  0.00    +0.000 A 
ATOM     12  N   UNL     1      -1.956  14.949  21.216  0.00  0.00    +0.000 N 
ATOM     13  N   UNL     1      -2.674  14.090  21.990  0.00  0.00    +0.000 NA
ATOM     14  C   UNL     1      -1.831  13.078  22.276  0.00  0.00    +0.000 A 
ATOM     15  C   UNL     1      -2.132  11.853  23.022  0.00  0.00    +0.000 C 
ATOM     16  O   UNL     1      -3.123  11.688  23.743  0.00  0.00    +0.000 OA
ATOM     17  N   UNL     1      -1.182  10.837  22.894  0.00  0.00    +0.000 N 
ATOM     18  H   UNL     1      -1.427   9.997  23.400  0.00  0.00    +0.000 HD
ENDROOT
BRANCH   1  26
ATOM     19  C   UNL     1       5.691   6.065  16.666  0.00  0.00    +0.000 A 
ATOM     20  N   UNL     1       6.223   4.894  16.241  0.00  0.00    +0.000 NA
ATOM     21  C   UNL     1       5.441   3.806  16.336  0.00  0.00    +0.000 A 
ATOM     22  C   UNL     1       4.151   3.829  16.838  0.00  0.00    +0.000 A 
ATOM     23  C   UNL     1       3.621   5.036  17.317  0.00  0.00    +0.000 A 
ATOM     24  C   UNL     1       2.313   5.116  17.836  0.00  0.00    +0.000 A 
ATOM     25  C   UNL     1       1.783   6.322  18.326  0.00  0.00    +0.000 A 
ATOM     26  C   UNL     1       2.563   7.475  18.309  0.00  0.00    +0.000 A 
ATOM     27  C   UNL     1       3.858   7.408  17.743  0.00  0.00    +0.000 A 
ATOM     28  C   UNL     1       4.412   6.199  17.252  0.00  0.00    +0.000 A 
BRANCH  19  30
ATOM     29  C   UNL     1       7.469   7.311  17.505  0.00  0.00    +0.000 C 
ATOM     30  O   UNL     1       6.458   7.207  16.502  0.00  0.00    +0.000 OA
ENDBRANCH  19  30
ENDBRANCH   1  26
BRANCH  12  31
ATOM     31  C   UNL     1      -2.552  16.215  20.726  0.00  0.00    +0.000 C 
ATOM     32  C   UNL     1      -4.033  16.009  20.352  0.00  0.00    +0.000 C 
ATOM     33  C   UNL     1      -2.463  17.320  21.801  0.00  0.00    +0.000 C 
ATOM     34  C   UNL     1      -1.813  16.741  19.474  0.00  0.00    +0.000 C 
ENDBRANCH  12  31
TORSDOF 3
ENDMDL
MODEL 7
REMARK VINA RESULT:      -8.1      2.578      3.909
REMARK  Name = 
REMARK  7 active torsions:
REMARK  status: ('A' for Active; 'I' for Inactive)
REMARK    1  A    between atoms: C_1  and  O_2
REMARK    2  A    between atoms: O_2  and  C_3
REMARK    3  A    between atoms: C_10  and  C_11
REMARK    4  A    between atoms: N_22  and  C_23
REMARK    5  A    between atoms: C_23  and  C_24
REMARK    6  A    between atoms: C_23  and  C_25
REMARK    7  A    between atoms: C_23  and  C_26
REMARK                            x       y       z     vdW  Elec       q    Type
REMARK                         _______ _______ _______ _____ _____    ______ ____
ROOT
ATOM      1  C   UNL     1       1.153   9.312  20.716  0.00  0.00    +0.000 C 
ATOM      2  O   UNL     1       1.306   9.098  21.926  0.00  0.00    +0.000 OA
ATOM      3  N   UNL     1       0.653  10.553  20.278  0.00  0.00    +0.000 N 
ATOM      4  C   UNL     1       0.673  11.563  21.316  0.00  0.00    +0.000 C 
ATOM      5  C   UNL     1       0.288  12.928  20.776  0.00  0.00    +0.000 C 
ATOM      6  C   UNL     1      -1.235  12.927  20.554  0.00  0.00    +0.000 C 
ATOM      7  C   UNL     1      -1.567  11.653  19.670  0.00  0.00    +0.000 C 
ATOM      8  C   UNL     1      -0.325  10.790  19.202  0.00  0.00    +0.000 C 
ATOM      9  C   UNL     1      -1.964  12.904  21.969  0.00  0.00    +0.000 C 
ATOM     10  C   UNL     1      -1.694  14.200  22.679  0.00  0.00    +0.000 A 
ATOM     11  C   UNL     1      -1.436  14.518  23.989  0.00  0.00    +0.000 A 
ATOM     12  N   UNL     1      -1.261  15.884  24.032  0.00  0.00    +0.000 N 
ATOM     13  N   UNL     1      -1.309  16.432  22.787  0.00  0.00    +0.000 NA
ATOM     14  C   UNL     1      -1.584  15.407  21.956  0.00  0.00    +0.000 A 
ATOM     15  C   UNL     1      -1.672  15.447  20.493  0.00  0.00    +0.000 C 
ATOM     16  O   UNL     1      -1.786  16.475  19.817  0.00  0.00    +0.000 OA
ATOM     17  N   UNL     1      -1.647  14.197  19.869  0.00  0.00    +0.000 N 
ATOM     18  H   UNL     1      -1.686  14.256  18.860  0.00  0.00    +0.000 HD
ENDROOT
BRANCH   1  26
ATOM     19  C   UNL     1       2.586   4.568  20.122  0.00  0.00    +0.000 A 
ATOM     20  N   UNL     1       3.116   3.549  19.403  0.00  0.00    +0.000 NA
ATOM     21  C   UNL     1       3.538   3.840  18.162  0.00  0.00    +0.000 A 
ATOM     22  C   UNL     1       3.456   5.103  17.599  0.00  0.00    +0.000 A 
ATOM     23  C   UNL     1       2.867   6.145  18.332  0.00  0.00    +0.000 A 
ATOM     24  C   UNL     1       2.761   7.449  17.808  0.00  0.00    +0.000 A 
ATOM     25  C   UNL     1       2.161   8.492  18.536  0.00  0.00    +0.000 A 
ATOM     26  C   UNL     1       1.651   8.242  19.807  0.00  0.00    +0.000 A 
ATOM     27  C   UNL     1       1.802   6.946  20.354  0.00  0.00    +0.000 A 
ATOM     28  C   UNL     1       2.395   5.879  19.631  0.00  0.00    +0.000 A 
BRANCH  19  30
ATOM     29  C   UNL     1       2.057   2.897  21.654  0.00  0.00    +0.000 C 
ATOM     30  O   UNL     1       2.217   4.298  21.429  0.00  0.00    +0.000 OA
ENDBRANCH  19  30
ENDBRANCH   1  26
BRANCH  12  31
ATOM     31  C   UNL     1      -1.008  16.724  25.226  0.00  0.00    +0.000 C 
ATOM     32  C   UNL     1      -2.170  17.711  25.452  0.00  0.00    +0.000 C 
ATOM     33  C   UNL     1      -0.848  15.852  26.491  0.00  0.00    +0.000 C 
ATOM     34  C   UNL     1       0.293  17.545  25.076  0.00  0.00    +0.000 C 
ENDBRANCH  12  31
TORSDOF 3
ENDMDL
MODEL 8
REMARK VINA RESULT:      -7.8      2.520      4.051
REMARK  Name = 
REMARK  7 active torsions:
REMARK  status: ('A' for Active; 'I' for Inactive)
REMARK    1  A    between atoms: C_1  and  O_2
REMARK    2  A    between atoms: O_2  and  C_3
REMARK    3  A    between atoms: C_10  and  C_11
REMARK    4  A    between atoms: N_22  and  C_23
REMARK    5  A    between atoms: C_23  and  C_24
REMARK    6  A    between atoms: C_23  and  C_25
REMARK    7  A    between atoms: C_23  and  C_26
REMARK                            x       y       z     vdW  Elec       q    Type
REMARK                         _______ _______ _______ _____ _____    ______ ____
ROOT
ATOM      1  C   UNL     1       1.738   9.246  18.699  0.00  0.00    +0.000 C 
ATOM      2  O   UNL     1       1.937  10.181  17.912  0.00  0.00    +0.000 OA
ATOM      3  N   UNL     1       0.821   9.400  19.756  0.00  0.00    +0.000 N 
ATOM      4  C   UNL     1      -0.027  10.562  19.598  0.00  0.00    +0.000 C 
ATOM      5  C   UNL     1      -1.113  10.613  20.658  0.00  0.00    +0.000 C 
ATOM      6  C   UNL     1      -0.451  11.047  21.979  0.00  0.00    +0.000 C 
ATOM      7  C   UNL     1       0.780  10.077  22.215  0.00  0.00    +0.000 C 
ATOM      8  C   UNL     1       0.974   8.928  21.144  0.00  0.00    +0.000 C 
ATOM      9  C   UNL     1      -0.021  12.575  21.863  0.00  0.00    +0.000 C 
ATOM     10  C   UNL     1      -1.256  13.425  21.768  0.00  0.00    +0.000 A 
ATOM     11  C   UNL     1      -1.573  14.546  21.040  0.00  0.00    +0.000 A 
ATOM     12  N   UNL     1      -2.870  14.872  21.371  0.00  0.00    +0.000 N 
ATOM     13  N   UNL     1      -3.416  13.952  22.212  0.00  0.00    +0.000 NA
ATOM     14  C   UNL     1      -2.430  13.070  22.467  0.00  0.00    +0.000 A 
ATOM     15  C   UNL     1      -2.517  11.842  23.262  0.00  0.00    +0.000 C 
ATOM     16  O   UNL     1      -3.429  11.572  24.051  0.00  0.00    +0.000 OA
ATOM     17  N   UNL     1      -1.449  10.956  23.097  0.00  0.00    +0.000 N 
ATOM     18  H   UNL     1      -1.547  10.109  23.639  0.00  0.00    +0.000 HD
ENDROOT
BRANCH   1  26
ATOM     19  C   UNL     1       2.662   4.484  19.873  0.00  0.00    +0.000 A 
ATOM     20  N   UNL     1       3.302   3.302  19.703  0.00  0.00    +0.000 NA
ATOM     21  C   UNL     1       4.225   3.249  18.729  0.00  0.00    +0.000 A 
ATOM     22  C   UNL     1       4.543   4.322  17.913  0.00  0.00    +0.000 A 
ATOM     23  C   UNL     1       3.847   5.531  18.066  0.00  0.00    +0.000 A 
ATOM     24  C   UNL     1       4.131   6.654  17.263  0.00  0.00    +0.000 A 
ATOM     25  C   UNL     1       3.429   7.863  17.407  0.00  0.00    +0.000 A 
ATOM     26  C   UNL     1       2.419   7.965  18.359  0.00  0.00    +0.000 A 
ATOM     27  C   UNL     1       2.166   6.855  19.199  0.00  0.00    +0.000 A 
ATOM     28  C   UNL     1       2.858   5.625  19.063  0.00  0.00    +0.000 A 
BRANCH  19  30
ATOM     29  C   UNL     1       1.438   3.287  21.451  0.00  0.00    +0.000 C 
ATOM     30  O   UNL     1       1.763   4.574  20.923  0.00  0.00    +0.000 OA
ENDBRANCH  19  30
ENDBRANCH   1  26
BRANCH  12  31
ATOM     31  C   UNL     1      -3.658  16.030  20.890  0.00  0.00    +0.000 C 
ATOM     32  C   UNL     1      -2.796  16.940  19.993  0.00  0.00    +0.000 C 
ATOM     33  C   UNL     1      -4.890  15.564  20.082  0.00  0.00    +0.000 C 
ATOM     34  C   UNL     1      -4.186  16.884  22.066  0.00  0.00    +0.000 C 
ENDBRANCH  12  31
TORSDOF 3
ENDMDL
MODEL 9
REMARK VINA RESULT:      -7.6      2.532      3.656
REMARK  Name = 
REMARK  7 active torsions:
REMARK  status: ('A' for Active; 'I' for Inactive)
REMARK    1  A    between atoms: C_1  and  O_2
REMARK    2  A    between atoms: O_2  and  C_3
REMARK    3  A    between atoms: C_10  and  C_11
REMARK    4  A    between atoms: N_22  and  C_23
REMARK    5  A    between atoms: C_23  and  C_24
REMARK    6  A    between atoms: C_23  and  C_25
REMARK    7  A    between atoms: C_23  and  C_26
REMARK                            x       y       z     vdW  Elec       q    Type
REMARK                         _______ _______ _______ _____ _____    ______ ____
ROOT
ATOM      1  C   UNL     1       0.825   9.481  20.162  0.00  0.00    +0.000 C 
ATOM      2  O   UNL     1       0.091   9.055  21.064  0.00  0.00    +0.000 OA
ATOM      3  N   UNL     1       0.988  10.868  19.983  0.00  0.00    +0.000 N 
ATOM      4  C   UNL     1       0.504  11.638  21.109  0.00  0.00    +0.000 C 
ATOM      5  C   UNL     1       0.841  13.112  20.966  0.00  0.00    +0.000 C 
ATOM      6  C   UNL     1      -0.114  13.706  19.914  0.00  0.00    +0.000 C 
ATOM      7  C   UNL     1      -0.007  12.786  18.627  0.00  0.00    +0.000 C 
ATOM      8  C   UNL     1       1.039  11.602  18.706  0.00  0.00    +0.000 C 
ATOM      9  C   UNL     1      -1.585  13.754  20.520  0.00  0.00    +0.000 C 
ATOM     10  C   UNL     1      -1.616  14.741  21.652  0.00  0.00    +0.000 A 
ATOM     11  C   UNL     1      -2.240  14.750  22.875  0.00  0.00    +0.000 A 
ATOM     12  N   UNL     1      -1.884  15.933  23.485  0.00  0.00    +0.000 N 
ATOM     13  N   UNL     1      -0.989  16.632  22.735  0.00  0.00    +0.000 NA
ATOM     14  C   UNL     1      -0.830  15.912  21.607  0.00  0.00    +0.000 A 
ATOM     15  C   UNL     1       0.086  16.190  20.496  0.00  0.00    +0.000 C 
ATOM     16  O   UNL     1       0.646  17.272  20.293  0.00  0.00    +0.000 OA
ATOM     17  N   UNL     1       0.283  15.122  19.616  0.00  0.00    +0.000 N 
ATOM     18  H   UNL     1       0.936  15.335  18.873  0.00  0.00    +0.000 HD
ENDROOT
BRANCH   1  26
ATOM     19  C   UNL     1       2.920   4.950  20.111  0.00  0.00    +0.000 A 
ATOM     20  N   UNL     1       3.677   3.978  19.549  0.00  0.00    +0.000 NA
ATOM     21  C   UNL     1       4.244   4.262  18.364  0.00  0.00    +0.000 A 
ATOM     22  C   UNL     1       4.089   5.473  17.710  0.00  0.00    +0.000 A 
ATOM     23  C   UNL     1       3.269   6.460  18.276  0.00  0.00    +0.000 A 
ATOM     24  C   UNL     1       3.079   7.710  17.654  0.00  0.00    +0.000 A 
ATOM     25  C   UNL     1       2.249   8.697  18.213  0.00  0.00    +0.000 A 
ATOM     26  C   UNL     1       1.587   8.444  19.411  0.00  0.00    +0.000 A 
ATOM     27  C   UNL     1       1.815   7.209  20.062  0.00  0.00    +0.000 A 
ATOM     28  C   UNL     1       2.641   6.198  19.509  0.00  0.00    +0.000 A 
BRANCH  19  30
ATOM     29  C   UNL     1       2.118   3.309  21.555  0.00  0.00    +0.000 C 
ATOM     30  O   UNL     1       2.392   4.698  21.367  0.00  0.00    +0.000 OA
ENDBRANCH  19  30
ENDBRANCH   1  26
BRANCH  12  31
ATOM     31  C   UNL     1      -2.336  16.439  24.803  0.00  0.00    +0.000 C 
ATOM     32  C   UNL     1      -1.950  17.921  24.976  0.00  0.00    +0.000 C 
ATOM     33  C   UNL     1      -3.868  16.307  24.950  0.00  0.00    +0.000 C 
ATOM     34  C   UNL     1      -1.699  15.642  25.964  0.00  0.00    +0.000 C 
ENDBRANCH  12  31
TORSDOF 3
ENDMDL
