MODEL 1
REMARK VINA RESULT:      -9.0      0.000      0.000
REMARK  Name = 
REMARK  8 active torsions:
REMARK  status: ('A' for Active; 'I' for Inactive)
REMARK    1  A    between atoms: C_1  and  C_2
REMARK    2  A    between atoms: C_5  and  C_6
REMARK    3  A    between atoms: C_8  and  C_10
REMARK    4  A    between atoms: C_13  and  C_14
REMARK    5  A    between atoms: C_17  and  C_18
REMARK    6  A    between atoms: C_18  and  N_19
REMARK    7  A    between atoms: C_20  and  C_22
REMARK    8  A    between atoms: C_22  and  C_23
REMARK                            x       y       z     vdW  Elec       q    Type
REMARK                         _______ _______ _______ _____ _____    ______ ____
ROOT
ATOM      1  C   UNL     1       0.932   8.983  20.608  0.00  0.00    +0.000 A 
ATOM      2  C   UNL     1       0.211  10.023  20.004  0.00  0.00    +0.000 A 
ATOM      3  C   UNL     1      -0.582  10.888  20.769  0.00  0.00    +0.000 A 
ATOM      4  C   UNL     1      -0.671  10.738  22.159  0.00  0.00    +0.000 A 
ATOM      5  C   UNL     1       0.044   9.701  22.769  0.00  0.00    +0.000 A 
ATOM      6  C   UNL     1       0.839   8.837  22.001  0.00  0.00    +0.000 A 
ENDROOT
BRANCH   1  10
ATOM      7  C   UNL     1       2.977   6.462  19.083  0.00  0.00    +0.000 A 
ATOM      8  C   UNL     1       2.840   7.398  18.083  0.00  0.00    +0.000 A 
ATOM      9  O   UNL     1       2.079   8.429  18.548  0.00  0.00    +0.000 OA
ATOM     10  C   UNL     1       1.765   8.063  19.835  0.00  0.00    +0.000 A 
ATOM     11  N   UNL     1       2.276   6.904  20.195  0.00  0.00    +0.000 NA
BRANCH   7  19
ATOM     12  C   UNL     1       0.804   3.638  19.773  0.00  0.00    +0.000 C 
ATOM     13  C   UNL     1       2.093   4.004  20.508  0.00  0.00    +0.000 C 
ATOM     14  C   UNL     1       2.484   2.942  21.537  0.00  0.00    +0.000 C 
ATOM     15  C   UNL     1       3.691   2.198  20.966  0.00  0.00    +0.000 C 
ATOM     16  C   UNL     1       3.973   2.816  19.597  0.00  0.00    +0.000 C 
ATOM     17  C   UNL     1       3.532   1.895  18.459  0.00  0.00    +0.000 C 
ATOM     18  N   UNL     1       3.236   4.073  19.605  0.00  0.00    +0.000 N 
ATOM     19  C   UNL     1       3.733   5.210  18.971  0.00  0.00    +0.000 C 
ATOM     20  O   UNL     1       4.806   5.191  18.369  0.00  0.00    +0.000 OA
ENDBRANCH   7  19
ENDBRANCH   1  10
BRANCH   4  21
ATOM     21  C   UNL     1      -1.541  11.666  22.967  0.00  0.00    +0.000 C 
BRANCH  21  22
ATOM     22  N   UNL     1      -2.508  12.354  22.139  0.00  0.00    +0.000 N 
ATOM     23  C   UNL     1      -3.790  12.569  22.600  0.00  0.00    +0.000 C 
ATOM     24  O   UNL     1      -4.188  12.154  23.688  0.00  0.00    +0.000 OA
ATOM     25  H   UNL     1      -2.172  12.890  21.349  0.00  0.00    +0.000 HD
BRANCH  23  26
ATOM     26  C   UNL     1      -4.686  13.344  21.648  0.00  0.00    +0.000 C 
BRANCH  26  27
ATOM     27  C   UNL     1      -5.367  12.479  20.616  0.00  0.00    +0.000 A 
ATOM     28  C   UNL     1      -6.609  11.887  20.888  0.00  0.00    +0.000 A 
ATOM     29  C   UNL     1      -7.246  11.099  19.928  0.00  0.00    +0.000 A 
ATOM     30  C   UNL     1      -6.655  10.900  18.681  0.00  0.00    +0.000 A 
ATOM     31  C   UNL     1      -5.429  11.495  18.392  0.00  0.00    +0.000 A 
ATOM     32  C   UNL     1      -4.789  12.281  19.353  0.00  0.00    +0.000 A 
ENDBRANCH  26  27
ENDBRANCH  23  26
ENDBRANCH  21  22
ENDBRANCH   4  21
TORSDOF 6
ENDMDL
MODEL 2
REMARK VINA RESULT:      -9.0      0.085      1.223
REMARK  Name = 
REMARK  8 active torsions:
REMARK  status: ('A' for Active; 'I' for Inactive)
REMARK    1  A    between atoms: C_1  and  C_2
REMARK    2  A    between atoms: C_5  and  C_6
REMARK    3  A    between atoms: C_8  and  C_10
REMARK    4  A    between atoms: C_13  and  C_14
REMARK    5  A    between atoms: C_17  and  C_18
REMARK    6  A    between atoms: C_18  and  N_19
REMARK    7  A    between atoms: C_20  and  C_22
REMARK    8  A    between atoms: C_22  and  C_23
REMARK                            x       y       z     vdW  Elec       q    Type
REMARK                         _______ _______ _______ _____ _____    ______ ____
ROOT
ATOM      1  C   UNL     1       0.913   8.974  20.641  0.00  0.00    +0.000 A 
ATOM      2  C   UNL     1       0.646   8.755  21.999  0.00  0.00    +0.000 A 
ATOM      3  C   UNL     1      -0.153   9.647  22.728  0.00  0.00    +0.000 A 
ATOM      4  C   UNL     1      -0.709  10.777  22.116  0.00  0.00    +0.000 A 
ATOM      5  C   UNL     1      -0.445  11.002  20.760  0.00  0.00    +0.000 A 
ATOM      6  C   UNL     1       0.354  10.109  20.032  0.00  0.00    +0.000 A 
ENDROOT
BRANCH   1  10
ATOM      7  C   UNL     1       2.962   6.476  19.083  0.00  0.00    +0.000 A 
ATOM      8  C   UNL     1       2.806   7.415  18.089  0.00  0.00    +0.000 A 
ATOM      9  O   UNL     1       2.042   8.438  18.567  0.00  0.00    +0.000 OA
ATOM     10  C   UNL     1       1.745   8.064  19.856  0.00  0.00    +0.000 A 
ATOM     11  N   UNL     1       2.270   6.907  20.205  0.00  0.00    +0.000 NA
BRANCH   7  19
ATOM     12  C   UNL     1       0.810   3.629  19.744  0.00  0.00    +0.000 C 
ATOM     13  C   UNL     1       2.097   3.997  20.482  0.00  0.00    +0.000 C 
ATOM     14  C   UNL     1       2.497   2.926  21.500  0.00  0.00    +0.000 C 
ATOM     15  C   UNL     1       3.709   2.197  20.919  0.00  0.00    +0.000 C 
ATOM     16  C   UNL     1       3.985   2.832  19.557  0.00  0.00    +0.000 C 
ATOM     17  C   UNL     1       3.550   1.920  18.410  0.00  0.00    +0.000 C 
ATOM     18  N   UNL     1       3.238   4.083  19.580  0.00  0.00    +0.000 N 
ATOM     19  C   UNL     1       3.727   5.231  18.957  0.00  0.00    +0.000 C 
ATOM     20  O   UNL     1       4.800   5.226  18.355  0.00  0.00    +0.000 OA
ENDBRANCH   7  19
ENDBRANCH   1  10
BRANCH   4  21
ATOM     21  C   UNL     1      -1.553  11.735  22.916  0.00  0.00    +0.000 C 
BRANCH  21  22
ATOM     22  N   UNL     1      -2.534  12.406  22.090  0.00  0.00    +0.000 N 
ATOM     23  C   UNL     1      -3.817  12.604  22.558  0.00  0.00    +0.000 C 
ATOM     24  O   UNL     1      -4.202  12.188  23.650  0.00  0.00    +0.000 OA
ATOM     25  H   UNL     1      -2.210  12.944  21.297  0.00  0.00    +0.000 HD
BRANCH  23  26
ATOM     26  C   UNL     1      -4.728  13.363  21.609  0.00  0.00    +0.000 C 
BRANCH  26  27
ATOM     27  C   UNL     1      -5.409  12.482  20.588  0.00  0.00    +0.000 A 
ATOM     28  C   UNL     1      -4.820  12.256  19.335  0.00  0.00    +0.000 A 
ATOM     29  C   UNL     1      -5.442  11.429  18.398  0.00  0.00    +0.000 A 
ATOM     30  C   UNL     1      -6.653  10.811  18.704  0.00  0.00    +0.000 A 
ATOM     31  C   UNL     1      -7.241  11.015  19.950  0.00  0.00    +0.000 A 
ATOM     32  C   UNL     1      -6.622  11.844  20.888  0.00  0.00    +0.000 A 
ENDBRANCH  26  27
ENDBRANCH  23  26
ENDBRANCH  21  22
ENDBRANCH   4  21
TORSDOF 6
ENDMDL
MODEL 3
REMARK VINA RESULT:      -8.6      2.627     10.305
REMARK  Name = 
REMARK  8 active torsions:
REMARK  status: ('A' for Active; 'I' for Inactive)
REMARK    1  A    between atoms: C_1  and  C_2
REMARK    2  A    between atoms: C_5  and  C_6
REMARK    3  A    between atoms: C_8  and  C_10
REMARK    4  A    between atoms: C_13  and  C_14
REMARK    5  A    between atoms: C_17  and  C_18
REMARK    6  A    between atoms: C_18  and  N_19
REMARK    7  A    between atoms: C_20  and  C_22
REMARK    8  A    between atoms: C_22  and  C_23
REMARK                            x       y       z     vdW  Elec       q    Type
REMARK                         _______ _______ _______ _____ _____    ______ ____
ROOT
ATOM      1  C   UNL     1       0.776   9.308  20.373  0.00  0.00    +0.000 A 
ATOM      2  C   UNL     1       1.365   8.093  20.748  0.00  0.00    +0.000 A 
ATOM      3  C   UNL     1       2.188   7.388  19.858  0.00  0.00    +0.000 A 
ATOM      4  C   UNL     1       2.445   7.883  18.573  0.00  0.00    +0.000 A 
ATOM      5  C   UNL     1       1.857   9.095  18.192  0.00  0.00    +0.000 A 
ATOM      6  C   UNL     1       1.036   9.800  19.084  0.00  0.00    +0.000 A 
ENDROOT
BRANCH   1  10
ATOM      7  C   UNL     1      -1.467  11.405  22.227  0.00  0.00    +0.000 A 
ATOM      8  C   UNL     1      -0.972  10.553  23.188  0.00  0.00    +0.000 A 
ATOM      9  O   UNL     1      -0.086   9.699  22.603  0.00  0.00    +0.000 OA
ATOM     10  C   UNL     1      -0.089  10.064  21.278  0.00  0.00    +0.000 A 
ATOM     11  N   UNL     1      -0.893  11.072  21.009  0.00  0.00    +0.000 NA
BRANCH   7  19
ATOM     12  C   UNL     1      -0.057  14.607  21.260  0.00  0.00    +0.000 C 
ATOM     13  C   UNL     1      -0.588  14.218  22.639  0.00  0.00    +0.000 C 
ATOM     14  C   UNL     1      -0.598  15.406  23.603  0.00  0.00    +0.000 C 
ATOM     15  C   UNL     1      -2.060  15.818  23.781  0.00  0.00    +0.000 C 
ATOM     16  C   UNL     1      -2.884  14.883  22.898  0.00  0.00    +0.000 C 
ATOM     17  C   UNL     1      -3.388  15.591  21.640  0.00  0.00    +0.000 C 
ATOM     18  N   UNL     1      -1.979  13.784  22.586  0.00  0.00    +0.000 N 
ATOM     19  C   UNL     1      -2.442  12.474  22.467  0.00  0.00    +0.000 C 
ATOM     20  O   UNL     1      -3.633  12.200  22.608  0.00  0.00    +0.000 OA
ENDBRANCH   7  19
ENDBRANCH   1  10
BRANCH   4  21
ATOM     21  C   UNL     1       3.318   7.106  17.622  0.00  0.00    +0.000 C 
BRANCH  21  22
ATOM     22  N   UNL     1       3.189   5.678  17.819  0.00  0.00    +0.000 N 
ATOM     23  C   UNL     1       4.087   4.812  17.230  0.00  0.00    +0.000 C 
ATOM     24  O   UNL     1       4.990   5.190  16.485  0.00  0.00    +0.000 OA
ATOM     25  H   UNL     1       2.610   5.346  18.580  0.00  0.00    +0.000 HD
BRANCH  23  26
ATOM     26  C   UNL     1       3.864   3.346  17.559  0.00  0.00    +0.000 C 
BRANCH  26  27
ATOM     27  C   UNL     1       2.965   3.122  18.752  0.00  0.00    +0.000 A 
ATOM     28  C   UNL     1       3.502   3.040  20.044  0.00  0.00    +0.000 A 
ATOM     29  C   UNL     1       2.669   2.849  21.149  0.00  0.00    +0.000 A 
ATOM     30  C   UNL     1       1.290   2.748  20.976  0.00  0.00    +0.000 A 
ATOM     31  C   UNL     1       0.742   2.843  19.699  0.00  0.00    +0.000 A 
ATOM     32  C   UNL     1       1.574   3.031  18.593  0.00  0.00    +0.000 A 
ENDBRANCH  26  27
ENDBRANCH  23  26
ENDBRANCH  21  22
ENDBRANCH   4  21
TORSDOF 6
ENDMDL
MODEL 4
REMARK VINA RESULT:      -8.6      0.746      1.167
REMARK  Name = 
REMARK  8 active torsions:
REMARK  status: ('A' for Active; 'I' for Inactive)
REMARK    1  A    between atoms: C_1  and  C_2
REMARK    2  A    between atoms: C_5  and  C_6
REMARK    3  A    between atoms: C_8  and  C_10
REMARK    4  A    between atoms: C_13  and  C_14
REMARK    5  A    between atoms: C_17  and  C_18
REMARK    6  A    between atoms: C_18  and  N_19
REMARK    7  A    between atoms: C_20  and  C_22
REMARK    8  A    between atoms: C_22  and  C_23
REMARK                            x       y       z     vdW  Elec       q    Type
REMARK                         _______ _______ _______ _____ _____    ______ ____
ROOT
ATOM      1  C   UNL     1       0.744   9.241  20.892  0.00  0.00    +0.000 A 
ATOM      2  C   UNL     1       0.458   9.020  22.246  0.00  0.00    +0.000 A 
ATOM      3  C   UNL     1      -0.298   9.943  22.981  0.00  0.00    +0.000 A 
ATOM      4  C   UNL     1      -0.791  11.108  22.380  0.00  0.00    +0.000 A 
ATOM      5  C   UNL     1      -0.507  11.336  21.029  0.00  0.00    +0.000 A 
ATOM      6  C   UNL     1       0.248  10.411  20.294  0.00  0.00    +0.000 A 
ENDROOT
BRANCH   1  10
ATOM      7  C   UNL     1       2.735   6.697  19.335  0.00  0.00    +0.000 A 
ATOM      8  C   UNL     1       2.435   7.540  18.289  0.00  0.00    +0.000 A 
ATOM      9  O   UNL     1       1.678   8.570  18.760  0.00  0.00    +0.000 OA
ATOM     10  C   UNL     1       1.532   8.299  20.100  0.00  0.00    +0.000 A 
ATOM     11  N   UNL     1       2.143   7.197  20.485  0.00  0.00    +0.000 NA
BRANCH   7  19
ATOM     12  C   UNL     1       0.616   3.779  19.752  0.00  0.00    +0.000 C 
ATOM     13  C   UNL     1       1.835   4.156  20.595  0.00  0.00    +0.000 C 
ATOM     14  C   UNL     1       2.187   3.065  21.608  0.00  0.00    +0.000 C 
ATOM     15  C   UNL     1       3.458   2.383  21.099  0.00  0.00    +0.000 C 
ATOM     16  C   UNL     1       3.817   3.066  19.780  0.00  0.00    +0.000 C 
ATOM     17  C   UNL     1       3.491   2.178  18.578  0.00  0.00    +0.000 C 
ATOM     18  N   UNL     1       3.037   4.297  19.782  0.00  0.00    +0.000 N 
ATOM     19  C   UNL     1       3.540   5.475  19.231  0.00  0.00    +0.000 C 
ATOM     20  O   UNL     1       4.654   5.514  18.710  0.00  0.00    +0.000 OA
ENDBRANCH   7  19
ENDBRANCH   1  10
BRANCH   4  21
ATOM     21  C   UNL     1      -1.588  12.100  23.188  0.00  0.00    +0.000 C 
BRANCH  21  22
ATOM     22  N   UNL     1      -2.975  12.137  22.776  0.00  0.00    +0.000 N 
ATOM     23  C   UNL     1      -3.495  13.272  22.190  0.00  0.00    +0.000 C 
ATOM     24  O   UNL     1      -2.843  14.304  22.036  0.00  0.00    +0.000 OA
ATOM     25  H   UNL     1      -3.475  11.262  22.685  0.00  0.00    +0.000 HD
BRANCH  23  26
ATOM     26  C   UNL     1      -4.949  13.157  21.763  0.00  0.00    +0.000 C 
BRANCH  26  27
ATOM     27  C   UNL     1      -5.146  12.368  20.491  0.00  0.00    +0.000 A 
ATOM     28  C   UNL     1      -6.340  11.669  20.262  0.00  0.00    +0.000 A 
ATOM     29  C   UNL     1      -6.529  10.952  19.079  0.00  0.00    +0.000 A 
ATOM     30  C   UNL     1      -5.530  10.932  18.107  0.00  0.00    +0.000 A 
ATOM     31  C   UNL     1      -4.345  11.634  18.315  0.00  0.00    +0.000 A 
ATOM     32  C   UNL     1      -4.154  12.349  19.499  0.00  0.00    +0.000 A 
ENDBRANCH  26  27
ENDBRANCH  23  26
ENDBRANCH  21  22
ENDBRANCH   4  21
TORSDOF 6
ENDMDL
MODEL 5
REMARK VINA RESULT:      -8.6      3.371      4.805
REMARK  Name = 
REMARK  8 active torsions:
REMARK  status: ('A' for Active; 'I' for Inactive)
REMARK    1  A    between atoms: C_1  and  C_2
REMARK    2  A    between atoms: C_5  and  C_6
REMARK    3  A    between atoms: C_8  and  C_10
REMARK    4  A    between atoms: C_13  and  C_14
REMARK    5  A    between atoms: C_17  and  C_18
REMARK    6  A    between atoms: C_18  and  N_19
REMARK    7  A    between atoms: C_20  and  C_22
REMARK    8  A    between atoms: C_22  and  C_23
REMARK                            x       y       z     vdW  Elec       q    Type
REMARK                         _______ _______ _______ _____ _____    ______ ____
ROOT
ATOM      1  C   UNL     1       0.884   9.424  19.291  0.00  0.00    +0.000 A 
ATOM      2  C   UNL     1       0.716   9.987  20.563  0.00  0.00    +0.000 A 
ATOM      3  C   UNL     1      -0.185  11.041  20.770  0.00  0.00    +0.000 A 
ATOM      4  C   UNL     1      -0.943  11.556  19.711  0.00  0.00    +0.000 A 
ATOM      5  C   UNL     1      -0.778  11.000  18.437  0.00  0.00    +0.000 A 
ATOM      6  C   UNL     1       0.122   9.944  18.232  0.00  0.00    +0.000 A 
ENDROOT
BRANCH   1  10
ATOM      7  C   UNL     1       3.080   6.595  19.107  0.00  0.00    +0.000 A 
ATOM      8  C   UNL     1       3.212   7.172  17.865  0.00  0.00    +0.000 A 
ATOM      9  O   UNL     1       2.423   8.282  17.811  0.00  0.00    +0.000 OA
ATOM     10  C   UNL     1       1.817   8.327  19.044  0.00  0.00    +0.000 A 
ATOM     11  N   UNL     1       2.177   7.345  19.846  0.00  0.00    +0.000 NA
BRANCH   7  19
ATOM     12  C   UNL     1       1.020   3.674  18.471  0.00  0.00    +0.000 C 
ATOM     13  C   UNL     1       1.570   4.132  19.822  0.00  0.00    +0.000 C 
ATOM     14  C   UNL     1       1.270   3.122  20.932  0.00  0.00    +0.000 C 
ATOM     15  C   UNL     1       2.592   2.431  21.267  0.00  0.00    +0.000 C 
ATOM     16  C   UNL     1       3.643   3.025  20.330  0.00  0.00    +0.000 C 
ATOM     17  C   UNL     1       4.022   2.049  19.216  0.00  0.00    +0.000 C 
ATOM     18  N   UNL     1       3.024   4.238  19.812  0.00  0.00    +0.000 N 
ATOM     19  C   UNL     1       3.777   5.384  19.555  0.00  0.00    +0.000 C 
ATOM     20  O   UNL     1       4.992   5.407  19.744  0.00  0.00    +0.000 OA
ENDBRANCH   7  19
ENDBRANCH   1  10
BRANCH   4  21
ATOM     21  C   UNL     1      -1.894  12.701  19.945  0.00  0.00    +0.000 C 
BRANCH  21  22
ATOM     22  N   UNL     1      -1.409  13.931  19.358  0.00  0.00    +0.000 N 
ATOM     23  C   UNL     1      -0.681  14.824  20.118  0.00  0.00    +0.000 C 
ATOM     24  O   UNL     1      -0.455  14.653  21.315  0.00  0.00    +0.000 OA
ATOM     25  H   UNL     1      -1.384  14.008  18.349  0.00  0.00    +0.000 HD
BRANCH  23  26
ATOM     26  C   UNL     1      -0.193  16.049  19.364  0.00  0.00    +0.000 C 
BRANCH  26  27
ATOM     27  C   UNL     1       1.160  15.865  18.719  0.00  0.00    +0.000 A 
ATOM     28  C   UNL     1       1.781  14.608  18.711  0.00  0.00    +0.000 A 
ATOM     29  C   UNL     1       3.025  14.434  18.101  0.00  0.00    +0.000 A 
ATOM     30  C   UNL     1       3.658  15.511  17.485  0.00  0.00    +0.000 A 
ATOM     31  C   UNL     1       3.046  16.762  17.473  0.00  0.00    +0.000 A 
ATOM     32  C   UNL     1       1.803  16.938  18.085  0.00  0.00    +0.000 A 
ENDBRANCH  26  27
ENDBRANCH  23  26
ENDBRANCH  21  22
ENDBRANCH   4  21
TORSDOF 6
ENDMDL
MODEL 6
REMARK VINA RESULT:      -8.6      2.581     10.266
REMARK  Name = 
REMARK  8 active torsions:
REMARK  status: ('A' for Active; 'I' for Inactive)
REMARK    1  A    between atoms: C_1  and  C_2
REMARK    2  A    between atoms: C_5  and  C_6
REMARK    3  A    between atoms: C_8  and  C_10
REMARK    4  A    between atoms: C_13  and  C_14
REMARK    5  A    between atoms: C_17  and  C_18
REMARK    6  A    between atoms: C_18  and  N_19
REMARK    7  A    between atoms: C_20  and  C_22
REMARK    8  A    between atoms: C_22  and  C_23
REMARK                            x       y       z     vdW  Elec       q    Type
REMARK                         _______ _______ _______ _____ _____    ______ ____
ROOT
ATOM      1  C   UNL     1       0.406   9.791  20.420  0.00  0.00    +0.000 A 
ATOM      2  C   UNL     1       0.618  10.303  19.133  0.00  0.00    +0.000 A 
ATOM      3  C   UNL     1       1.468   9.649  18.231  0.00  0.00    +0.000 A 
ATOM      4  C   UNL     1       2.123   8.465  18.591  0.00  0.00    +0.000 A 
ATOM      5  C   UNL     1       1.917   7.949  19.876  0.00  0.00    +0.000 A 
ATOM      6  C   UNL     1       1.065   8.604  20.777  0.00  0.00    +0.000 A 
ENDROOT
BRANCH   1  10
ATOM      7  C   UNL     1      -1.888  11.670  22.439  0.00  0.00    +0.000 A 
ATOM      8  C   UNL     1      -1.336  10.785  23.337  0.00  0.00    +0.000 A 
ATOM      9  O   UNL     1      -0.426  10.009  22.685  0.00  0.00    +0.000 OA
ATOM     10  C   UNL     1      -0.472  10.452  21.385  0.00  0.00    +0.000 A 
ATOM     11  N   UNL     1      -1.326  11.437  21.193  0.00  0.00    +0.000 NA
BRANCH   7  19
ATOM     12  C   UNL     1      -0.373  14.967  22.548  0.00  0.00    +0.000 C 
ATOM     13  C   UNL     1      -1.133  14.269  23.676  0.00  0.00    +0.000 C 
ATOM     14  C   UNL     1      -1.328  15.186  24.886  0.00  0.00    +0.000 C 
ATOM     15  C   UNL     1      -2.804  15.585  24.903  0.00  0.00    +0.000 C 
ATOM     16  C   UNL     1      -3.448  14.920  23.687  0.00  0.00    +0.000 C 
ATOM     17  C   UNL     1      -3.732  15.929  22.575  0.00  0.00    +0.000 C 
ATOM     18  N   UNL     1      -2.487  13.904  23.277  0.00  0.00    +0.000 N 
ATOM     19  C   UNL     1      -2.905  12.677  22.761  0.00  0.00    +0.000 C 
ATOM     20  O   UNL     1      -4.098  12.414  22.621  0.00  0.00    +0.000 OA
ENDBRANCH   7  19
ENDBRANCH   1  10
BRANCH   4  21
ATOM     21  C   UNL     1       3.047   7.782  17.616  0.00  0.00    +0.000 C 
BRANCH  21  22
ATOM     22  N   UNL     1       3.055   6.347  17.798  0.00  0.00    +0.000 N 
ATOM     23  C   UNL     1       4.167   5.609  17.449  0.00  0.00    +0.000 C 
ATOM     24  O   UNL     1       5.165   6.107  16.931  0.00  0.00    +0.000 OA
ATOM     25  H   UNL     1       2.361   5.933  18.407  0.00  0.00    +0.000 HD
BRANCH  23  26
ATOM     26  C   UNL     1       4.059   4.121  17.739  0.00  0.00    +0.000 C 
BRANCH  26  27
ATOM     27  C   UNL     1       2.974   3.775  18.731  0.00  0.00    +0.000 A 
ATOM     28  C   UNL     1       1.804   3.126  18.311  0.00  0.00    +0.000 A 
ATOM     29  C   UNL     1       0.808   2.791  19.231  0.00  0.00    +0.000 A 
ATOM     30  C   UNL     1       0.974   3.093  20.581  0.00  0.00    +0.000 A 
ATOM     31  C   UNL     1       2.138   3.724  21.014  0.00  0.00    +0.000 A 
ATOM     32  C   UNL     1       3.134   4.061  20.095  0.00  0.00    +0.000 A 
ENDBRANCH  26  27
ENDBRANCH  23  26
ENDBRANCH  21  22
ENDBRANCH   4  21
TORSDOF 6
ENDMDL
MODEL 7
REMARK VINA RESULT:      -8.5      1.178      1.690
REMARK  Name = 
REMARK  8 active torsions:
REMARK  status: ('A' for Active; 'I' for Inactive)
REMARK    1  A    between atoms: C_1  and  C_2
REMARK    2  A    between atoms: C_5  and  C_6
REMARK    3  A    between atoms: C_8  and  C_10
REMARK    4  A    between atoms: C_13  and  C_14
REMARK    5  A    between atoms: C_17  and  C_18
REMARK    6  A    between atoms: C_18  and  N_19
REMARK    7  A    between atoms: C_20  and  C_22
REMARK    8  A    between atoms: C_22  and  C_23
REMARK                            x       y       z     vdW  Elec       q    Type
REMARK                         _______ _______ _______ _____ _____    ______ ____
ROOT
ATOM      1  C   UNL     1       0.871   9.011  20.671  0.00  0.00    +0.000 A 
ATOM      2  C   UNL     1       0.116  10.036  20.086  0.00  0.00    +0.000 A 
ATOM      3  C   UNL     1      -0.656  10.900  20.874  0.00  0.00    +0.000 A 
ATOM      4  C   UNL     1      -0.688  10.763  22.268  0.00  0.00    +0.000 A 
ATOM      5  C   UNL     1       0.062   9.740  22.858  0.00  0.00    +0.000 A 
ATOM      6  C   UNL     1       0.835   8.877  22.068  0.00  0.00    +0.000 A 
ENDROOT
BRANCH   1  10
ATOM      7  C   UNL     1       2.890   6.501  19.093  0.00  0.00    +0.000 A 
ATOM      8  C   UNL     1       2.679   7.412  18.082  0.00  0.00    +0.000 A 
ATOM      9  O   UNL     1       1.921   8.435  18.565  0.00  0.00    +0.000 OA
ATOM     10  C   UNL     1       1.683   8.092  19.875  0.00  0.00    +0.000 A 
ATOM     11  N   UNL     1       2.239   6.952  20.231  0.00  0.00    +0.000 NA
BRANCH   7  19
ATOM     12  C   UNL     1       0.765   3.632  19.748  0.00  0.00    +0.000 C 
ATOM     13  C   UNL     1       2.047   4.012  20.489  0.00  0.00    +0.000 C 
ATOM     14  C   UNL     1       2.456   2.945  21.506  0.00  0.00    +0.000 C 
ATOM     15  C   UNL     1       3.676   2.228  20.927  0.00  0.00    +0.000 C 
ATOM     16  C   UNL     1       3.949   2.867  19.565  0.00  0.00    +0.000 C 
ATOM     17  C   UNL     1       3.524   1.951  18.417  0.00  0.00    +0.000 C 
ATOM     18  N   UNL     1       3.189   4.110  19.588  0.00  0.00    +0.000 N 
ATOM     19  C   UNL     1       3.668   5.263  18.967  0.00  0.00    +0.000 C 
ATOM     20  O   UNL     1       4.742   5.269  18.366  0.00  0.00    +0.000 OA
ENDBRANCH   7  19
ENDBRANCH   1  10
BRANCH   4  21
ATOM     21  C   UNL     1      -1.536  11.689  23.101  0.00  0.00    +0.000 C 
BRANCH  21  22
ATOM     22  N   UNL     1      -2.732  12.102  22.398  0.00  0.00    +0.000 N 
ATOM     23  C   UNL     1      -3.027  13.442  22.257  0.00  0.00    +0.000 C 
ATOM     24  O   UNL     1      -2.338  14.334  22.751  0.00  0.00    +0.000 OA
ATOM     25  H   UNL     1      -3.198  11.430  21.803  0.00  0.00    +0.000 HD
BRANCH  23  26
ATOM     26  C   UNL     1      -4.284  13.735  21.456  0.00  0.00    +0.000 C 
BRANCH  26  27
ATOM     27  C   UNL     1      -5.537  13.149  22.060  0.00  0.00    +0.000 A 
ATOM     28  C   UNL     1      -5.852  13.372  23.408  0.00  0.00    +0.000 A 
ATOM     29  C   UNL     1      -7.018  12.843  23.963  0.00  0.00    +0.000 A 
ATOM     30  C   UNL     1      -7.889  12.092  23.176  0.00  0.00    +0.000 A 
ATOM     31  C   UNL     1      -7.597  11.875  21.831  0.00  0.00    +0.000 A 
ATOM     32  C   UNL     1      -6.429  12.402  21.275  0.00  0.00    +0.000 A 
ENDBRANCH  26  27
ENDBRANCH  23  26
ENDBRANCH  21  22
ENDBRANCH   4  21
TORSDOF 6
ENDMDL
MODEL 8
REMARK VINA RESULT:      -8.5      2.617     10.199
REMARK  Name = 
REMARK  8 active torsions:
REMARK  status: ('A' for Active; 'I' for Inactive)
REMARK    1  A    between atoms: C_1  and  C_2
REMARK    2  A    between atoms: C_5  and  C_6
REMARK    3  A    between atoms: C_8  and  C_10
REMARK    4  A    between atoms: C_13  and  C_14
REMARK    5  A    between atoms: C_17  and  C_18
REMARK    6  A    between atoms: C_18  and  N_19
REMARK    7  A    between atoms: C_20  and  C_22
REMARK    8  A    between atoms: C_22  and  C_23
REMARK                            x       y       z     vdW  Elec       q    Type
REMARK                         _______ _______ _______ _____ _____    ______ ____
ROOT
ATOM      1  C   UNL     1       0.712   9.560  20.311  0.00  0.00    +0.000 A 
ATOM      2  C   UNL     1       1.309   8.325  20.600  0.00  0.00    +0.000 A 
ATOM      3  C   UNL     1       2.144   7.695  19.668  0.00  0.00    +0.000 A 
ATOM      4  C   UNL     1       2.408   8.286  18.426  0.00  0.00    +0.000 A 
ATOM      5  C   UNL     1       1.813   9.518  18.130  0.00  0.00    +0.000 A 
ATOM      6  C   UNL     1       0.978  10.148  19.064  0.00  0.00    +0.000 A 
ENDROOT
BRANCH   1  10
ATOM      7  C   UNL     1      -1.575  11.487  22.292  0.00  0.00    +0.000 A 
ATOM      8  C   UNL     1      -1.049  10.597  23.202  0.00  0.00    +0.000 A 
ATOM      9  O   UNL     1      -0.144   9.802  22.564  0.00  0.00    +0.000 OA
ATOM     10  C   UNL     1      -0.167  10.240  21.262  0.00  0.00    +0.000 A 
ATOM     11  N   UNL     1      -1.002  11.238  21.054  0.00  0.00    +0.000 NA
BRANCH   7  19
ATOM     12  C   UNL     1      -0.236  14.782  21.567  0.00  0.00    +0.000 C 
ATOM     13  C   UNL     1      -0.769  14.284  22.910  0.00  0.00    +0.000 C 
ATOM     14  C   UNL     1      -0.816  15.400  23.955  0.00  0.00    +0.000 C 
ATOM     15  C   UNL     1      -2.289  15.763  24.147  0.00  0.00    +0.000 C 
ATOM     16  C   UNL     1      -3.083  14.873  23.192  0.00  0.00    +0.000 C 
ATOM     17  C   UNL     1      -3.593  15.657  21.982  0.00  0.00    +0.000 C 
ATOM     18  N   UNL     1      -2.148  13.821  22.812  0.00  0.00    +0.000 N 
ATOM     19  C   UNL     1      -2.578  12.513  22.597  0.00  0.00    +0.000 C 
ATOM     20  O   UNL     1      -3.764  12.201  22.706  0.00  0.00    +0.000 OA
ENDBRANCH   7  19
ENDBRANCH   1  10
BRANCH   4  21
ATOM     21  C   UNL     1       3.295   7.588  17.427  0.00  0.00    +0.000 C 
BRANCH  21  22
ATOM     22  N   UNL     1       3.313   6.156  17.633  0.00  0.00    +0.000 N 
ATOM     23  C   UNL     1       4.490   5.517  17.966  0.00  0.00    +0.000 C 
ATOM     24  O   UNL     1       5.568   6.104  18.054  0.00  0.00    +0.000 OA
ATOM     25  H   UNL     1       2.434   5.679  17.783  0.00  0.00    +0.000 HD
BRANCH  23  26
ATOM     26  C   UNL     1       4.356   4.022  18.200  0.00  0.00    +0.000 C 
BRANCH  26  27
ATOM     27  C   UNL     1       3.063   3.627  18.873  0.00  0.00    +0.000 A 
ATOM     28  C   UNL     1       2.124   2.831  18.202  0.00  0.00    +0.000 A 
ATOM     29  C   UNL     1       0.935   2.453  18.829  0.00  0.00    +0.000 A 
ATOM     30  C   UNL     1       0.675   2.858  20.137  0.00  0.00    +0.000 A 
ATOM     31  C   UNL     1       1.606   3.637  20.820  0.00  0.00    +0.000 A 
ATOM     32  C   UNL     1       2.794   4.018  20.193  0.00  0.00    +0.000 A 
ENDBRANCH  26  27
ENDBRANCH  23  26
ENDBRANCH  21  22
ENDBRANCH   4  21
TORSDOF 6
ENDMDL
MODEL 9
REMARK VINA RESULT:      -8.5      6.672     10.868
REMARK  Name = 
REMARK  8 active torsions:
REMARK  status: ('A' for Active; 'I' for Inactive)
REMARK    1  A    between atoms: C_1  and  C_2
REMARK    2  A    between atoms: C_5  and  C_6
REMARK    3  A    between atoms: C_8  and  C_10
REMARK    4  A    between atoms: C_13  and  C_14
REMARK    5  A    between atoms: C_17  and  C_18
REMARK    6  A    between atoms: C_18  and  N_19
REMARK    7  A    between atoms: C_20  and  C_22
REMARK    8  A    between atoms: C_22  and  C_23
REMARK                            x       y       z     vdW  Elec       q    Type
REMARK                         _______ _______ _______ _____ _____    ______ ____
ROOT
ATOM      1  C   UNL     1       8.339   8.535  18.402  0.00  0.00    +0.000 A 
ATOM      2  C   UNL     1       7.508   8.405  17.281  0.00  0.00    +0.000 A 
ATOM      3  C   UNL     1       6.930   7.171  16.954  0.00  0.00    +0.000 A 
ATOM      4  C   UNL     1       7.165   6.037  17.742  0.00  0.00    +0.000 A 
ATOM      5  C   UNL     1       7.996   6.160  18.862  0.00  0.00    +0.000 A 
ATOM      6  C   UNL     1       8.572   7.396  19.189  0.00  0.00    +0.000 A 
ENDROOT
BRANCH   1  10
ATOM      7  C   UNL     1       9.845  11.759  18.854  0.00  0.00    +0.000 A 
ATOM      8  C   UNL     1       9.783  11.262  20.137  0.00  0.00    +0.000 A 
ATOM      9  O   UNL     1       9.230  10.017  20.098  0.00  0.00    +0.000 OA
ATOM     10  C   UNL     1       8.958   9.808  18.767  0.00  0.00    +0.000 A 
ATOM     11  N   UNL     1       9.307  10.815  17.992  0.00  0.00    +0.000 NA
BRANCH   7  19
ATOM     12  C   UNL     1       7.907  14.389  20.435  0.00  0.00    +0.000 C 
ATOM     13  C   UNL     1       8.142  14.197  18.937  0.00  0.00    +0.000 C 
ATOM     14  C   UNL     1       7.566  15.353  18.116  0.00  0.00    +0.000 C 
ATOM     15  C   UNL     1       8.754  16.178  17.621  0.00  0.00    +0.000 C 
ATOM     16  C   UNL     1      10.009  15.510  18.182  0.00  0.00    +0.000 C 
ATOM     17  C   UNL     1      10.608  16.313  19.336  0.00  0.00    +0.000 C 
ATOM     18  N   UNL     1       9.561  14.189  18.604  0.00  0.00    +0.000 N 
ATOM     19  C   UNL     1      10.385  13.071  18.482  0.00  0.00    +0.000 C 
ATOM     20  O   UNL     1      11.525  13.161  18.026  0.00  0.00    +0.000 OA
ENDBRANCH   7  19
ENDBRANCH   1  10
BRANCH   4  21
ATOM     21  C   UNL     1       6.550   4.713  17.368  0.00  0.00    +0.000 C 
BRANCH  21  22
ATOM     22  N   UNL     1       5.108   4.740  17.478  0.00  0.00    +0.000 N 
ATOM     23  C   UNL     1       4.482   4.164  18.564  0.00  0.00    +0.000 C 
ATOM     24  O   UNL     1       5.094   3.568  19.449  0.00  0.00    +0.000 OA
ATOM     25  H   UNL     1       4.592   5.393  16.901  0.00  0.00    +0.000 HD
BRANCH  23  26
ATOM     26  C   UNL     1       2.970   4.308  18.576  0.00  0.00    +0.000 C 
BRANCH  26  27
ATOM     27  C   UNL     1       2.493   5.659  19.051  0.00  0.00    +0.000 A 
ATOM     28  C   UNL     1       1.971   5.818  20.343  0.00  0.00    +0.000 A 
ATOM     29  C   UNL     1       1.545   7.071  20.788  0.00  0.00    +0.000 A 
ATOM     30  C   UNL     1       1.643   8.181  19.952  0.00  0.00    +0.000 A 
ATOM     31  C   UNL     1       2.174   8.040  18.672  0.00  0.00    +0.000 A 
ATOM     32  C   UNL     1       2.598   6.787  18.224  0.00  0.00    +0.000 A 
ENDBRANCH  26  27
ENDBRANCH  23  26
ENDBRANCH  21  22
ENDBRANCH   4  21
TORSDOF 6
ENDMDL
