MODEL 1
REMARK VINA RESULT:      -7.7      0.000      0.000
REMARK  Name = 
REMARK  5 active torsions:
REMARK  status: ('A' for Active; 'I' for Inactive)
REMARK    1  A    between atoms: N_1  and  S_2
REMARK    2  A    between atoms: S_2  and  C_5
REMARK    3  A    between atoms: C_8  and  C_9
REMARK    4  A    between atoms: C_9  and  N_10
REMARK    5  A    between atoms: C_11  and  C_13
REMARK                            x       y       z     vdW  Elec       q    Type
REMARK                         _______ _______ _______ _____ _____    ______ ____
ROOT
ATOM      1  N   UNL     1       2.437   6.798  18.403  0.00  0.00    +0.000 N 
ATOM      2  C   UNL     1       3.279   5.837  17.878  0.00  0.00    +0.000 C 
ATOM      3  O   UNL     1       4.146   6.098  17.058  0.00  0.00    +0.000 OA
ATOM      4  H   UNL     1       1.651   6.535  18.986  0.00  0.00    +0.000 HD
ENDROOT
BRANCH   2   5
ATOM      5  C   UNL     1       3.098   4.452  18.369  0.00  0.00    +0.000 A 
ATOM      6  C   UNL     1       4.107   3.785  19.066  0.00  0.00    +0.000 A 
ATOM      7  F   UNL     1       5.268   4.397  19.347  0.00  0.00    +0.000 F 
ATOM      8  C   UNL     1       3.931   2.466  19.479  0.00  0.00    +0.000 A 
ATOM      9  F   UNL     1       4.916   1.836  20.134  0.00  0.00    +0.000 F 
ATOM     10  C   UNL     1       2.752   1.786  19.214  0.00  0.00    +0.000 A 
ATOM     11  C   UNL     1       1.738   2.454  18.539  0.00  0.00    +0.000 A 
ATOM     12  F   UNL     1       0.597   1.803  18.274  0.00  0.00    +0.000 F 
ATOM     13  C   UNL     1       1.900   3.776  18.123  0.00  0.00    +0.000 A 
ATOM     14  F   UNL     1       0.895   4.358  17.452  0.00  0.00    +0.000 F 
ENDBRANCH   2   5
BRANCH   1  15
ATOM     15  C   UNL     1       2.532   8.175  17.977  0.00  0.00    +0.000 C 
BRANCH  15  19
ATOM     16  C   UNL     1       0.339  10.806  20.591  0.00  0.00    +0.000 A 
ATOM     17  C   UNL     1       0.658   9.517  21.021  0.00  0.00    +0.000 A 
ATOM     18  C   UNL     1       1.362   8.663  20.167  0.00  0.00    +0.000 A 
ATOM     19  C   UNL     1       1.754   9.092  18.888  0.00  0.00    +0.000 A 
ATOM     20  C   UNL     1       1.400  10.381  18.463  0.00  0.00    +0.000 A 
ATOM     21  C   UNL     1       0.698  11.239  19.311  0.00  0.00    +0.000 A 
BRANCH  16  22
ATOM     22  S   UNL     1      -0.503  11.917  21.679  0.00  0.00    +0.000 S 
ATOM     23  O   UNL     1      -1.877  12.041  21.242  0.00  0.00    +0.000 OA
ATOM     24  O   UNL     1       0.340  13.062  21.939  0.00  0.00    +0.000 OA
BRANCH  22  25
ATOM     25  N   UNL     1      -0.535  11.054  23.119  0.00  0.00    +0.000 NA
ATOM     26  H   UNL     1       0.078  10.240  23.040  0.00  0.00    +0.000 HD
ATOM     27  H   UNL     1      -1.497  10.815  23.362  0.00  0.00    +0.000 HD
ENDBRANCH  22  25
ENDBRANCH  16  22
ENDBRANCH  15  19
ENDBRANCH   1  15
TORSDOF 5
ENDMDL
MODEL 2
REMARK VINA RESULT:      -7.7      1.428      1.751
REMARK  Name = 
REMARK  5 active torsions:
REMARK  status: ('A' for Active; 'I' for Inactive)
REMARK    1  A    between atoms: N_1  and  S_2
REMARK    2  A    between atoms: S_2  and  C_5
REMARK    3  A    between atoms: C_8  and  C_9
REMARK    4  A    between atoms: C_9  and  N_10
REMARK    5  A    between atoms: C_11  and  C_13
REMARK                            x       y       z     vdW  Elec       q    Type
REMARK                         _______ _______ _______ _____ _____    ______ ____
ROOT
ATOM      1  N   UNL     1       2.231   6.658  18.157  0.00  0.00    +0.000 N 
ATOM      2  C   UNL     1       3.274   5.854  18.572  0.00  0.00    +0.000 C 
ATOM      3  O   UNL     1       4.421   6.263  18.673  0.00  0.00    +0.000 OA
ATOM      4  H   UNL     1       1.317   6.263  17.966  0.00  0.00    +0.000 HD
ENDROOT
BRANCH   2   5
ATOM      5  C   UNL     1       2.942   4.452  18.915  0.00  0.00    +0.000 A 
ATOM      6  C   UNL     1       3.460   3.379  18.188  0.00  0.00    +0.000 A 
ATOM      7  F   UNL     1       4.311   3.584  17.171  0.00  0.00    +0.000 F 
ATOM      8  C   UNL     1       3.097   2.070  18.501  0.00  0.00    +0.000 A 
ATOM      9  F   UNL     1       3.592   1.053  17.784  0.00  0.00    +0.000 F 
ATOM     10  C   UNL     1       2.220   1.802  19.541  0.00  0.00    +0.000 A 
ATOM     11  C   UNL     1       1.719   2.867  20.279  0.00  0.00    +0.000 A 
ATOM     12  F   UNL     1       0.867   2.617  21.282  0.00  0.00    +0.000 F 
ATOM     13  C   UNL     1       2.077   4.182  19.979  0.00  0.00    +0.000 A 
ATOM     14  F   UNL     1       1.540   5.168  20.711  0.00  0.00    +0.000 F 
ENDBRANCH   2   5
BRANCH   1  15
ATOM     15  C   UNL     1       2.460   8.036  17.793  0.00  0.00    +0.000 C 
BRANCH  15  19
ATOM     16  C   UNL     1       0.486  10.731  20.514  0.00  0.00    +0.000 A 
ATOM     17  C   UNL     1       0.823  11.171  19.233  0.00  0.00    +0.000 A 
ATOM     18  C   UNL     1       1.471  10.297  18.355  0.00  0.00    +0.000 A 
ATOM     19  C   UNL     1       1.779   8.983  18.749  0.00  0.00    +0.000 A 
ATOM     20  C   UNL     1       1.457   8.569  20.050  0.00  0.00    +0.000 A 
ATOM     21  C   UNL     1       0.809   9.437  20.931  0.00  0.00    +0.000 A 
BRANCH  16  22
ATOM     22  S   UNL     1      -0.383  11.807  21.617  0.00  0.00    +0.000 S 
ATOM     23  O   UNL     1      -1.751  11.930  21.163  0.00  0.00    +0.000 OA
ATOM     24  O   UNL     1       0.445  12.951  21.920  0.00  0.00    +0.000 OA
BRANCH  22  25
ATOM     25  N   UNL     1      -0.430  10.906  23.034  0.00  0.00    +0.000 NA
ATOM     26  H   UNL     1      -0.233   9.927  22.819  0.00  0.00    +0.000 HD
ATOM     27  H   UNL     1      -1.322  11.046  23.508  0.00  0.00    +0.000 HD
ENDBRANCH  22  25
ENDBRANCH  16  22
ENDBRANCH  15  19
ENDBRANCH   1  15
TORSDOF 5
ENDMDL
MODEL 3
REMARK VINA RESULT:      -7.6      1.433      1.785
REMARK  Name = 
REMARK  5 active torsions:
REMARK  status: ('A' for Active; 'I' for Inactive)
REMARK    1  A    between atoms: N_1  and  S_2
REMARK    2  A    between atoms: S_2  and  C_5
REMARK    3  A    between atoms: C_8  and  C_9
REMARK    4  A    between atoms: C_9  and  N_10
REMARK    5  A    between atoms: C_11  and  C_13
REMARK                            x       y       z     vdW  Elec       q    Type
REMARK                         _______ _______ _______ _____ _____    ______ ____
ROOT
ATOM      1  N   UNL     1       2.205   6.716  18.145  0.00  0.00    +0.000 N 
ATOM      2  C   UNL     1       3.207   5.884  18.607  0.00  0.00    +0.000 C 
ATOM      3  O   UNL     1       4.352   6.270  18.788  0.00  0.00    +0.000 OA
ATOM      4  H   UNL     1       1.299   6.341  17.889  0.00  0.00    +0.000 HD
ENDROOT
BRANCH   2   5
ATOM      5  C   UNL     1       2.830   4.482  18.898  0.00  0.00    +0.000 A 
ATOM      6  C   UNL     1       1.972   4.158  19.950  0.00  0.00    +0.000 A 
ATOM      7  F   UNL     1       1.429   5.118  20.714  0.00  0.00    +0.000 F 
ATOM      8  C   UNL     1       1.667   2.828  20.232  0.00  0.00    +0.000 A 
ATOM      9  F   UNL     1       0.853   2.535  21.255  0.00  0.00    +0.000 F 
ATOM     10  C   UNL     1       2.202   1.797  19.475  0.00  0.00    +0.000 A 
ATOM     11  C   UNL     1       3.039   2.117  18.414  0.00  0.00    +0.000 A 
ATOM     12  F   UNL     1       3.564   1.127  17.680  0.00  0.00    +0.000 F 
ATOM     13  C   UNL     1       3.350   3.445  18.118  0.00  0.00    +0.000 A 
ATOM     14  F   UNL     1       4.184   3.689  17.097  0.00  0.00    +0.000 F 
ENDBRANCH   2   5
BRANCH   1  15
ATOM     15  C   UNL     1       2.481   8.097  17.825  0.00  0.00    +0.000 C 
BRANCH  15  19
ATOM     16  C   UNL     1       0.420  10.794  20.479  0.00  0.00    +0.000 A 
ATOM     17  C   UNL     1       0.752   9.512  20.922  0.00  0.00    +0.000 A 
ATOM     18  C   UNL     1       1.412   8.636  20.055  0.00  0.00    +0.000 A 
ATOM     19  C   UNL     1       1.749   9.036  18.751  0.00  0.00    +0.000 A 
ATOM     20  C   UNL     1       1.383  10.319  18.316  0.00  0.00    +0.000 A 
ATOM     21  C   UNL     1       0.724  11.199  19.177  0.00  0.00    +0.000 A 
BRANCH  16  22
ATOM     22  S   UNL     1      -0.367  11.931  21.581  0.00  0.00    +0.000 S 
ATOM     23  O   UNL     1      -1.732  12.130  21.145  0.00  0.00    +0.000 OA
ATOM     24  O   UNL     1       0.532  13.028  21.858  0.00  0.00    +0.000 OA
BRANCH  22  25
ATOM     25  N   UNL     1      -0.445  11.052  23.010  0.00  0.00    +0.000 NA
ATOM     26  H   UNL     1      -0.377  11.691  23.805  0.00  0.00    +0.000 HD
ATOM     27  H   UNL     1       0.270  10.323  23.012  0.00  0.00    +0.000 HD
ENDBRANCH  22  25
ENDBRANCH  16  22
ENDBRANCH  15  19
ENDBRANCH   1  15
TORSDOF 5
ENDMDL
MODEL 4
REMARK VINA RESULT:      -7.6      1.485      1.991
REMARK  Name = 
REMARK  5 active torsions:
REMARK  status: ('A' for Active; 'I' for Inactive)
REMARK    1  A    between atoms: N_1  and  S_2
REMARK    2  A    between atoms: S_2  and  C_5
REMARK    3  A    between atoms: C_8  and  C_9
REMARK    4  A    between atoms: C_9  and  N_10
REMARK    5  A    between atoms: C_11  and  C_13
REMARK                            x       y       z     vdW  Elec       q    Type
REMARK                         _______ _______ _______ _____ _____    ______ ____
ROOT
ATOM      1  N   UNL     1       1.979   7.003  18.116  0.00  0.00    +0.000 N 
ATOM      2  C   UNL     1       2.957   6.127  18.546  0.00  0.00    +0.000 C 
ATOM      3  O   UNL     1       4.122   6.463  18.696  0.00  0.00    +0.000 OA
ATOM      4  H   UNL     1       1.050   6.669  17.884  0.00  0.00    +0.000 HD
ENDROOT
BRANCH   2   5
ATOM      5  C   UNL     1       2.528   4.741  18.842  0.00  0.00    +0.000 A 
ATOM      6  C   UNL     1       1.832   4.423  20.009  0.00  0.00    +0.000 A 
ATOM      7  F   UNL     1       1.495   5.378  20.890  0.00  0.00    +0.000 F 
ATOM      8  C   UNL     1       1.479   3.104  20.287  0.00  0.00    +0.000 A 
ATOM      9  F   UNL     1       0.824   2.815  21.420  0.00  0.00    +0.000 F 
ATOM     10  C   UNL     1       1.804   2.079  19.412  0.00  0.00    +0.000 A 
ATOM     11  C   UNL     1       2.477   2.394  18.240  0.00  0.00    +0.000 A 
ATOM     12  F   UNL     1       2.799   1.409  17.391  0.00  0.00    +0.000 F 
ATOM     13  C   UNL     1       2.834   3.711  17.947  0.00  0.00    +0.000 A 
ATOM     14  F   UNL     1       3.506   3.950  16.812  0.00  0.00    +0.000 F 
ENDBRANCH   2   5
BRANCH   1  15
ATOM     15  C   UNL     1       2.304   8.372  17.794  0.00  0.00    +0.000 C 
BRANCH  15  19
ATOM     16  C   UNL     1       0.427  11.120  20.531  0.00  0.00    +0.000 A 
ATOM     17  C   UNL     1       0.909  11.589  19.308  0.00  0.00    +0.000 A 
ATOM     18  C   UNL     1       1.526  10.696  18.426  0.00  0.00    +0.000 A 
ATOM     19  C   UNL     1       1.657   9.337  18.757  0.00  0.00    +0.000 A 
ATOM     20  C   UNL     1       1.190   8.890  20.002  0.00  0.00    +0.000 A 
ATOM     21  C   UNL     1       0.573   9.777  20.888  0.00  0.00    +0.000 A 
BRANCH  16  22
ATOM     22  S   UNL     1      -0.404  12.225  21.634  0.00  0.00    +0.000 S 
ATOM     23  O   UNL     1      -1.743  12.456  21.137  0.00  0.00    +0.000 OA
ATOM     24  O   UNL     1       0.491  13.300  21.998  0.00  0.00    +0.000 OA
BRANCH  22  25
ATOM     25  N   UNL     1      -0.564  11.293  23.023  0.00  0.00    +0.000 NA
ATOM     26  H   UNL     1      -1.512  11.395  23.391  0.00  0.00    +0.000 HD
ATOM     27  H   UNL     1       0.163  11.540  23.695  0.00  0.00    +0.000 HD
ENDBRANCH  22  25
ENDBRANCH  16  22
ENDBRANCH  15  19
ENDBRANCH   1  15
TORSDOF 5
ENDMDL
MODEL 5
REMARK VINA RESULT:      -7.6      1.587      1.679
REMARK  Name = 
REMARK  5 active torsions:
REMARK  status: ('A' for Active; 'I' for Inactive)
REMARK    1  A    between atoms: N_1  and  S_2
REMARK    2  A    between atoms: S_2  and  C_5
REMARK    3  A    between atoms: C_8  and  C_9
REMARK    4  A    between atoms: C_9  and  N_10
REMARK    5  A    between atoms: C_11  and  C_13
REMARK                            x       y       z     vdW  Elec       q    Type
REMARK                         _______ _______ _______ _____ _____    ______ ____
ROOT
ATOM      1  N   UNL     1       2.293   6.636  18.187  0.00  0.00    +0.000 N 
ATOM      2  C   UNL     1       3.327   5.839  18.636  0.00  0.00    +0.000 C 
ATOM      3  O   UNL     1       4.461   6.262  18.803  0.00  0.00    +0.000 OA
ATOM      4  H   UNL     1       1.396   6.232  17.942  0.00  0.00    +0.000 HD
ENDROOT
BRANCH   2   5
ATOM      5  C   UNL     1       3.000   4.424  18.930  0.00  0.00    +0.000 A 
ATOM      6  C   UNL     1       3.548   3.377  18.188  0.00  0.00    +0.000 A 
ATOM      7  F   UNL     1       4.424   3.619  17.201  0.00  0.00    +0.000 F 
ATOM      8  C   UNL     1       3.191   2.057  18.454  0.00  0.00    +0.000 A 
ATOM      9  F   UNL     1       3.715   1.065  17.722  0.00  0.00    +0.000 F 
ATOM     10  C   UNL     1       2.289   1.751  19.462  0.00  0.00    +0.000 A 
ATOM     11  C   UNL     1       1.757   2.789  20.216  0.00  0.00    +0.000 A 
ATOM     12  F   UNL     1       0.882   2.503  21.189  0.00  0.00    +0.000 F 
ATOM     13  C   UNL     1       2.110   4.115  19.962  0.00  0.00    +0.000 A 
ATOM     14  F   UNL     1       1.543   5.076  20.707  0.00  0.00    +0.000 F 
ENDBRANCH   2   5
BRANCH   1  15
ATOM     15  C   UNL     1       2.518   8.026  17.865  0.00  0.00    +0.000 C 
BRANCH  15  19
ATOM     16  C   UNL     1       0.404  10.651  20.550  0.00  0.00    +0.000 A 
ATOM     17  C   UNL     1       0.742   9.363  20.970  0.00  0.00    +0.000 A 
ATOM     18  C   UNL     1       1.420   8.511  20.093  0.00  0.00    +0.000 A 
ATOM     19  C   UNL     1       1.768   8.940  18.801  0.00  0.00    +0.000 A 
ATOM     20  C   UNL     1       1.395  10.228  18.388  0.00  0.00    +0.000 A 
ATOM     21  C   UNL     1       0.718  11.084  19.259  0.00  0.00    +0.000 A 
BRANCH  16  22
ATOM     22  S   UNL     1      -0.406  11.759  21.665  0.00  0.00    +0.000 S 
ATOM     23  O   UNL     1      -0.346  11.201  22.998  0.00  0.00    +0.000 OA
ATOM     24  O   UNL     1      -1.636  12.225  21.067  0.00  0.00    +0.000 OA
BRANCH  22  25
ATOM     25  N   UNL     1       0.621  13.089  21.657  0.00  0.00    +0.000 NA
ATOM     26  H   UNL     1       0.148  13.884  22.092  0.00  0.00    +0.000 HD
ATOM     27  H   UNL     1       0.942  13.277  20.707  0.00  0.00    +0.000 HD
ENDBRANCH  22  25
ENDBRANCH  16  22
ENDBRANCH  15  19
ENDBRANCH   1  15
TORSDOF 5
ENDMDL
MODEL 6
REMARK VINA RESULT:      -7.6      0.735      2.545
REMARK  Name = 
REMARK  5 active torsions:
REMARK  status: ('A' for Active; 'I' for Inactive)
REMARK    1  A    between atoms: N_1  and  S_2
REMARK    2  A    between atoms: S_2  and  C_5
REMARK    3  A    between atoms: C_8  and  C_9
REMARK    4  A    between atoms: C_9  and  N_10
REMARK    5  A    between atoms: C_11  and  C_13
REMARK                            x       y       z     vdW  Elec       q    Type
REMARK                         _______ _______ _______ _____ _____    ______ ____
ROOT
ATOM      1  N   UNL     1       2.307   6.784  18.290  0.00  0.00    +0.000 N 
ATOM      2  C   UNL     1       3.224   5.846  17.857  0.00  0.00    +0.000 C 
ATOM      3  O   UNL     1       4.166   6.131  17.134  0.00  0.00    +0.000 OA
ATOM      4  H   UNL     1       1.470   6.499  18.787  0.00  0.00    +0.000 HD
ENDROOT
BRANCH   2   5
ATOM      5  C   UNL     1       3.027   4.455  18.325  0.00  0.00    +0.000 A 
ATOM      6  C   UNL     1       1.836   3.766  18.093  0.00  0.00    +0.000 A 
ATOM      7  F   UNL     1       0.837   4.334  17.399  0.00  0.00    +0.000 F 
ATOM      8  C   UNL     1       1.658   2.473  18.581  0.00  0.00    +0.000 A 
ATOM      9  F   UNL     1       0.502   1.832  18.361  0.00  0.00    +0.000 F 
ATOM     10  C   UNL     1       2.657   1.840  19.305  0.00  0.00    +0.000 A 
ATOM     11  C   UNL     1       3.851   2.515  19.520  0.00  0.00    +0.000 A 
ATOM     12  F   UNL     1       4.820   1.912  20.222  0.00  0.00    +0.000 F 
ATOM     13  C   UNL     1       4.044   3.808  19.033  0.00  0.00    +0.000 A 
ATOM     14  F   UNL     1       5.209   4.418  19.295  0.00  0.00    +0.000 F 
ENDBRANCH   2   5
BRANCH   1  15
ATOM     15  C   UNL     1       2.411   8.164  17.878  0.00  0.00    +0.000 C 
BRANCH  15  19
ATOM     16  C   UNL     1       0.546  10.804  20.727  0.00  0.00    +0.000 A 
ATOM     17  C   UNL     1       0.851  11.275  19.449  0.00  0.00    +0.000 A 
ATOM     18  C   UNL     1       1.465  10.418  18.529  0.00  0.00    +0.000 A 
ATOM     19  C   UNL     1       1.769   9.092  18.879  0.00  0.00    +0.000 A 
ATOM     20  C   UNL     1       1.480   8.646  20.177  0.00  0.00    +0.000 A 
ATOM     21  C   UNL     1       0.867   9.496  21.099  0.00  0.00    +0.000 A 
BRANCH  16  22
ATOM     22  S   UNL     1      -0.279  11.859  21.883  0.00  0.00    +0.000 S 
ATOM     23  O   UNL     1       0.367  13.153  21.871  0.00  0.00    +0.000 OA
ATOM     24  O   UNL     1      -0.536  11.124  23.100  0.00  0.00    +0.000 OA
BRANCH  22  25
ATOM     25  N   UNL     1      -1.784  12.069  21.166  0.00  0.00    +0.000 NA
ATOM     26  H   UNL     1      -2.033  11.224  20.648  0.00  0.00    +0.000 HD
ATOM     27  H   UNL     1      -1.782  12.912  20.591  0.00  0.00    +0.000 HD
ENDBRANCH  22  25
ENDBRANCH  16  22
ENDBRANCH  15  19
ENDBRANCH   1  15
TORSDOF 5
ENDMDL
MODEL 7
REMARK VINA RESULT:      -7.6      0.337      1.037
REMARK  Name = 
REMARK  5 active torsions:
REMARK  status: ('A' for Active; 'I' for Inactive)
REMARK    1  A    between atoms: N_1  and  S_2
REMARK    2  A    between atoms: S_2  and  C_5
REMARK    3  A    between atoms: C_8  and  C_9
REMARK    4  A    between atoms: C_9  and  N_10
REMARK    5  A    between atoms: C_11  and  C_13
REMARK                            x       y       z     vdW  Elec       q    Type
REMARK                         _______ _______ _______ _____ _____    ______ ____
ROOT
ATOM      1  N   UNL     1       2.275   7.043  18.327  0.00  0.00    +0.000 N 
ATOM      2  C   UNL     1       3.204   6.108  17.915  0.00  0.00    +0.000 C 
ATOM      3  O   UNL     1       4.125   6.383  17.160  0.00  0.00    +0.000 OA
ATOM      4  H   UNL     1       1.456   6.761  18.853  0.00  0.00    +0.000 HD
ENDROOT
BRANCH   2   5
ATOM      5  C   UNL     1       3.051   4.735  18.447  0.00  0.00    +0.000 A 
ATOM      6  C   UNL     1       4.039   4.140  19.234  0.00  0.00    +0.000 A 
ATOM      7  F   UNL     1       5.151   4.814  19.566  0.00  0.00    +0.000 F 
ATOM      8  C   UNL     1       3.892   2.831  19.687  0.00  0.00    +0.000 A 
ATOM      9  F   UNL     1       4.857   2.271  20.429  0.00  0.00    +0.000 F 
ATOM     10  C   UNL     1       2.764   2.089  19.372  0.00  0.00    +0.000 A 
ATOM     11  C   UNL     1       1.769   2.685  18.606  0.00  0.00    +0.000 A 
ATOM     12  F   UNL     1       0.678   1.974  18.294  0.00  0.00    +0.000 F 
ATOM     13  C   UNL     1       1.902   3.997  18.150  0.00  0.00    +0.000 A 
ATOM     14  F   UNL     1       0.920   4.508  17.394  0.00  0.00    +0.000 F 
ENDBRANCH   2   5
BRANCH   1  15
ATOM     15  C   UNL     1       2.338   8.405  17.853  0.00  0.00    +0.000 C 
BRANCH  15  19
ATOM     16  C   UNL     1       0.391  11.120  20.574  0.00  0.00    +0.000 A 
ATOM     17  C   UNL     1       0.934  11.609  19.385  0.00  0.00    +0.000 A 
ATOM     18  C   UNL     1       1.573  10.727  18.508  0.00  0.00    +0.000 A 
ATOM     19  C   UNL     1       1.667   9.358  18.811  0.00  0.00    +0.000 A 
ATOM     20  C   UNL     1       1.139   8.890  20.023  0.00  0.00    +0.000 A 
ATOM     21  C   UNL     1       0.500   9.766  20.903  0.00  0.00    +0.000 A 
BRANCH  16  22
ATOM     22  S   UNL     1      -0.467  12.213  21.668  0.00  0.00    +0.000 S 
ATOM     23  O   UNL     1      -1.812  12.403  21.172  0.00  0.00    +0.000 OA
ATOM     24  O   UNL     1       0.399  13.315  22.020  0.00  0.00    +0.000 OA
BRANCH  22  25
ATOM     25  N   UNL     1      -0.600  11.290  23.066  0.00  0.00    +0.000 NA
ATOM     26  H   UNL     1      -0.643  10.301  22.815  0.00  0.00    +0.000 HD
ATOM     27  H   UNL     1      -1.398  11.605  23.618  0.00  0.00    +0.000 HD
ENDBRANCH  22  25
ENDBRANCH  16  22
ENDBRANCH  15  19
ENDBRANCH   1  15
TORSDOF 5
ENDMDL
MODEL 8
REMARK VINA RESULT:      -7.5      4.736      8.282
REMARK  Name = 
REMARK  5 active torsions:
REMARK  status: ('A' for Active; 'I' for Inactive)
REMARK    1  A    between atoms: N_1  and  S_2
REMARK    2  A    between atoms: S_2  and  C_5
REMARK    3  A    between atoms: C_8  and  C_9
REMARK    4  A    between atoms: C_9  and  N_10
REMARK    5  A    between atoms: C_11  and  C_13
REMARK                            x       y       z     vdW  Elec       q    Type
REMARK                         _______ _______ _______ _____ _____    ______ ____
ROOT
ATOM      1  N   UNL     1       1.836   9.171  19.090  0.00  0.00    +0.000 N 
ATOM      2  C   UNL     1       0.647   9.859  18.950  0.00  0.00    +0.000 C 
ATOM      3  O   UNL     1      -0.035   9.797  17.938  0.00  0.00    +0.000 OA
ATOM      4  H   UNL     1       2.439   9.337  19.888  0.00  0.00    +0.000 HD
ENDROOT
BRANCH   2   5
ATOM      5  C   UNL     1       0.210  10.680  20.102  0.00  0.00    +0.000 A 
ATOM      6  C   UNL     1      -0.312  10.098  21.259  0.00  0.00    +0.000 A 
ATOM      7  F   UNL     1      -0.401   8.765  21.378  0.00  0.00    +0.000 F 
ATOM      8  C   UNL     1      -0.758  10.893  22.313  0.00  0.00    +0.000 A 
ATOM      9  F   UNL     1      -1.269  10.318  23.410  0.00  0.00    +0.000 F 
ATOM     10  C   UNL     1      -0.690  12.276  22.242  0.00  0.00    +0.000 A 
ATOM     11  C   UNL     1      -0.152  12.858  21.101  0.00  0.00    +0.000 A 
ATOM     12  F   UNL     1      -0.088  14.194  21.023  0.00  0.00    +0.000 F 
ATOM     13  C   UNL     1       0.301  12.073  20.040  0.00  0.00    +0.000 A 
ATOM     14  F   UNL     1       0.787  12.693  18.955  0.00  0.00    +0.000 F 
ENDBRANCH   2   5
BRANCH   1  15
ATOM     15  C   UNL     1       2.347   8.353  18.016  0.00  0.00    +0.000 C 
BRANCH  15  19
ATOM     16  C   UNL     1       3.129   4.322  19.322  0.00  0.00    +0.000 A 
ATOM     17  C   UNL     1       2.479   5.210  20.180  0.00  0.00    +0.000 A 
ATOM     18  C   UNL     1       2.234   6.520  19.756  0.00  0.00    +0.000 A 
ATOM     19  C   UNL     1       2.631   6.945  18.477  0.00  0.00    +0.000 A 
ATOM     20  C   UNL     1       3.308   6.047  17.640  0.00  0.00    +0.000 A 
ATOM     21  C   UNL     1       3.554   4.737  18.056  0.00  0.00    +0.000 A 
BRANCH  16  22
ATOM     22  S   UNL     1       3.397   2.647  19.821  0.00  0.00    +0.000 S 
ATOM     23  O   UNL     1       2.835   1.769  18.819  0.00  0.00    +0.000 OA
ATOM     24  O   UNL     1       3.103   2.516  21.230  0.00  0.00    +0.000 OA
BRANCH  22  25
ATOM     25  N   UNL     1       5.067   2.500  19.703  0.00  0.00    +0.000 NA
ATOM     26  H   UNL     1       5.296   1.827  18.969  0.00  0.00    +0.000 HD
ATOM     27  H   UNL     1       5.462   2.260  20.613  0.00  0.00    +0.000 HD
ENDBRANCH  22  25
ENDBRANCH  16  22
ENDBRANCH  15  19
ENDBRANCH   1  15
TORSDOF 5
ENDMDL
MODEL 9
REMARK VINA RESULT:      -7.5      1.631      1.969
REMARK  Name = 
REMARK  5 active torsions:
REMARK  status: ('A' for Active; 'I' for Inactive)
REMARK    1  A    between atoms: N_1  and  S_2
REMARK    2  A    between atoms: S_2  and  C_5
REMARK    3  A    between atoms: C_8  and  C_9
REMARK    4  A    between atoms: C_9  and  N_10
REMARK    5  A    between atoms: C_11  and  C_13
REMARK                            x       y       z     vdW  Elec       q    Type
REMARK                         _______ _______ _______ _____ _____    ______ ____
ROOT
ATOM      1  N   UNL     1       1.918   7.043  18.195  0.00  0.00    +0.000 N 
ATOM      2  C   UNL     1       2.931   6.146  18.471  0.00  0.00    +0.000 C 
ATOM      3  O   UNL     1       4.110   6.468  18.485  0.00  0.00    +0.000 OA
ATOM      4  H   UNL     1       0.964   6.724  18.071  0.00  0.00    +0.000 HD
ENDROOT
BRANCH   2   5
ATOM      5  C   UNL     1       2.527   4.754  18.774  0.00  0.00    +0.000 A 
ATOM      6  C   UNL     1       1.806   4.435  19.926  0.00  0.00    +0.000 A 
ATOM      7  F   UNL     1       1.422   5.393  20.783  0.00  0.00    +0.000 F 
ATOM      8  C   UNL     1       1.476   3.112  20.212  0.00  0.00    +0.000 A 
ATOM      9  F   UNL     1       0.797   2.822  21.329  0.00  0.00    +0.000 F 
ATOM     10  C   UNL     1       1.850   2.083  19.361  0.00  0.00    +0.000 A 
ATOM     11  C   UNL     1       2.549   2.399  18.203  0.00  0.00    +0.000 A 
ATOM     12  F   UNL     1       2.918   1.411  17.377  0.00  0.00    +0.000 F 
ATOM     13  C   UNL     1       2.883   3.721  17.902  0.00  0.00    +0.000 A 
ATOM     14  F   UNL     1       3.581   3.960  16.783  0.00  0.00    +0.000 F 
ENDBRANCH   2   5
BRANCH   1  15
ATOM     15  C   UNL     1       2.216   8.420  17.879  0.00  0.00    +0.000 C 
BRANCH  15  19
ATOM     16  C   UNL     1       0.414  11.128  20.704  0.00  0.00    +0.000 A 
ATOM     17  C   UNL     1       0.483   9.766  21.004  0.00  0.00    +0.000 A 
ATOM     18  C   UNL     1       1.061   8.889  20.081  0.00  0.00    +0.000 A 
ATOM     19  C   UNL     1       1.575   9.366  18.863  0.00  0.00    +0.000 A 
ATOM     20  C   UNL     1       1.471  10.734  18.569  0.00  0.00    +0.000 A 
ATOM     21  C   UNL     1       0.896  11.615  19.486  0.00  0.00    +0.000 A 
BRANCH  16  22
ATOM     22  S   UNL     1      -0.264  12.258  21.884  0.00  0.00    +0.000 S 
ATOM     23  O   UNL     1       0.539  13.461  21.888  0.00  0.00    +0.000 OA
ATOM     24  O   UNL     1      -0.603  11.542  23.092  0.00  0.00    +0.000 OA
BRANCH  22  25
ATOM     25  N   UNL     1      -1.735  12.668  21.184  0.00  0.00    +0.000 NA
ATOM     26  H   UNL     1      -2.424  11.943  21.396  0.00  0.00    +0.000 HD
ATOM     27  H   UNL     1      -1.613  12.833  20.185  0.00  0.00    +0.000 HD
ENDBRANCH  22  25
ENDBRANCH  16  22
ENDBRANCH  15  19
ENDBRANCH   1  15
TORSDOF 5
ENDMDL
