MODEL 1
REMARK VINA RESULT:      -8.7      0.000      0.000
REMARK  Name = 
REMARK  4 active torsions:
REMARK  status: ('A' for Active; 'I' for Inactive)
REMARK    1  A    between atoms: C_1  and  C_2
REMARK    2  A    between atoms: C_2  and  C_3
REMARK    3  A    between atoms: N_9  and  C_10
REMARK    4  A    between atoms: C_13  and  C_14
REMARK                            x       y       z     vdW  Elec       q    Type
REMARK                         _______ _______ _______ _____ _____    ______ ____
ROOT
ATOM      1  C   UNL     1       7.430   6.173  18.840  0.00  0.00    +0.000 C 
ATOM      2  C   UNL     1       6.852   6.802  17.555  0.00  0.00    +0.000 C 
ATOM      3  C   UNL     1       7.719   8.021  17.193  0.00  0.00    +0.000 C 
ATOM      4  C   UNL     1       6.903   5.788  16.384  0.00  0.00    +0.000 C 
ATOM      5  C   UNL     1       6.044   4.559  16.656  0.00  0.00    +0.000 C 
ATOM      6  O   UNL     1       6.415   3.446  16.296  0.00  0.00    +0.000 OA
ATOM      7  C   UNL     1       4.770   4.821  17.313  0.00  0.00    +0.000 A 
ATOM      8  C   UNL     1       4.443   6.081  17.800  0.00  0.00    +0.000 A 
ATOM      9  N   UNL     1       3.166   6.023  18.358  0.00  0.00    +0.000 N 
ATOM     10  C   UNL     1       2.707   4.703  18.243  0.00  0.00    +0.000 A 
ATOM     11  C   UNL     1       1.484   4.077  18.554  0.00  0.00    +0.000 A 
ATOM     12  C   UNL     1       1.366   2.718  18.298  0.00  0.00    +0.000 A 
ATOM     13  C   UNL     1       2.425   2.058  17.710  0.00  0.00    +0.000 A 
ATOM     14  N   UNL     1       3.586   2.630  17.348  0.00  0.00    +0.000 NA
ATOM     15  C   UNL     1       3.706   3.954  17.614  0.00  0.00    +0.000 A 
ATOM     16  C   UNL     1       5.380   7.259  17.782  0.00  0.00    +0.000 C 
ENDROOT
BRANCH   9  17
ATOM     17  C   UNL     1       2.401   7.112  18.892  0.00  0.00    +0.000 A 
ATOM     18  C   UNL     1       2.068   7.162  20.249  0.00  0.00    +0.000 A 
ATOM     19  C   UNL     1       1.459   8.300  20.793  0.00  0.00    +0.000 A 
ATOM     20  C   UNL     1       1.171   9.407  19.987  0.00  0.00    +0.000 A 
ATOM     21  C   UNL     1       1.462   9.340  18.623  0.00  0.00    +0.000 A 
ATOM     22  C   UNL     1       2.045   8.194  18.076  0.00  0.00    +0.000 A 
BRANCH  20  23
ATOM     23  C   UNL     1       0.572  10.669  20.504  0.00  0.00    +0.000 C 
ATOM     24  N   UNL     1      -0.652  11.047  20.035  0.00  0.00    +0.000 N 
ATOM     25  O   UNL     1       1.148  11.357  21.332  0.00  0.00    +0.000 OA
ATOM     26  H   UNL     1      -1.209  10.545  19.365  0.00  0.00    +0.000 HD
ATOM     27  H   UNL     1      -1.033  11.903  20.412  0.00  0.00    +0.000 HD
ENDBRANCH  20  23
ENDBRANCH   9  17
TORSDOF 2
ENDMDL
MODEL 2
REMARK VINA RESULT:      -8.7      0.663      1.168
REMARK  Name = 
REMARK  4 active torsions:
REMARK  status: ('A' for Active; 'I' for Inactive)
REMARK    1  A    between atoms: C_1  and  C_2
REMARK    2  A    between atoms: C_2  and  C_3
REMARK    3  A    between atoms: N_9  and  C_10
REMARK    4  A    between atoms: C_13  and  C_14
REMARK                            x       y       z     vdW  Elec       q    Type
REMARK                         _______ _______ _______ _____ _____    ______ ____
ROOT
ATOM      1  C   UNL     1       7.474   6.042  18.782  0.00  0.00    +0.000 C 
ATOM      2  C   UNL     1       6.882   6.720  17.529  0.00  0.00    +0.000 C 
ATOM      3  C   UNL     1       7.790   7.907  17.160  0.00  0.00    +0.000 C 
ATOM      4  C   UNL     1       6.851   5.728  16.340  0.00  0.00    +0.000 C 
ATOM      5  C   UNL     1       5.949   4.532  16.618  0.00  0.00    +0.000 C 
ATOM      6  O   UNL     1       6.259   3.411  16.225  0.00  0.00    +0.000 OA
ATOM      7  C   UNL     1       4.710   4.835  17.321  0.00  0.00    +0.000 A 
ATOM      8  C   UNL     1       4.453   6.098  17.841  0.00  0.00    +0.000 A 
ATOM      9  N   UNL     1       3.194   6.085  18.440  0.00  0.00    +0.000 N 
ATOM     10  C   UNL     1       2.674   4.788  18.316  0.00  0.00    +0.000 A 
ATOM     11  C   UNL     1       1.436   4.209  18.657  0.00  0.00    +0.000 A 
ATOM     12  C   UNL     1       1.251   2.862  18.380  0.00  0.00    +0.000 A 
ATOM     13  C   UNL     1       2.261   2.168  17.746  0.00  0.00    +0.000 A 
ATOM     14  N   UNL     1       3.433   2.697  17.356  0.00  0.00    +0.000 NA
ATOM     15  C   UNL     1       3.619   4.009  17.642  0.00  0.00    +0.000 A 
ATOM     16  C   UNL     1       5.440   7.235  17.813  0.00  0.00    +0.000 C 
ENDROOT
BRANCH   9  17
ATOM     17  C   UNL     1       2.494   7.195  19.018  0.00  0.00    +0.000 A 
ATOM     18  C   UNL     1       2.102   8.285  18.236  0.00  0.00    +0.000 A 
ATOM     19  C   UNL     1       1.285   9.290  18.772  0.00  0.00    +0.000 A 
ATOM     20  C   UNL     1       0.848   9.219  20.099  0.00  0.00    +0.000 A 
ATOM     21  C   UNL     1       1.277   8.154  20.893  0.00  0.00    +0.000 A 
ATOM     22  C   UNL     1       2.113   7.167  20.366  0.00  0.00    +0.000 A 
BRANCH  20  23
ATOM     23  C   UNL     1      -0.062  10.222  20.721  0.00  0.00    +0.000 C 
ATOM     24  N   UNL     1      -0.315  10.129  22.058  0.00  0.00    +0.000 N 
ATOM     25  O   UNL     1      -0.573  11.115  20.062  0.00  0.00    +0.000 OA
ATOM     26  H   UNL     1       0.066   9.442  22.686  0.00  0.00    +0.000 HD
ATOM     27  H   UNL     1      -0.929  10.829  22.449  0.00  0.00    +0.000 HD
ENDBRANCH  20  23
ENDBRANCH   9  17
TORSDOF 2
ENDMDL
MODEL 3
REMARK VINA RESULT:      -8.6      1.874      4.159
REMARK  Name = 
REMARK  4 active torsions:
REMARK  status: ('A' for Active; 'I' for Inactive)
REMARK    1  A    between atoms: C_1  and  C_2
REMARK    2  A    between atoms: C_2  and  C_3
REMARK    3  A    between atoms: N_9  and  C_10
REMARK    4  A    between atoms: C_13  and  C_14
REMARK                            x       y       z     vdW  Elec       q    Type
REMARK                         _______ _______ _______ _____ _____    ______ ____
ROOT
ATOM      1  C   UNL     1       1.399   2.305  19.460  0.00  0.00    +0.000 C 
ATOM      2  C   UNL     1       1.938   3.008  20.723  0.00  0.00    +0.000 C 
ATOM      3  C   UNL     1       0.998   2.665  21.893  0.00  0.00    +0.000 C 
ATOM      4  C   UNL     1       3.361   2.500  21.062  0.00  0.00    +0.000 C 
ATOM      5  C   UNL     1       4.361   2.826  19.959  0.00  0.00    +0.000 C 
ATOM      6  O   UNL     1       5.248   2.031  19.666  0.00  0.00    +0.000 OA
ATOM      7  C   UNL     1       4.203   4.136  19.342  0.00  0.00    +0.000 A 
ATOM      8  C   UNL     1       3.119   4.956  19.630  0.00  0.00    +0.000 A 
ATOM      9  N   UNL     1       3.250   6.139  18.903  0.00  0.00    +0.000 N 
ATOM     10  C   UNL     1       4.417   6.040  18.131  0.00  0.00    +0.000 A 
ATOM     11  C   UNL     1       5.086   6.938  17.277  0.00  0.00    +0.000 A 
ATOM     12  C   UNL     1       6.251   6.503  16.661  0.00  0.00    +0.000 A 
ATOM     13  C   UNL     1       6.723   5.238  16.948  0.00  0.00    +0.000 A 
ATOM     14  N   UNL     1       6.144   4.374  17.798  0.00  0.00    +0.000 NA
ATOM     15  C   UNL     1       4.997   4.794  18.386  0.00  0.00    +0.000 A 
ATOM     16  C   UNL     1       1.972   4.552  20.519  0.00  0.00    +0.000 C 
ENDROOT
BRANCH   9  17
ATOM     17  C   UNL     1       2.407   7.297  18.967  0.00  0.00    +0.000 A 
ATOM     18  C   UNL     1       1.904   7.755  20.189  0.00  0.00    +0.000 A 
ATOM     19  C   UNL     1       1.213   8.972  20.264  0.00  0.00    +0.000 A 
ATOM     20  C   UNL     1       1.014   9.749  19.118  0.00  0.00    +0.000 A 
ATOM     21  C   UNL     1       1.477   9.271  17.891  0.00  0.00    +0.000 A 
ATOM     22  C   UNL     1       2.142   8.045  17.812  0.00  0.00    +0.000 A 
BRANCH  20  23
ATOM     23  C   UNL     1       0.334  11.075  19.131  0.00  0.00    +0.000 C 
ATOM     24  N   UNL     1      -0.495  11.390  18.095  0.00  0.00    +0.000 N 
ATOM     25  O   UNL     1       0.502  11.869  20.044  0.00  0.00    +0.000 OA
ATOM     26  H   UNL     1      -0.707  10.802  17.307  0.00  0.00    +0.000 HD
ATOM     27  H   UNL     1      -0.945  12.293  18.138  0.00  0.00    +0.000 HD
ENDBRANCH  20  23
ENDBRANCH   9  17
TORSDOF 2
ENDMDL
MODEL 4
REMARK VINA RESULT:      -8.6      1.887      4.265
REMARK  Name = 
REMARK  4 active torsions:
REMARK  status: ('A' for Active; 'I' for Inactive)
REMARK    1  A    between atoms: C_1  and  C_2
REMARK    2  A    between atoms: C_2  and  C_3
REMARK    3  A    between atoms: N_9  and  C_10
REMARK    4  A    between atoms: C_13  and  C_14
REMARK                            x       y       z     vdW  Elec       q    Type
REMARK                         _______ _______ _______ _____ _____    ______ ____
ROOT
ATOM      1  C   UNL     1       1.328   2.415  19.442  0.00  0.00    +0.000 C 
ATOM      2  C   UNL     1       1.914   3.079  20.705  0.00  0.00    +0.000 C 
ATOM      3  C   UNL     1       0.974   2.766  21.884  0.00  0.00    +0.000 C 
ATOM      4  C   UNL     1       3.317   2.503  21.020  0.00  0.00    +0.000 C 
ATOM      5  C   UNL     1       4.317   2.795  19.908  0.00  0.00    +0.000 C 
ATOM      6  O   UNL     1       5.163   1.964  19.595  0.00  0.00    +0.000 OA
ATOM      7  C   UNL     1       4.212   4.118  19.307  0.00  0.00    +0.000 A 
ATOM      8  C   UNL     1       3.169   4.983  19.617  0.00  0.00    +0.000 A 
ATOM      9  N   UNL     1       3.346   6.167  18.902  0.00  0.00    +0.000 N 
ATOM     10  C   UNL     1       4.497   6.023  18.114  0.00  0.00    +0.000 A 
ATOM     11  C   UNL     1       5.196   6.899  17.260  0.00  0.00    +0.000 A 
ATOM     12  C   UNL     1       6.333   6.418  16.625  0.00  0.00    +0.000 A 
ATOM     13  C   UNL     1       6.749   5.130  16.893  0.00  0.00    +0.000 A 
ATOM     14  N   UNL     1       6.142   4.284  17.741  0.00  0.00    +0.000 NA
ATOM     15  C   UNL     1       5.023   4.749  18.348  0.00  0.00    +0.000 A 
ATOM     16  C   UNL     1       2.017   4.622  20.517  0.00  0.00    +0.000 C 
ENDROOT
BRANCH   9  17
ATOM     17  C   UNL     1       2.557   7.361  18.989  0.00  0.00    +0.000 A 
ATOM     18  C   UNL     1       2.255   8.110  17.847  0.00  0.00    +0.000 A 
ATOM     19  C   UNL     1       1.358   9.184  17.916  0.00  0.00    +0.000 A 
ATOM     20  C   UNL     1       0.749   9.526  19.128  0.00  0.00    +0.000 A 
ATOM     21  C   UNL     1       1.084   8.807  20.277  0.00  0.00    +0.000 A 
ATOM     22  C   UNL     1       1.999   7.753  20.213  0.00  0.00    +0.000 A 
BRANCH  20  23
ATOM     23  C   UNL     1      -0.252  10.621  19.266  0.00  0.00    +0.000 C 
ATOM     24  N   UNL     1      -0.558  11.364  18.164  0.00  0.00    +0.000 N 
ATOM     25  O   UNL     1      -0.798  10.857  20.333  0.00  0.00    +0.000 OA
ATOM     26  H   UNL     1      -0.174  11.242  17.243  0.00  0.00    +0.000 HD
ATOM     27  H   UNL     1      -1.245  12.093  18.289  0.00  0.00    +0.000 HD
ENDBRANCH  20  23
ENDBRANCH   9  17
TORSDOF 2
ENDMDL
MODEL 5
REMARK VINA RESULT:      -8.2      1.765      4.132
REMARK  Name = 
REMARK  4 active torsions:
REMARK  status: ('A' for Active; 'I' for Inactive)
REMARK    1  A    between atoms: C_1  and  C_2
REMARK    2  A    between atoms: C_2  and  C_3
REMARK    3  A    between atoms: N_9  and  C_10
REMARK    4  A    between atoms: C_13  and  C_14
REMARK                            x       y       z     vdW  Elec       q    Type
REMARK                         _______ _______ _______ _____ _____    ______ ____
ROOT
ATOM      1  C   UNL     1       0.828   2.564  19.401  0.00  0.00    +0.000 C 
ATOM      2  C   UNL     1       1.754   3.102  20.512  0.00  0.00    +0.000 C 
ATOM      3  C   UNL     1       1.094   2.792  21.868  0.00  0.00    +0.000 C 
ATOM      4  C   UNL     1       3.133   2.398  20.457  0.00  0.00    +0.000 C 
ATOM      5  C   UNL     1       3.864   2.678  19.149  0.00  0.00    +0.000 C 
ATOM      6  O   UNL     1       4.534   1.804  18.609  0.00  0.00    +0.000 OA
ATOM      7  C   UNL     1       3.741   4.039  18.645  0.00  0.00    +0.000 A 
ATOM      8  C   UNL     1       2.884   4.963  19.232  0.00  0.00    +0.000 A 
ATOM      9  N   UNL     1       2.994   6.171  18.543  0.00  0.00    +0.000 N 
ATOM     10  C   UNL     1       3.909   5.986  17.496  0.00  0.00    +0.000 A 
ATOM     11  C   UNL     1       4.463   6.854  16.536  0.00  0.00    +0.000 A 
ATOM     12  C   UNL     1       5.369   6.325  15.627  0.00  0.00    +0.000 A 
ATOM     13  C   UNL     1       5.718   4.994  15.735  0.00  0.00    +0.000 A 
ATOM     14  N   UNL     1       5.254   4.148  16.669  0.00  0.00    +0.000 NA
ATOM     15  C   UNL     1       4.356   4.662  17.546  0.00  0.00    +0.000 A 
ATOM     16  C   UNL     1       1.949   4.640  20.367  0.00  0.00    +0.000 C 
ENDROOT
BRANCH   9  17
ATOM     17  C   UNL     1       2.360   7.416  18.865  0.00  0.00    +0.000 A 
ATOM     18  C   UNL     1       2.063   8.352  17.870  0.00  0.00    +0.000 A 
ATOM     19  C   UNL     1       1.306   9.493  18.167  0.00  0.00    +0.000 A 
ATOM     20  C   UNL     1       0.834   9.716  19.465  0.00  0.00    +0.000 A 
ATOM     21  C   UNL     1       1.168   8.804  20.469  0.00  0.00    +0.000 A 
ATOM     22  C   UNL     1       1.946   7.681  20.177  0.00  0.00    +0.000 A 
BRANCH  20  23
ATOM     23  C   UNL     1      -0.017  10.878  19.843  0.00  0.00    +0.000 C 
ATOM     24  N   UNL     1      -0.223  11.130  21.168  0.00  0.00    +0.000 N 
ATOM     25  O   UNL     1      -0.524  11.600  18.999  0.00  0.00    +0.000 OA
ATOM     26  H   UNL     1       0.158  10.604  21.936  0.00  0.00    +0.000 HD
ATOM     27  H   UNL     1      -0.798  11.929  21.391  0.00  0.00    +0.000 HD
ENDBRANCH  20  23
ENDBRANCH   9  17
TORSDOF 2
ENDMDL
MODEL 6
REMARK VINA RESULT:      -7.9      1.788      4.197
REMARK  Name = 
REMARK  4 active torsions:
REMARK  status: ('A' for Active; 'I' for Inactive)
REMARK    1  A    between atoms: C_1  and  C_2
REMARK    2  A    between atoms: C_2  and  C_3
REMARK    3  A    between atoms: N_9  and  C_10
REMARK    4  A    between atoms: C_13  and  C_14
REMARK                            x       y       z     vdW  Elec       q    Type
REMARK                         _______ _______ _______ _____ _____    ______ ____
ROOT
ATOM      1  C   UNL     1       0.639   2.724  19.486  0.00  0.00    +0.000 C 
ATOM      2  C   UNL     1       1.654   3.077  20.593  0.00  0.00    +0.000 C 
ATOM      3  C   UNL     1       1.112   2.525  21.925  0.00  0.00    +0.000 C 
ATOM      4  C   UNL     1       3.025   2.418  20.302  0.00  0.00    +0.000 C 
ATOM      5  C   UNL     1       3.642   2.933  19.007  0.00  0.00    +0.000 C 
ATOM      6  O   UNL     1       4.266   2.178  18.269  0.00  0.00    +0.000 OA
ATOM      7  C   UNL     1       3.473   4.359  18.760  0.00  0.00    +0.000 A 
ATOM      8  C   UNL     1       2.666   5.152  19.568  0.00  0.00    +0.000 A 
ATOM      9  N   UNL     1       2.714   6.463  19.094  0.00  0.00    +0.000 N 
ATOM     10  C   UNL     1       3.537   6.478  17.958  0.00  0.00    +0.000 A 
ATOM     11  C   UNL     1       4.006   7.509  17.122  0.00  0.00    +0.000 A 
ATOM     12  C   UNL     1       4.833   7.162  16.062  0.00  0.00    +0.000 A 
ATOM     13  C   UNL     1       5.193   5.839  15.907  0.00  0.00    +0.000 A 
ATOM     14  N   UNL     1       4.812   4.835  16.715  0.00  0.00    +0.000 NA
ATOM     15  C   UNL     1       3.991   5.174  17.739  0.00  0.00    +0.000 A 
ATOM     16  C   UNL     1       1.832   4.620  20.703  0.00  0.00    +0.000 C 
ENDROOT
BRANCH   9  17
ATOM     17  C   UNL     1       2.106   7.622  19.680  0.00  0.00    +0.000 A 
ATOM     18  C   UNL     1       1.652   8.677  18.884  0.00  0.00    +0.000 A 
ATOM     19  C   UNL     1       0.921   9.732  19.447  0.00  0.00    +0.000 A 
ATOM     20  C   UNL     1       0.633   9.747  20.816  0.00  0.00    +0.000 A 
ATOM     21  C   UNL     1       1.125   8.715  21.619  0.00  0.00    +0.000 A 
ATOM     22  C   UNL     1       1.876   7.678  21.061  0.00  0.00    +0.000 A 
BRANCH  20  23
ATOM     23  C   UNL     1      -0.181  10.807  21.474  0.00  0.00    +0.000 C 
ATOM     24  N   UNL     1      -1.022  11.553  20.702  0.00  0.00    +0.000 N 
ATOM     25  O   UNL     1      -0.110  11.012  22.676  0.00  0.00    +0.000 OA
ATOM     26  H   UNL     1      -1.159  11.454  19.711  0.00  0.00    +0.000 HD
ATOM     27  H   UNL     1      -1.564  12.258  21.180  0.00  0.00    +0.000 HD
ENDBRANCH  20  23
ENDBRANCH   9  17
TORSDOF 2
ENDMDL
MODEL 7
REMARK VINA RESULT:      -7.7      2.324      6.404
REMARK  Name = 
REMARK  4 active torsions:
REMARK  status: ('A' for Active; 'I' for Inactive)
REMARK    1  A    between atoms: C_1  and  C_2
REMARK    2  A    between atoms: C_2  and  C_3
REMARK    3  A    between atoms: N_9  and  C_10
REMARK    4  A    between atoms: C_13  and  C_14
REMARK                            x       y       z     vdW  Elec       q    Type
REMARK                         _______ _______ _______ _____ _____    ______ ____
ROOT
ATOM      1  C   UNL     1       0.561   8.468  17.681  0.00  0.00    +0.000 C 
ATOM      2  C   UNL     1       1.876   8.984  18.301  0.00  0.00    +0.000 C 
ATOM      3  C   UNL     1       2.144  10.392  17.737  0.00  0.00    +0.000 C 
ATOM      4  C   UNL     1       1.749   9.080  19.842  0.00  0.00    +0.000 C 
ATOM      5  C   UNL     1       1.508   7.717  20.480  0.00  0.00    +0.000 C 
ATOM      6  O   UNL     1       0.757   7.604  21.443  0.00  0.00    +0.000 OA
ATOM      7  C   UNL     1       2.259   6.614  19.897  0.00  0.00    +0.000 A 
ATOM      8  C   UNL     1       3.013   6.771  18.740  0.00  0.00    +0.000 A 
ATOM      9  N   UNL     1       3.622   5.553  18.437  0.00  0.00    +0.000 N 
ATOM     10  C   UNL     1       3.217   4.620  19.403  0.00  0.00    +0.000 A 
ATOM     11  C   UNL     1       3.563   3.277  19.649  0.00  0.00    +0.000 A 
ATOM     12  C   UNL     1       2.960   2.638  20.724  0.00  0.00    +0.000 A 
ATOM     13  C   UNL     1       2.095   3.356  21.524  0.00  0.00    +0.000 A 
ATOM     14  N   UNL     1       1.783   4.651  21.355  0.00  0.00    +0.000 NA
ATOM     15  C   UNL     1       2.358   5.270  20.295  0.00  0.00    +0.000 A 
ATOM     16  C   UNL     1       3.062   8.043  17.935  0.00  0.00    +0.000 C 
ENDROOT
BRANCH   9  17
ATOM     17  C   UNL     1       4.558   5.288  17.384  0.00  0.00    +0.000 A 
ATOM     18  C   UNL     1       4.324   4.271  16.453  0.00  0.00    +0.000 A 
ATOM     19  C   UNL     1       5.160   4.120  15.338  0.00  0.00    +0.000 A 
ATOM     20  C   UNL     1       6.243   4.983  15.139  0.00  0.00    +0.000 A 
ATOM     21  C   UNL     1       6.503   5.970  16.092  0.00  0.00    +0.000 A 
ATOM     22  C   UNL     1       5.685   6.103  17.216  0.00  0.00    +0.000 A 
BRANCH  20  23
ATOM     23  C   UNL     1       7.143   4.914  13.953  0.00  0.00    +0.000 C 
ATOM     24  N   UNL     1       6.816   4.063  12.938  0.00  0.00    +0.000 N 
ATOM     25  O   UNL     1       8.150   5.600  13.875  0.00  0.00    +0.000 OA
ATOM     26  H   UNL     1       6.006   3.468  12.903  0.00  0.00    +0.000 HD
ATOM     27  H   UNL     1       7.442   4.046  12.146  0.00  0.00    +0.000 HD
ENDBRANCH  20  23
ENDBRANCH   9  17
TORSDOF 2
ENDMDL
MODEL 8
REMARK VINA RESULT:      -7.7      0.942      1.412
REMARK  Name = 
REMARK  4 active torsions:
REMARK  status: ('A' for Active; 'I' for Inactive)
REMARK    1  A    between atoms: C_1  and  C_2
REMARK    2  A    between atoms: C_2  and  C_3
REMARK    3  A    between atoms: N_9  and  C_10
REMARK    4  A    between atoms: C_13  and  C_14
REMARK                            x       y       z     vdW  Elec       q    Type
REMARK                         _______ _______ _______ _____ _____    ______ ____
ROOT
ATOM      1  C   UNL     1       6.942   5.815  18.690  0.00  0.00    +0.000 C 
ATOM      2  C   UNL     1       6.182   6.369  17.468  0.00  0.00    +0.000 C 
ATOM      3  C   UNL     1       7.069   7.438  16.803  0.00  0.00    +0.000 C 
ATOM      4  C   UNL     1       5.909   5.241  16.442  0.00  0.00    +0.000 C 
ATOM      5  C   UNL     1       5.012   4.151  17.018  0.00  0.00    +0.000 C 
ATOM      6  O   UNL     1       5.201   2.973  16.735  0.00  0.00    +0.000 OA
ATOM      7  C   UNL     1       3.922   4.623  17.862  0.00  0.00    +0.000 A 
ATOM      8  C   UNL     1       3.813   5.955  18.242  0.00  0.00    +0.000 A 
ATOM      9  N   UNL     1       2.671   6.101  19.030  0.00  0.00    +0.000 N 
ATOM     10  C   UNL     1       2.080   4.836  19.165  0.00  0.00    +0.000 A 
ATOM     11  C   UNL     1       0.890   4.389  19.773  0.00  0.00    +0.000 A 
ATOM     12  C   UNL     1       0.600   3.033  19.713  0.00  0.00    +0.000 A 
ATOM     13  C   UNL     1       1.458   2.200  19.024  0.00  0.00    +0.000 A 
ATOM     14  N   UNL     1       2.572   2.596  18.386  0.00  0.00    +0.000 NA
ATOM     15  C   UNL     1       2.863   3.918  18.460  0.00  0.00    +0.000 A 
ATOM     16  C   UNL     1       4.832   7.011  17.905  0.00  0.00    +0.000 C 
ENDROOT
BRANCH   9  17
ATOM     17  C   UNL     1       2.129   7.319  19.558  0.00  0.00    +0.000 A 
ATOM     18  C   UNL     1       1.954   8.442  18.744  0.00  0.00    +0.000 A 
ATOM     19  C   UNL     1       1.281   9.573  19.224  0.00  0.00    +0.000 A 
ATOM     20  C   UNL     1       0.773   9.599  20.528  0.00  0.00    +0.000 A 
ATOM     21  C   UNL     1       0.987   8.495  21.356  0.00  0.00    +0.000 A 
ATOM     22  C   UNL     1       1.682   7.378  20.884  0.00  0.00    +0.000 A 
BRANCH  20  23
ATOM     23  C   UNL     1       0.005  10.745  21.089  0.00  0.00    +0.000 C 
ATOM     24  N   UNL     1      -1.083  11.197  20.401  0.00  0.00    +0.000 N 
ATOM     25  O   UNL     1       0.326  11.275  22.141  0.00  0.00    +0.000 OA
ATOM     26  H   UNL     1      -1.434  10.821  19.537  0.00  0.00    +0.000 HD
ATOM     27  H   UNL     1      -1.587  11.969  20.812  0.00  0.00    +0.000 HD
ENDBRANCH  20  23
ENDBRANCH   9  17
TORSDOF 2
ENDMDL
MODEL 9
REMARK VINA RESULT:      -7.4      2.355      6.461
REMARK  Name = 
REMARK  4 active torsions:
REMARK  status: ('A' for Active; 'I' for Inactive)
REMARK    1  A    between atoms: C_1  and  C_2
REMARK    2  A    between atoms: C_2  and  C_3
REMARK    3  A    between atoms: N_9  and  C_10
REMARK    4  A    between atoms: C_13  and  C_14
REMARK                            x       y       z     vdW  Elec       q    Type
REMARK                         _______ _______ _______ _____ _____    ______ ____
ROOT
ATOM      1  C   UNL     1       0.261   8.936  17.941  0.00  0.00    +0.000 C 
ATOM      2  C   UNL     1       1.650   9.376  18.448  0.00  0.00    +0.000 C 
ATOM      3  C   UNL     1       1.918  10.797  17.921  0.00  0.00    +0.000 C 
ATOM      4  C   UNL     1       1.677   9.407  19.997  0.00  0.00    +0.000 C 
ATOM      5  C   UNL     1       1.444   8.026  20.599  0.00  0.00    +0.000 C 
ATOM      6  O   UNL     1       0.786   7.896  21.626  0.00  0.00    +0.000 OA
ATOM      7  C   UNL     1       2.090   6.924  19.899  0.00  0.00    +0.000 A 
ATOM      8  C   UNL     1       2.734   7.106  18.681  0.00  0.00    +0.000 A 
ATOM      9  N   UNL     1       3.261   5.882  18.269  0.00  0.00    +0.000 N 
ATOM     10  C   UNL     1       2.915   4.922  19.230  0.00  0.00    +0.000 A 
ATOM     11  C   UNL     1       3.229   3.557  19.385  0.00  0.00    +0.000 A 
ATOM     12  C   UNL     1       2.708   2.892  20.487  0.00  0.00    +0.000 A 
ATOM     13  C   UNL     1       1.955   3.603  21.397  0.00  0.00    +0.000 A 
ATOM     14  N   UNL     1       1.680   4.915  21.314  0.00  0.00    +0.000 NA
ATOM     15  C   UNL     1       2.174   5.560  20.229  0.00  0.00    +0.000 A 
ATOM     16  C   UNL     1       2.755   8.411  17.928  0.00  0.00    +0.000 C 
ENDROOT
BRANCH   9  17
ATOM     17  C   UNL     1       4.079   5.631  17.118  0.00  0.00    +0.000 A 
ATOM     18  C   UNL     1       4.762   6.671  16.479  0.00  0.00    +0.000 A 
ATOM     19  C   UNL     1       5.680   6.397  15.456  0.00  0.00    +0.000 A 
ATOM     20  C   UNL     1       5.927   5.080  15.055  0.00  0.00    +0.000 A 
ATOM     21  C   UNL     1       5.212   4.046  15.662  0.00  0.00    +0.000 A 
ATOM     22  C   UNL     1       4.278   4.321  16.663  0.00  0.00    +0.000 A 
BRANCH  20  23
ATOM     23  C   UNL     1       6.924   4.711  14.011  0.00  0.00    +0.000 C 
ATOM     24  N   UNL     1       6.679   3.616  13.236  0.00  0.00    +0.000 N 
ATOM     25  O   UNL     1       7.940   5.367  13.839  0.00  0.00    +0.000 OA
ATOM     26  H   UNL     1       5.870   3.021  13.293  0.00  0.00    +0.000 HD
ATOM     27  H   UNL     1       7.370   3.397  12.534  0.00  0.00    +0.000 HD
ENDBRANCH  20  23
ENDBRANCH   9  17
TORSDOF 2
ENDMDL
