MODEL 1
REMARK VINA RESULT:      -6.4      0.000      0.000
REMARK  Name = 
REMARK  6 active torsions:
REMARK  status: ('A' for Active; 'I' for Inactive)
REMARK    1  A    between atoms: C_1  and  O_2
REMARK    2  A    between atoms: O_2  and  C_3
REMARK    3  A    between atoms: C_11  and  N_12
REMARK    4  A    between atoms: N_23  and  C_24
REMARK    5  A    between atoms: C_33  and  O_34
REMARK    6  A    between atoms: O_34  and  C_35
REMARK                            x       y       z     vdW  Elec       q    Type
REMARK                         _______ _______ _______ _____ _____    ______ ____
ROOT
ATOM      1  C   UNL     1      -6.286  12.749  17.968  0.00  0.00    +0.000 A 
ATOM      2  C   UNL     1      -4.979  12.256  17.766  0.00  0.00    +0.000 A 
ATOM      3  C   UNL     1      -4.014  12.208  18.773  0.00  0.00    +0.000 A 
ATOM      4  N   UNL     1      -2.822  11.649  18.519  0.00  0.00    +0.000 NA
ATOM      5  C   UNL     1      -1.934  11.611  19.510  0.00  0.00    +0.000 A 
ATOM      6  N   UNL     1      -0.699  10.977  19.369  0.00  0.00    +0.000 N 
ATOM      7  C   UNL     1      -0.274  10.311  20.603  0.00  0.00    +0.000 C 
ATOM      8  C   UNL     1       1.216  10.024  20.533  0.00  0.00    +0.000 C 
ATOM      9  C   UNL     1       1.648   9.234  19.283  0.00  0.00    +0.000 C 
ATOM     10  C   UNL     1       1.003   9.861  18.023  0.00  0.00    +0.000 C 
ATOM     11  C   UNL     1      -0.487  10.214  18.147  0.00  0.00    +0.000 C 
ATOM     12  N   UNL     1      -2.159  12.182  20.696  0.00  0.00    +0.000 NA
ATOM     13  C   UNL     1      -3.338  12.742  20.967  0.00  0.00    +0.000 A 
ATOM     14  N   UNL     1      -3.510  13.314  22.244  0.00  0.00    +0.000 N 
ATOM     15  C   UNL     1      -4.362  12.736  20.025  0.00  0.00    +0.000 A 
ATOM     16  C   UNL     1      -5.666  13.241  20.242  0.00  0.00    +0.000 A 
ATOM     17  C   UNL     1      -6.628  13.260  19.226  0.00  0.00    +0.000 A 
ATOM     18  H   UNL     1      -4.192  12.733  22.729  0.00  0.00    +0.000 HD
ENDROOT
BRANCH   9  19
ATOM     19  N   UNL     1       1.587   7.744  19.350  0.00  0.00    +0.000 NA
ATOM     20  C   UNL     1       2.440   7.123  18.320  0.00  0.00    +0.000 C 
ATOM     21  C   UNL     1       2.334   5.602  18.292  0.00  0.00    +0.000 C 
ATOM     22  C   UNL     1       2.645   5.034  19.661  0.00  0.00    +0.000 C 
ATOM     23  F   UNL     1       3.934   5.337  19.986  0.00  0.00    +0.000 F 
ATOM     24  C   UNL     1       1.722   5.639  20.698  0.00  0.00    +0.000 C 
ATOM     25  C   UNL     1       1.804   7.164  20.676  0.00  0.00    +0.000 C 
ENDBRANCH   9  19
BRANCH  14  26
ATOM     26  C   UNL     1      -2.273  13.507  23.040  0.00  0.00    +0.000 C 
ATOM     27  C   UNL     1      -1.299  14.468  22.330  0.00  0.00    +0.000 C 
ATOM     28  C   UNL     1      -1.807  15.892  22.117  0.00  0.00    +0.000 C 
ATOM     29  C   UNL     1      -1.643  16.828  23.309  0.00  0.00    +0.000 C 
ATOM     30  C   UNL     1      -2.268  16.403  24.632  0.00  0.00    +0.000 C 
ATOM     31  C   UNL     1      -1.875  15.020  25.140  0.00  0.00    +0.000 C 
ATOM     32  C   UNL     1      -2.665  13.897  24.478  0.00  0.00    +0.000 C 
ENDBRANCH  14  26
BRANCH   1  34
ATOM     33  C   UNL     1      -7.507  13.994  16.346  0.00  0.00    +0.000 C 
ATOM     34  O   UNL     1      -7.236  12.748  16.979  0.00  0.00    +0.000 OA
ENDBRANCH   1  34
BRANCH  17  35
ATOM     35  O   UNL     1      -7.819  13.772  19.660  0.00  0.00    +0.000 OA
ATOM     36  C   UNL     1      -7.860  14.973  20.416  0.00  0.00    +0.000 C 
ENDBRANCH  17  35
TORSDOF 4
ENDMDL
MODEL 2
REMARK VINA RESULT:      -6.4      2.902      5.512
REMARK  Name = 
REMARK  6 active torsions:
REMARK  status: ('A' for Active; 'I' for Inactive)
REMARK    1  A    between atoms: C_1  and  O_2
REMARK    2  A    between atoms: O_2  and  C_3
REMARK    3  A    between atoms: C_11  and  N_12
REMARK    4  A    between atoms: N_23  and  C_24
REMARK    5  A    between atoms: C_33  and  O_34
REMARK    6  A    between atoms: O_34  and  C_35
REMARK                            x       y       z     vdW  Elec       q    Type
REMARK                         _______ _______ _______ _____ _____    ______ ____
ROOT
ATOM      1  C   UNL     1       0.524  16.645  20.993  0.00  0.00    +0.000 A 
ATOM      2  C   UNL     1       0.850  15.330  21.392  0.00  0.00    +0.000 A 
ATOM      3  C   UNL     1       0.034  14.227  21.137  0.00  0.00    +0.000 A 
ATOM      4  N   UNL     1       0.456  13.002  21.479  0.00  0.00    +0.000 NA
ATOM      5  C   UNL     1      -0.346  11.974  21.206  0.00  0.00    +0.000 A 
ATOM      6  N   UNL     1       0.039  10.655  21.448  0.00  0.00    +0.000 N 
ATOM      7  C   UNL     1      -0.462   9.735  20.424  0.00  0.00    +0.000 C 
ATOM      8  C   UNL     1      -0.393   8.311  20.947  0.00  0.00    +0.000 C 
ATOM      9  C   UNL     1       1.001   7.893  21.453  0.00  0.00    +0.000 C 
ATOM     10  C   UNL     1       1.573   8.998  22.374  0.00  0.00    +0.000 C 
ATOM     11  C   UNL     1       1.419  10.436  21.857  0.00  0.00    +0.000 C 
ATOM     12  N   UNL     1      -1.568  12.135  20.696  0.00  0.00    +0.000 NA
ATOM     13  C   UNL     1      -2.006  13.346  20.350  0.00  0.00    +0.000 A 
ATOM     14  N   UNL     1      -3.302  13.441  19.804  0.00  0.00    +0.000 N 
ATOM     15  C   UNL     1      -1.194  14.466  20.503  0.00  0.00    +0.000 A 
ATOM     16  C   UNL     1      -1.539  15.778  20.103  0.00  0.00    +0.000 A 
ATOM     17  C   UNL     1      -0.698  16.870  20.346  0.00  0.00    +0.000 A 
ATOM     18  H   UNL     1      -3.184  13.707  18.829  0.00  0.00    +0.000 HD
ENDROOT
BRANCH   9  19
ATOM     19  N   UNL     1       1.963   7.339  20.456  0.00  0.00    +0.000 NA
ATOM     20  C   UNL     1       1.932   5.865  20.438  0.00  0.00    +0.000 C 
ATOM     21  C   UNL     1       2.969   5.256  19.499  0.00  0.00    +0.000 C 
ATOM     22  C   UNL     1       2.798   5.815  18.102  0.00  0.00    +0.000 C 
ATOM     23  F   UNL     1       1.571   5.456  17.627  0.00  0.00    +0.000 F 
ATOM     24  C   UNL     1       2.890   7.326  18.131  0.00  0.00    +0.000 C 
ATOM     25  C   UNL     1       1.879   7.915  19.113  0.00  0.00    +0.000 C 
ENDBRANCH   9  19
BRANCH  14  26
ATOM     26  C   UNL     1      -4.158  12.238  19.955  0.00  0.00    +0.000 C 
ATOM     27  C   UNL     1      -5.357  12.523  20.883  0.00  0.00    +0.000 C 
ATOM     28  C   UNL     1      -6.333  13.592  20.398  0.00  0.00    +0.000 C 
ATOM     29  C   UNL     1      -7.390  13.112  19.410  0.00  0.00    +0.000 C 
ATOM     30  C   UNL     1      -6.906  12.441  18.130  0.00  0.00    +0.000 C 
ATOM     31  C   UNL     1      -5.952  11.266  18.314  0.00  0.00    +0.000 C 
ATOM     32  C   UNL     1      -4.512  11.702  18.555  0.00  0.00    +0.000 C 
ENDBRANCH  14  26
BRANCH   1  34
ATOM     33  C   UNL     1       2.505  17.812  20.375  0.00  0.00    +0.000 C 
ATOM     34  O   UNL     1       1.358  17.710  21.212  0.00  0.00    +0.000 OA
ENDBRANCH   1  34
BRANCH  17  35
ATOM     35  O   UNL     1      -1.220  18.035  19.859  0.00  0.00    +0.000 OA
ATOM     36  C   UNL     1      -1.295  18.270  18.461  0.00  0.00    +0.000 C 
ENDBRANCH  17  35
TORSDOF 4
ENDMDL
MODEL 3
REMARK VINA RESULT:      -6.3      2.078      3.275
REMARK  Name = 
REMARK  6 active torsions:
REMARK  status: ('A' for Active; 'I' for Inactive)
REMARK    1  A    between atoms: C_1  and  O_2
REMARK    2  A    between atoms: O_2  and  C_3
REMARK    3  A    between atoms: C_11  and  N_12
REMARK    4  A    between atoms: N_23  and  C_24
REMARK    5  A    between atoms: C_33  and  O_34
REMARK    6  A    between atoms: O_34  and  C_35
REMARK                            x       y       z     vdW  Elec       q    Type
REMARK                         _______ _______ _______ _____ _____    ______ ____
ROOT
ATOM      1  C   UNL     1      -3.681  10.733  15.631  0.00  0.00    +0.000 A 
ATOM      2  C   UNL     1      -2.442  10.104  15.881  0.00  0.00    +0.000 A 
ATOM      3  C   UNL     1      -1.784  10.171  17.110  0.00  0.00    +0.000 A 
ATOM      4  N   UNL     1      -0.650   9.478  17.289  0.00  0.00    +0.000 NA
ATOM      5  C   UNL     1      -0.060   9.557  18.480  0.00  0.00    +0.000 A 
ATOM      6  N   UNL     1       1.077   8.809  18.790  0.00  0.00    +0.000 N 
ATOM      7  C   UNL     1       1.080   8.359  20.184  0.00  0.00    +0.000 C 
ATOM      8  C   UNL     1       2.487   7.942  20.577  0.00  0.00    +0.000 C 
ATOM      9  C   UNL     1       3.117   6.894  19.640  0.00  0.00    +0.000 C 
ATOM     10  C   UNL     1       2.906   7.319  18.166  0.00  0.00    +0.000 C 
ATOM     11  C   UNL     1       1.494   7.811  17.815  0.00  0.00    +0.000 C 
ATOM     12  N   UNL     1      -0.505  10.361  19.448  0.00  0.00    +0.000 NA
ATOM     13  C   UNL     1      -1.630  11.058  19.288  0.00  0.00    +0.000 A 
ATOM     14  N   UNL     1      -2.048  11.876  20.357  0.00  0.00    +0.000 N 
ATOM     15  C   UNL     1      -2.369  10.956  18.114  0.00  0.00    +0.000 A 
ATOM     16  C   UNL     1      -3.607  11.599  17.877  0.00  0.00    +0.000 A 
ATOM     17  C   UNL     1      -4.266  11.502  16.646  0.00  0.00    +0.000 A 
ATOM     18  H   UNL     1      -2.901  11.457  20.722  0.00  0.00    +0.000 HD
ENDROOT
BRANCH   9  19
ATOM     19  N   UNL     1       2.847   5.455  19.928  0.00  0.00    +0.000 NA
ATOM     20  C   UNL     1       1.466   5.250  20.403  0.00  0.00    +0.000 C 
ATOM     21  C   UNL     1       1.178   3.805  20.799  0.00  0.00    +0.000 C 
ATOM     22  C   UNL     1       1.493   2.877  19.645  0.00  0.00    +0.000 C 
ATOM     23  F   UNL     1       0.671   3.175  18.599  0.00  0.00    +0.000 F 
ATOM     24  C   UNL     1       2.931   3.059  19.207  0.00  0.00    +0.000 C 
ATOM     25  C   UNL     1       3.215   4.520  18.864  0.00  0.00    +0.000 C 
ENDBRANCH   9  19
BRANCH  14  26
ATOM     26  C   UNL     1      -1.043  12.115  21.422  0.00  0.00    +0.000 C 
ATOM     27  C   UNL     1      -0.002  13.163  20.979  0.00  0.00    +0.000 C 
ATOM     28  C   UNL     1      -0.548  14.559  20.688  0.00  0.00    +0.000 C 
ATOM     29  C   UNL     1      -0.726  15.457  21.907  0.00  0.00    +0.000 C 
ATOM     30  C   UNL     1      -1.606  14.942  23.040  0.00  0.00    +0.000 C 
ATOM     31  C   UNL     1      -1.243  13.567  23.592  0.00  0.00    +0.000 C 
ATOM     32  C   UNL     1      -1.780  12.424  22.739  0.00  0.00    +0.000 C 
ENDBRANCH  14  26
BRANCH   1  34
ATOM     33  C   UNL     1      -3.661   9.919  13.393  0.00  0.00    +0.000 C 
ATOM     34  O   UNL     1      -4.337  10.620  14.432  0.00  0.00    +0.000 OA
ENDBRANCH   1  34
BRANCH  17  35
ATOM     35  O   UNL     1      -5.450  12.184  16.645  0.00  0.00    +0.000 OA
ATOM     36  C   UNL     1      -6.142  12.439  17.858  0.00  0.00    +0.000 C 
ENDBRANCH  17  35
TORSDOF 4
ENDMDL
MODEL 4
REMARK VINA RESULT:      -6.2      4.612      8.882
REMARK  Name = 
REMARK  6 active torsions:
REMARK  status: ('A' for Active; 'I' for Inactive)
REMARK    1  A    between atoms: C_1  and  O_2
REMARK    2  A    between atoms: O_2  and  C_3
REMARK    3  A    between atoms: C_11  and  N_12
REMARK    4  A    between atoms: N_23  and  C_24
REMARK    5  A    between atoms: C_33  and  O_34
REMARK    6  A    between atoms: O_34  and  C_35
REMARK                            x       y       z     vdW  Elec       q    Type
REMARK                         _______ _______ _______ _____ _____    ______ ____
ROOT
ATOM      1  C   UNL     1       1.042   9.685  19.912  0.00  0.00    +0.000 A 
ATOM      2  C   UNL     1       0.327  10.355  20.930  0.00  0.00    +0.000 A 
ATOM      3  C   UNL     1      -0.008  11.708  20.867  0.00  0.00    +0.000 A 
ATOM      4  N   UNL     1      -0.758  12.247  21.838  0.00  0.00    +0.000 NA
ATOM      5  C   UNL     1      -1.067  13.538  21.734  0.00  0.00    +0.000 A 
ATOM      6  N   UNL     1      -1.911  14.170  22.650  0.00  0.00    +0.000 N 
ATOM      7  C   UNL     1      -2.768  15.172  22.012  0.00  0.00    +0.000 C 
ATOM      8  C   UNL     1      -3.329  16.103  23.073  0.00  0.00    +0.000 C 
ATOM      9  C   UNL     1      -4.057  15.381  24.223  0.00  0.00    +0.000 C 
ATOM     10  C   UNL     1      -3.192  14.199  24.725  0.00  0.00    +0.000 C 
ATOM     11  C   UNL     1      -2.572  13.320  23.629  0.00  0.00    +0.000 C 
ATOM     12  N   UNL     1      -0.588  14.313  20.760  0.00  0.00    +0.000 NA
ATOM     13  C   UNL     1       0.160  13.795  19.785  0.00  0.00    +0.000 A 
ATOM     14  N   UNL     1       0.621  14.670  18.781  0.00  0.00    +0.000 N 
ATOM     15  C   UNL     1       0.448  12.434  19.757  0.00  0.00    +0.000 A 
ATOM     16  C   UNL     1       1.171  11.780  18.732  0.00  0.00    +0.000 A 
ATOM     17  C   UNL     1       1.478  10.416  18.800  0.00  0.00    +0.000 A 
ATOM     18  H   UNL     1       0.138  14.406  17.925  0.00  0.00    +0.000 HD
ENDROOT
BRANCH   9  19
ATOM     19  N   UNL     1      -5.506  15.073  24.041  0.00  0.00    +0.000 NA
ATOM     20  C   UNL     1      -6.132  15.982  23.064  0.00  0.00    +0.000 C 
ATOM     21  C   UNL     1      -7.635  15.762  22.918  0.00  0.00    +0.000 C 
ATOM     22  C   UNL     1      -7.917  14.316  22.566  0.00  0.00    +0.000 C 
ATOM     23  F   UNL     1      -7.354  14.037  21.355  0.00  0.00    +0.000 F 
ATOM     24  C   UNL     1      -7.316  13.398  23.609  0.00  0.00    +0.000 C 
ATOM     25  C   UNL     1      -5.823  13.668  23.777  0.00  0.00    +0.000 C 
ENDBRANCH   9  19
BRANCH  14  26
ATOM     26  C   UNL     1       0.490  16.119  19.073  0.00  0.00    +0.000 C 
ATOM     27  C   UNL     1       1.859  16.826  19.007  0.00  0.00    +0.000 C 
ATOM     28  C   UNL     1       2.554  16.802  17.649  0.00  0.00    +0.000 C 
ATOM     29  C   UNL     1       2.108  17.879  16.667  0.00  0.00    +0.000 C 
ATOM     30  C   UNL     1       0.625  17.950  16.325  0.00  0.00    +0.000 C 
ATOM     31  C   UNL     1      -0.328  18.055  17.511  0.00  0.00    +0.000 C 
ATOM     32  C   UNL     1      -0.609  16.709  18.168  0.00  0.00    +0.000 C 
ENDBRANCH  14  26
BRANCH   1  34
ATOM     33  C   UNL     1       1.075   7.687  21.208  0.00  0.00    +0.000 C 
ATOM     34  O   UNL     1       1.324   8.345  19.970  0.00  0.00    +0.000 OA
ENDBRANCH   1  34
BRANCH  17  35
ATOM     35  O   UNL     1       2.165   9.991  17.697  0.00  0.00    +0.000 OA
ATOM     36  C   UNL     1       2.571   8.637  17.572  0.00  0.00    +0.000 C 
ENDBRANCH  17  35
TORSDOF 4
ENDMDL
MODEL 5
REMARK VINA RESULT:      -6.1      3.412      5.284
REMARK  Name = 
REMARK  6 active torsions:
REMARK  status: ('A' for Active; 'I' for Inactive)
REMARK    1  A    between atoms: C_1  and  O_2
REMARK    2  A    between atoms: O_2  and  C_3
REMARK    3  A    between atoms: C_11  and  N_12
REMARK    4  A    between atoms: N_23  and  C_24
REMARK    5  A    between atoms: C_33  and  O_34
REMARK    6  A    between atoms: O_34  and  C_35
REMARK                            x       y       z     vdW  Elec       q    Type
REMARK                         _______ _______ _______ _____ _____    ______ ____
ROOT
ATOM      1  C   UNL     1       1.569  16.371  19.322  0.00  0.00    +0.000 A 
ATOM      2  C   UNL     1       1.801  15.098  19.888  0.00  0.00    +0.000 A 
ATOM      3  C   UNL     1       0.783  14.180  20.151  0.00  0.00    +0.000 A 
ATOM      4  N   UNL     1       1.098  12.962  20.615  0.00  0.00    +0.000 NA
ATOM      5  C   UNL     1       0.099  12.111  20.840  0.00  0.00    +0.000 A 
ATOM      6  N   UNL     1       0.331  10.795  21.243  0.00  0.00    +0.000 N 
ATOM      7  C   UNL     1      -0.632   9.858  20.657  0.00  0.00    +0.000 C 
ATOM      8  C   UNL     1      -0.613   8.558  21.441  0.00  0.00    +0.000 C 
ATOM      9  C   UNL     1       0.785   7.925  21.576  0.00  0.00    +0.000 C 
ATOM     10  C   UNL     1       1.807   9.007  22.003  0.00  0.00    +0.000 C 
ATOM     11  C   UNL     1       1.714  10.341  21.247  0.00  0.00    +0.000 C 
ATOM     12  N   UNL     1      -1.182  12.458  20.706  0.00  0.00    +0.000 NA
ATOM     13  C   UNL     1      -1.515  13.664  20.247  0.00  0.00    +0.000 A 
ATOM     14  N   UNL     1      -2.887  13.958  20.118  0.00  0.00    +0.000 N 
ATOM     15  C   UNL     1      -0.534  14.584  19.888  0.00  0.00    +0.000 A 
ATOM     16  C   UNL     1      -0.784  15.858  19.327  0.00  0.00    +0.000 A 
ATOM     17  C   UNL     1       0.251  16.758  19.048  0.00  0.00    +0.000 A 
ATOM     18  H   UNL     1      -3.073  14.032  19.120  0.00  0.00    +0.000 HD
ENDROOT
BRANCH   9  19
ATOM     19  N   UNL     1       1.244   7.017  20.484  0.00  0.00    +0.000 NA
ATOM     20  C   UNL     1       2.212   7.688  19.596  0.00  0.00    +0.000 C 
ATOM     21  C   UNL     1       2.635   6.825  18.411  0.00  0.00    +0.000 C 
ATOM     22  C   UNL     1       3.181   5.500  18.901  0.00  0.00    +0.000 C 
ATOM     23  F   UNL     1       4.301   5.730  19.645  0.00  0.00    +0.000 F 
ATOM     24  C   UNL     1       2.153   4.799  19.763  0.00  0.00    +0.000 C 
ATOM     25  C   UNL     1       1.705   5.696  20.914  0.00  0.00    +0.000 C 
ENDBRANCH   9  19
BRANCH  14  26
ATOM     26  C   UNL     1      -3.818  13.018  20.792  0.00  0.00    +0.000 C 
ATOM     27  C   UNL     1      -4.349  13.613  22.112  0.00  0.00    +0.000 C 
ATOM     28  C   UNL     1      -5.173  14.891  21.980  0.00  0.00    +0.000 C 
ATOM     29  C   UNL     1      -6.645  14.687  21.642  0.00  0.00    +0.000 C 
ATOM     30  C   UNL     1      -6.976  13.899  20.380  0.00  0.00    +0.000 C 
ATOM     31  C   UNL     1      -6.334  12.520  20.269  0.00  0.00    +0.000 C 
ATOM     32  C   UNL     1      -4.891  12.575  19.781  0.00  0.00    +0.000 C 
ENDBRANCH  14  26
BRANCH   1  34
ATOM     33  C   UNL     1       3.807  16.677  18.570  0.00  0.00    +0.000 C 
ATOM     34  O   UNL     1       2.585  17.244  19.029  0.00  0.00    +0.000 OA
ENDBRANCH   1  34
BRANCH  17  35
ATOM     35  O   UNL     1      -0.216  17.917  18.495  0.00  0.00    +0.000 OA
ATOM     36  C   UNL     1      -0.247  18.089  17.086  0.00  0.00    +0.000 C 
ENDBRANCH  17  35
TORSDOF 4
ENDMDL
MODEL 6
REMARK VINA RESULT:      -6.0      6.932      8.090
REMARK  Name = 
REMARK  6 active torsions:
REMARK  status: ('A' for Active; 'I' for Inactive)
REMARK    1  A    between atoms: C_1  and  O_2
REMARK    2  A    between atoms: O_2  and  C_3
REMARK    3  A    between atoms: C_11  and  N_12
REMARK    4  A    between atoms: N_23  and  C_24
REMARK    5  A    between atoms: C_33  and  O_34
REMARK    6  A    between atoms: O_34  and  C_35
REMARK                            x       y       z     vdW  Elec       q    Type
REMARK                         _______ _______ _______ _____ _____    ______ ____
ROOT
ATOM      1  C   UNL     1       0.318  12.620  19.165  0.00  0.00    +0.000 A 
ATOM      2  C   UNL     1       1.570  13.033  18.659  0.00  0.00    +0.000 A 
ATOM      3  C   UNL     1       2.468  13.818  19.384  0.00  0.00    +0.000 A 
ATOM      4  N   UNL     1       3.669  14.099  18.860  0.00  0.00    +0.000 NA
ATOM      5  C   UNL     1       4.502  14.840  19.589  0.00  0.00    +0.000 A 
ATOM      6  N   UNL     1       5.804  15.116  19.167  0.00  0.00    +0.000 N 
ATOM      7  C   UNL     1       6.753  15.147  20.283  0.00  0.00    +0.000 C 
ATOM      8  C   UNL     1       8.022  15.857  19.846  0.00  0.00    +0.000 C 
ATOM      9  C   UNL     1       8.663  15.275  18.571  0.00  0.00    +0.000 C 
ATOM     10  C   UNL     1       7.574  15.071  17.488  0.00  0.00    +0.000 C 
ATOM     11  C   UNL     1       6.270  14.422  17.975  0.00  0.00    +0.000 C 
ATOM     12  N   UNL     1       4.149  15.374  20.759  0.00  0.00    +0.000 NA
ATOM     13  C   UNL     1       2.958  15.107  21.296  0.00  0.00    +0.000 A 
ATOM     14  N   UNL     1       2.656  15.694  22.541  0.00  0.00    +0.000 N 
ATOM     15  C   UNL     1       2.062  14.258  20.653  0.00  0.00    +0.000 A 
ATOM     16  C   UNL     1       0.808  13.858  21.172  0.00  0.00    +0.000 A 
ATOM     17  C   UNL     1      -0.070  13.051  20.441  0.00  0.00    +0.000 A 
ATOM     18  H   UNL     1       2.620  14.933  23.216  0.00  0.00    +0.000 HD
ENDROOT
BRANCH   9  19
ATOM     19  N   UNL     1       9.616  14.139  18.731  0.00  0.00    +0.000 NA
ATOM     20  C   UNL     1       9.428  13.125  17.677  0.00  0.00    +0.000 C 
ATOM     21  C   UNL     1      10.320  11.900  17.858  0.00  0.00    +0.000 C 
ATOM     22  C   UNL     1      11.772  12.323  17.945  0.00  0.00    +0.000 C 
ATOM     23  F   UNL     1      12.135  12.909  16.769  0.00  0.00    +0.000 F 
ATOM     24  C   UNL     1      11.958  13.320  19.069  0.00  0.00    +0.000 C 
ATOM     25  C   UNL     1      11.022  14.514  18.898  0.00  0.00    +0.000 C 
ENDBRANCH   9  19
BRANCH  14  26
ATOM     26  C   UNL     1       3.561  16.786  22.979  0.00  0.00    +0.000 C 
ATOM     27  C   UNL     1       2.790  18.112  23.146  0.00  0.00    +0.000 C 
ATOM     28  C   UNL     1       1.694  18.114  24.208  0.00  0.00    +0.000 C 
ATOM     29  C   UNL     1       2.168  18.371  25.634  0.00  0.00    +0.000 C 
ATOM     30  C   UNL     1       3.235  17.443  26.201  0.00  0.00    +0.000 C 
ATOM     31  C   UNL     1       4.504  17.298  25.367  0.00  0.00    +0.000 C 
ATOM     32  C   UNL     1       4.348  16.312  24.215  0.00  0.00    +0.000 C 
ENDBRANCH  14  26
BRANCH   1  34
ATOM     33  C   UNL     1      -0.405  10.408  18.660  0.00  0.00    +0.000 C 
ATOM     34  O   UNL     1      -0.533  11.812  18.457  0.00  0.00    +0.000 OA
ENDBRANCH   1  34
BRANCH  17  35
ATOM     35  O   UNL     1      -1.212  12.774  21.139  0.00  0.00    +0.000 OA
ATOM     36  C   UNL     1      -1.155  12.082  22.377  0.00  0.00    +0.000 C 
ENDBRANCH  17  35
TORSDOF 4
ENDMDL
MODEL 7
REMARK VINA RESULT:      -6.0      3.396      4.758
REMARK  Name = 
REMARK  6 active torsions:
REMARK  status: ('A' for Active; 'I' for Inactive)
REMARK    1  A    between atoms: C_1  and  O_2
REMARK    2  A    between atoms: O_2  and  C_3
REMARK    3  A    between atoms: C_11  and  N_12
REMARK    4  A    between atoms: N_23  and  C_24
REMARK    5  A    between atoms: C_33  and  O_34
REMARK    6  A    between atoms: O_34  and  C_35
REMARK                            x       y       z     vdW  Elec       q    Type
REMARK                         _______ _______ _______ _____ _____    ______ ____
ROOT
ATOM      1  C   UNL     1      -3.241  12.968  23.936  0.00  0.00    +0.000 A 
ATOM      2  C   UNL     1      -2.780  12.210  22.837  0.00  0.00    +0.000 A 
ATOM      3  C   UNL     1      -1.669  12.569  22.072  0.00  0.00    +0.000 A 
ATOM      4  N   UNL     1      -1.250  11.751  21.095  0.00  0.00    +0.000 NA
ATOM      5  C   UNL     1      -0.179  12.123  20.397  0.00  0.00    +0.000 A 
ATOM      6  N   UNL     1       0.382  11.302  19.417  0.00  0.00    +0.000 N 
ATOM      7  C   UNL     1       1.844  11.402  19.382  0.00  0.00    +0.000 C 
ATOM      8  C   UNL     1       2.356  10.850  18.063  0.00  0.00    +0.000 C 
ATOM      9  C   UNL     1       1.876   9.420  17.750  0.00  0.00    +0.000 C 
ATOM     10  C   UNL     1       0.351   9.317  18.000  0.00  0.00    +0.000 C 
ATOM     11  C   UNL     1      -0.150   9.952  19.305  0.00  0.00    +0.000 C 
ATOM     12  N   UNL     1       0.420  13.301  20.577  0.00  0.00    +0.000 NA
ATOM     13  C   UNL     1       0.018  14.128  21.542  0.00  0.00    +0.000 A 
ATOM     14  N   UNL     1       0.705  15.350  21.685  0.00  0.00    +0.000 N 
ATOM     15  C   UNL     1      -1.029  13.776  22.389  0.00  0.00    +0.000 A 
ATOM     16  C   UNL     1      -1.483  14.550  23.483  0.00  0.00    +0.000 A 
ATOM     17  C   UNL     1      -2.584  14.163  24.255  0.00  0.00    +0.000 A 
ATOM     18  H   UNL     1       1.205  15.297  22.570  0.00  0.00    +0.000 HD
ENDROOT
BRANCH   9  19
ATOM     19  N   UNL     1       2.683   8.285  18.285  0.00  0.00    +0.000 NA
ATOM     20  C   UNL     1       1.844   7.333  19.036  0.00  0.00    +0.000 C 
ATOM     21  C   UNL     1       2.646   6.207  19.681  0.00  0.00    +0.000 C 
ATOM     22  C   UNL     1       3.468   5.488  18.632  0.00  0.00    +0.000 C 
ATOM     23  F   UNL     1       2.626   4.910  17.728  0.00  0.00    +0.000 F 
ATOM     24  C   UNL     1       4.366   6.470  17.910  0.00  0.00    +0.000 C 
ATOM     25  C   UNL     1       3.552   7.616  17.314  0.00  0.00    +0.000 C 
ENDBRANCH   9  19
BRANCH  14  26
ATOM     26  C   UNL     1       1.597  15.727  20.560  0.00  0.00    +0.000 C 
ATOM     27  C   UNL     1       1.388  17.200  20.154  0.00  0.00    +0.000 C 
ATOM     28  C   UNL     1       1.714  18.236  21.226  0.00  0.00    +0.000 C 
ATOM     29  C   UNL     1       3.186  18.621  21.336  0.00  0.00    +0.000 C 
ATOM     30  C   UNL     1       4.191  17.502  21.582  0.00  0.00    +0.000 C 
ATOM     31  C   UNL     1       4.143  16.337  20.599  0.00  0.00    +0.000 C 
ATOM     32  C   UNL     1       3.042  15.333  20.921  0.00  0.00    +0.000 C 
ENDBRANCH  14  26
BRANCH   1  34
ATOM     33  C   UNL     1      -5.604  12.789  24.160  0.00  0.00    +0.000 C 
ATOM     34  O   UNL     1      -4.306  12.578  24.706  0.00  0.00    +0.000 OA
ENDBRANCH   1  34
BRANCH  17  35
ATOM     35  O   UNL     1      -2.833  15.047  25.267  0.00  0.00    +0.000 OA
ATOM     36  C   UNL     1      -3.423  16.310  25.000  0.00  0.00    +0.000 C 
ENDBRANCH  17  35
TORSDOF 4
ENDMDL
MODEL 8
REMARK VINA RESULT:      -5.9      6.638      8.235
REMARK  Name = 
REMARK  6 active torsions:
REMARK  status: ('A' for Active; 'I' for Inactive)
REMARK    1  A    between atoms: C_1  and  O_2
REMARK    2  A    between atoms: O_2  and  C_3
REMARK    3  A    between atoms: C_11  and  N_12
REMARK    4  A    between atoms: N_23  and  C_24
REMARK    5  A    between atoms: C_33  and  O_34
REMARK    6  A    between atoms: O_34  and  C_35
REMARK                            x       y       z     vdW  Elec       q    Type
REMARK                         _______ _______ _______ _____ _____    ______ ____
ROOT
ATOM      1  C   UNL     1       1.236  10.466  18.150  0.00  0.00    +0.000 A 
ATOM      2  C   UNL     1       2.404  11.206  17.862  0.00  0.00    +0.000 A 
ATOM      3  C   UNL     1       2.583  12.535  18.251  0.00  0.00    +0.000 A 
ATOM      4  N   UNL     1       3.755  13.140  18.008  0.00  0.00    +0.000 NA
ATOM      5  C   UNL     1       3.891  14.403  18.407  0.00  0.00    +0.000 A 
ATOM      6  N   UNL     1       5.098  15.092  18.274  0.00  0.00    +0.000 N 
ATOM      7  C   UNL     1       5.345  15.997  19.399  0.00  0.00    +0.000 C 
ATOM      8  C   UNL     1       6.410  17.008  19.008  0.00  0.00    +0.000 C 
ATOM      9  C   UNL     1       7.716  16.376  18.489  0.00  0.00    +0.000 C 
ATOM     10  C   UNL     1       7.385  15.279  17.447  0.00  0.00    +0.000 C 
ATOM     11  C   UNL     1       6.251  14.319  17.834  0.00  0.00    +0.000 C 
ATOM     12  N   UNL     1       2.887  15.096  18.947  0.00  0.00    +0.000 NA
ATOM     13  C   UNL     1       1.715  14.512  19.196  0.00  0.00    +0.000 A 
ATOM     14  N   UNL     1       0.703  15.300  19.781  0.00  0.00    +0.000 N 
ATOM     15  C   UNL     1       1.516  13.165  18.907  0.00  0.00    +0.000 A 
ATOM     16  C   UNL     1       0.337  12.439  19.197  0.00  0.00    +0.000 A 
ATOM     17  C   UNL     1       0.183  11.100  18.821  0.00  0.00    +0.000 A 
ATOM     18  H   UNL     1       0.564  14.937  20.722  0.00  0.00    +0.000 HD
ENDROOT
BRANCH   9  19
ATOM     19  N   UNL     1       8.753  16.002  19.494  0.00  0.00    +0.000 NA
ATOM     20  C   UNL     1       8.620  14.592  19.906  0.00  0.00    +0.000 C 
ATOM     21  C   UNL     1       9.602  14.194  21.004  0.00  0.00    +0.000 C 
ATOM     22  C   UNL     1      11.021  14.496  20.567  0.00  0.00    +0.000 C 
ATOM     23  F   UNL     1      11.318  13.738  19.473  0.00  0.00    +0.000 F 
ATOM     24  C   UNL     1      11.154  15.959  20.203  0.00  0.00    +0.000 C 
ATOM     25  C   UNL     1      10.130  16.351  19.140  0.00  0.00    +0.000 C 
ENDBRANCH   9  19
BRANCH  14  26
ATOM     26  C   UNL     1       0.938  16.765  19.776  0.00  0.00    +0.000 C 
ATOM     27  C   UNL     1       0.217  17.440  18.592  0.00  0.00    +0.000 C 
ATOM     28  C   UNL     1      -1.305  17.328  18.590  0.00  0.00    +0.000 C 
ATOM     29  C   UNL     1      -2.037  18.358  19.443  0.00  0.00    +0.000 C 
ATOM     30  C   UNL     1      -1.671  18.440  20.920  0.00  0.00    +0.000 C 
ATOM     31  C   UNL     1      -0.189  18.628  21.229  0.00  0.00    +0.000 C 
ATOM     32  C   UNL     1       0.600  17.326  21.170  0.00  0.00    +0.000 C 
ENDBRANCH  14  26
BRANCH   1  34
ATOM     33  C   UNL     1       2.149   8.267  18.170  0.00  0.00    +0.000 C 
ATOM     34  O   UNL     1       1.094   9.148  17.800  0.00  0.00    +0.000 OA
ENDBRANCH   1  34
BRANCH  17  35
ATOM     35  O   UNL     1      -1.023  10.594  19.217  0.00  0.00    +0.000 OA
ATOM     36  C   UNL     1      -2.112  10.515  18.308  0.00  0.00    +0.000 C 
ENDBRANCH  17  35
TORSDOF 4
ENDMDL
MODEL 9
REMARK VINA RESULT:      -5.9      7.006      8.194
REMARK  Name = 
REMARK  6 active torsions:
REMARK  status: ('A' for Active; 'I' for Inactive)
REMARK    1  A    between atoms: C_1  and  O_2
REMARK    2  A    between atoms: O_2  and  C_3
REMARK    3  A    between atoms: C_11  and  N_12
REMARK    4  A    between atoms: N_23  and  C_24
REMARK    5  A    between atoms: C_33  and  O_34
REMARK    6  A    between atoms: O_34  and  C_35
REMARK                            x       y       z     vdW  Elec       q    Type
REMARK                         _______ _______ _______ _____ _____    ______ ____
ROOT
ATOM      1  C   UNL     1       0.597  12.799  19.242  0.00  0.00    +0.000 A 
ATOM      2  C   UNL     1       1.842  13.218  18.725  0.00  0.00    +0.000 A 
ATOM      3  C   UNL     1       2.781  13.931  19.473  0.00  0.00    +0.000 A 
ATOM      4  N   UNL     1       3.973  14.219  18.931  0.00  0.00    +0.000 NA
ATOM      5  C   UNL     1       4.845  14.889  19.681  0.00  0.00    +0.000 A 
ATOM      6  N   UNL     1       6.140  15.164  19.237  0.00  0.00    +0.000 N 
ATOM      7  C   UNL     1       7.123  15.097  20.321  0.00  0.00    +0.000 C 
ATOM      8  C   UNL     1       8.396  15.807  19.893  0.00  0.00    +0.000 C 
ATOM      9  C   UNL     1       8.982  15.300  18.562  0.00  0.00    +0.000 C 
ATOM     10  C   UNL     1       7.856  15.196  17.503  0.00  0.00    +0.000 C 
ATOM     11  C   UNL     1       6.552  14.544  17.986  0.00  0.00    +0.000 C 
ATOM     12  N   UNL     1       4.541  15.349  20.896  0.00  0.00    +0.000 NA
ATOM     13  C   UNL     1       3.361  15.072  21.451  0.00  0.00    +0.000 A 
ATOM     14  N   UNL     1       3.112  15.579  22.743  0.00  0.00    +0.000 N 
ATOM     15  C   UNL     1       2.426  14.290  20.781  0.00  0.00    +0.000 A 
ATOM     16  C   UNL     1       1.179  13.884  21.312  0.00  0.00    +0.000 A 
ATOM     17  C   UNL     1       0.259  13.149  20.556  0.00  0.00    +0.000 A 
ATOM     18  H   UNL     1       3.078  14.774  23.365  0.00  0.00    +0.000 HD
ENDROOT
BRANCH   9  19
ATOM     19  N   UNL     1       9.912  14.134  18.613  0.00  0.00    +0.000 NA
ATOM     20  C   UNL     1      10.973  14.335  19.617  0.00  0.00    +0.000 C 
ATOM     21  C   UNL     1      12.000  13.207  19.635  0.00  0.00    +0.000 C 
ATOM     22  C   UNL     1      11.308  11.876  19.843  0.00  0.00    +0.000 C 
ATOM     23  F   UNL     1      10.698  11.879  21.063  0.00  0.00    +0.000 F 
ATOM     24  C   UNL     1      10.261  11.660  18.771  0.00  0.00    +0.000 C 
ATOM     25  C   UNL     1       9.272  12.823  18.734  0.00  0.00    +0.000 C 
ENDBRANCH   9  19
BRANCH  14  26
ATOM     26  C   UNL     1       4.056  16.618  23.225  0.00  0.00    +0.000 C 
ATOM     27  C   UNL     1       3.325  17.947  23.504  0.00  0.00    +0.000 C 
ATOM     28  C   UNL     1       2.261  17.902  24.597  0.00  0.00    +0.000 C 
ATOM     29  C   UNL     1       2.782  18.051  26.022  0.00  0.00    +0.000 C 
ATOM     30  C   UNL     1       3.841  17.062  26.492  0.00  0.00    +0.000 C 
ATOM     31  C   UNL     1       5.081  16.945  25.612  0.00  0.00    +0.000 C 
ATOM     32  C   UNL     1       4.867  16.043  24.402  0.00  0.00    +0.000 C 
ENDBRANCH  14  26
BRANCH   1  34
ATOM     33  C   UNL     1      -0.187  10.644  18.601  0.00  0.00    +0.000 C 
ATOM     34  O   UNL     1      -0.296  12.061  18.509  0.00  0.00    +0.000 OA
ENDBRANCH   1  34
BRANCH  17  35
ATOM     35  O   UNL     1      -0.867  12.851  21.271  0.00  0.00    +0.000 OA
ATOM     36  C   UNL     1      -0.970  13.199  22.643  0.00  0.00    +0.000 C 
ENDBRANCH  17  35
TORSDOF 4
ENDMDL
