MODEL 1
REMARK VINA RESULT:      -8.3      0.000      0.000
REMARK  Name = 
REMARK  8 active torsions:
REMARK  status: ('A' for Active; 'I' for Inactive)
REMARK    1  A    between atoms: C_1  and  O_2
REMARK    2  A    between atoms: O_2  and  C_3
REMARK    3  A    between atoms: C_3  and  C_4
REMARK    4  A    between atoms: C_6  and  C_7
REMARK    5  A    between atoms: C_13  and  C_14
REMARK    6  A    between atoms: C_18  and  C_19
REMARK    7  A    between atoms: C_24  and  C_25
REMARK    8  A    between atoms: C_24  and  C_26
REMARK                            x       y       z     vdW  Elec       q    Type
REMARK                         _______ _______ _______ _____ _____    ______ ____
ROOT
ATOM      1  C   UNL     1       5.180   4.430  17.214  0.00  0.00    +0.000 C 
ATOM      2  C   UNL     1       4.299   5.561  17.649  0.00  0.00    +0.000 A 
ATOM      3  C   UNL     1       3.196   5.885  18.407  0.00  0.00    +0.000 A 
ATOM      4  C   UNL     1       3.037   7.319  18.184  0.00  0.00    +0.000 A 
ATOM      5  N   UNL     1       4.009   7.798  17.366  0.00  0.00    +0.000 NA
ATOM      6  N   UNL     1       4.687   6.711  17.050  0.00  0.00    +0.000 N 
ATOM      7  C   UNL     1       5.759   6.570  16.080  0.00  0.00    +0.000 C 
ATOM      8  C   UNL     1       5.801   5.026  15.873  0.00  0.00    +0.000 C 
ATOM      9  C   UNL     1       4.904   4.641  14.675  0.00  0.00    +0.000 C 
ATOM     10  C   UNL     1       7.228   4.556  15.564  0.00  0.00    +0.000 C 
ENDROOT
BRANCH   4  11
ATOM     11  C   UNL     1       1.984   8.213  18.700  0.00  0.00    +0.000 A 
ATOM     12  C   UNL     1       1.270   9.044  17.844  0.00  0.00    +0.000 A 
ATOM     13  C   UNL     1       0.303   9.889  18.383  0.00  0.00    +0.000 A 
ATOM     14  C   UNL     1       0.077   9.883  19.756  0.00  0.00    +0.000 A 
ATOM     15  C   UNL     1       0.825   9.022  20.551  0.00  0.00    +0.000 A 
ATOM     16  C   UNL     1       0.655   8.994  22.039  0.00  0.00    +0.000 C 
ATOM     17  N   UNL     1       1.763   8.192  20.040  0.00  0.00    +0.000 NA
ENDBRANCH   4  11
BRANCH   3  18
ATOM     18  C   UNL     1       2.410   4.942  19.200  0.00  0.00    +0.000 A 
ATOM     19  C   UNL     1       1.500   4.076  18.590  0.00  0.00    +0.000 A 
ATOM     20  C   UNL     1       0.850   3.126  19.363  0.00  0.00    +0.000 A 
ATOM     21  N   UNL     1       1.003   3.006  20.697  0.00  0.00    +0.000 NA
ATOM     22  C   UNL     1       1.858   3.876  21.276  0.00  0.00    +0.000 A 
ATOM     23  C   UNL     1       2.578   4.837  20.582  0.00  0.00    +0.000 A 
ENDBRANCH   3  18
BRANCH   1  24
ATOM     24  C   UNL     1       6.238   4.098  18.284  0.00  0.00    +0.000 C 
BRANCH  24  26
ATOM     25  C   UNL     1       7.595   5.741  19.285  0.00  0.00    +0.000 C 
ATOM     26  O   UNL     1       6.309   5.138  19.259  0.00  0.00    +0.000 OA
ENDBRANCH  24  26
ENDBRANCH   1  24
TORSDOF 4
ENDMDL
MODEL 2
REMARK VINA RESULT:      -7.7      0.634      1.357
REMARK  Name = 
REMARK  8 active torsions:
REMARK  status: ('A' for Active; 'I' for Inactive)
REMARK    1  A    between atoms: C_1  and  O_2
REMARK    2  A    between atoms: O_2  and  C_3
REMARK    3  A    between atoms: C_3  and  C_4
REMARK    4  A    between atoms: C_6  and  C_7
REMARK    5  A    between atoms: C_13  and  C_14
REMARK    6  A    between atoms: C_18  and  C_19
REMARK    7  A    between atoms: C_24  and  C_25
REMARK    8  A    between atoms: C_24  and  C_26
REMARK                            x       y       z     vdW  Elec       q    Type
REMARK                         _______ _______ _______ _____ _____    ______ ____
ROOT
ATOM      1  C   UNL     1       5.132   4.493  17.416  0.00  0.00    +0.000 C 
ATOM      2  C   UNL     1       4.236   5.574  17.939  0.00  0.00    +0.000 A 
ATOM      3  C   UNL     1       3.149   5.825  18.747  0.00  0.00    +0.000 A 
ATOM      4  C   UNL     1       2.945   7.264  18.608  0.00  0.00    +0.000 A 
ATOM      5  N   UNL     1       3.878   7.813  17.788  0.00  0.00    +0.000 NA
ATOM      6  N   UNL     1       4.573   6.765  17.392  0.00  0.00    +0.000 N 
ATOM      7  C   UNL     1       5.617   6.706  16.383  0.00  0.00    +0.000 C 
ATOM      8  C   UNL     1       5.693   5.177  16.090  0.00  0.00    +0.000 C 
ATOM      9  C   UNL     1       4.768   4.831  14.902  0.00  0.00    +0.000 C 
ATOM     10  C   UNL     1       7.121   4.765  15.713  0.00  0.00    +0.000 C 
ENDROOT
BRANCH   4  11
ATOM     11  C   UNL     1       1.886   8.099  19.204  0.00  0.00    +0.000 A 
ATOM     12  C   UNL     1       1.605   8.033  20.563  0.00  0.00    +0.000 A 
ATOM     13  C   UNL     1       0.577   8.822  21.074  0.00  0.00    +0.000 A 
ATOM     14  C   UNL     1      -0.138   9.653  20.218  0.00  0.00    +0.000 A 
ATOM     15  C   UNL     1       0.202   9.672  18.870  0.00  0.00    +0.000 A 
ATOM     16  C   UNL     1      -0.554  10.517  17.890  0.00  0.00    +0.000 C 
ATOM     17  N   UNL     1       1.201   8.915  18.362  0.00  0.00    +0.000 NA
ENDBRANCH   4  11
BRANCH   3  18
ATOM     18  C   UNL     1       2.415   4.819  19.512  0.00  0.00    +0.000 A 
ATOM     19  C   UNL     1       1.455   4.011  18.898  0.00  0.00    +0.000 A 
ATOM     20  C   UNL     1       0.855   2.999  19.632  0.00  0.00    +0.000 A 
ATOM     21  N   UNL     1       1.104   2.765  20.936  0.00  0.00    +0.000 NA
ATOM     22  C   UNL     1       2.006   3.579  21.524  0.00  0.00    +0.000 A 
ATOM     23  C   UNL     1       2.682   4.595  20.863  0.00  0.00    +0.000 A 
ENDBRANCH   3  18
BRANCH   1  24
ATOM     24  C   UNL     1       6.233   4.134  18.433  0.00  0.00    +0.000 C 
BRANCH  24  26
ATOM     25  C   UNL     1       7.696   5.741  19.338  0.00  0.00    +0.000 C 
ATOM     26  O   UNL     1       6.392   5.180  19.391  0.00  0.00    +0.000 OA
ENDBRANCH  24  26
ENDBRANCH   1  24
TORSDOF 4
ENDMDL
MODEL 3
REMARK VINA RESULT:      -6.5      2.774      6.948
REMARK  Name = 
REMARK  8 active torsions:
REMARK  status: ('A' for Active; 'I' for Inactive)
REMARK    1  A    between atoms: C_1  and  O_2
REMARK    2  A    between atoms: O_2  and  C_3
REMARK    3  A    between atoms: C_3  and  C_4
REMARK    4  A    between atoms: C_6  and  C_7
REMARK    5  A    between atoms: C_13  and  C_14
REMARK    6  A    between atoms: C_18  and  C_19
REMARK    7  A    between atoms: C_24  and  C_25
REMARK    8  A    between atoms: C_24  and  C_26
REMARK                            x       y       z     vdW  Elec       q    Type
REMARK                         _______ _______ _______ _____ _____    ______ ____
ROOT
ATOM      1  C   UNL     1       3.526   4.901  19.232  0.00  0.00    +0.000 C 
ATOM      2  C   UNL     1       4.200   4.668  17.914  0.00  0.00    +0.000 A 
ATOM      3  C   UNL     1       5.301   4.997  17.155  0.00  0.00    +0.000 A 
ATOM      4  C   UNL     1       5.079   4.278  15.903  0.00  0.00    +0.000 A 
ATOM      5  N   UNL     1       3.930   3.557  15.950  0.00  0.00    +0.000 NA
ATOM      6  N   UNL     1       3.439   3.866  17.135  0.00  0.00    +0.000 N 
ATOM      7  C   UNL     1       2.143   3.514  17.692  0.00  0.00    +0.000 C 
ATOM      8  C   UNL     1       2.019   4.525  18.873  0.00  0.00    +0.000 C 
ATOM      9  C   UNL     1       1.273   5.790  18.393  0.00  0.00    +0.000 C 
ATOM     10  C   UNL     1       1.218   3.914  20.030  0.00  0.00    +0.000 C 
ENDROOT
BRANCH   4  11
ATOM     11  C   UNL     1       5.906   4.290  14.683  0.00  0.00    +0.000 A 
ATOM     12  C   UNL     1       7.008   5.131  14.575  0.00  0.00    +0.000 A 
ATOM     13  C   UNL     1       7.743   5.124  13.391  0.00  0.00    +0.000 A 
ATOM     14  C   UNL     1       7.359   4.282  12.353  0.00  0.00    +0.000 A 
ATOM     15  C   UNL     1       6.250   3.464  12.532  0.00  0.00    +0.000 A 
ATOM     16  C   UNL     1       5.764   2.562  11.439  0.00  0.00    +0.000 C 
ATOM     17  N   UNL     1       5.531   3.456  13.678  0.00  0.00    +0.000 NA
ENDBRANCH   4  11
BRANCH   3  18
ATOM     18  C   UNL     1       6.382   5.886  17.574  0.00  0.00    +0.000 A 
ATOM     19  C   UNL     1       6.493   7.176  17.050  0.00  0.00    +0.000 A 
ATOM     20  C   UNL     1       7.469   8.026  17.547  0.00  0.00    +0.000 A 
ATOM     21  N   UNL     1       8.366   7.673  18.490  0.00  0.00    +0.000 NA
ATOM     22  C   UNL     1       8.268   6.411  18.959  0.00  0.00    +0.000 A 
ATOM     23  C   UNL     1       7.305   5.501  18.547  0.00  0.00    +0.000 A 
ENDBRANCH   3  18
BRANCH   1  24
ATOM     24  C   UNL     1       4.130   4.015  20.337  0.00  0.00    +0.000 C 
BRANCH  24  26
ATOM     25  C   UNL     1       4.554   1.714  20.080  0.00  0.00    +0.000 C 
ATOM     26  O   UNL     1       4.995   3.029  19.774  0.00  0.00    +0.000 OA
ENDBRANCH  24  26
ENDBRANCH   1  24
TORSDOF 4
ENDMDL
MODEL 4
REMARK VINA RESULT:      -6.1      6.759      8.640
REMARK  Name = 
REMARK  8 active torsions:
REMARK  status: ('A' for Active; 'I' for Inactive)
REMARK    1  A    between atoms: C_1  and  O_2
REMARK    2  A    between atoms: O_2  and  C_3
REMARK    3  A    between atoms: C_3  and  C_4
REMARK    4  A    between atoms: C_6  and  C_7
REMARK    5  A    between atoms: C_13  and  C_14
REMARK    6  A    between atoms: C_18  and  C_19
REMARK    7  A    between atoms: C_24  and  C_25
REMARK    8  A    between atoms: C_24  and  C_26
REMARK                            x       y       z     vdW  Elec       q    Type
REMARK                         _______ _______ _______ _____ _____    ______ ____
ROOT
ATOM      1  C   UNL     1       1.874  14.189  20.942  0.00  0.00    +0.000 C 
ATOM      2  C   UNL     1       0.779  13.499  20.187  0.00  0.00    +0.000 A 
ATOM      3  C   UNL     1      -0.043  12.394  20.182  0.00  0.00    +0.000 A 
ATOM      4  C   UNL     1      -0.812  12.546  18.950  0.00  0.00    +0.000 A 
ATOM      5  N   UNL     1      -0.471  13.688  18.298  0.00  0.00    +0.000 NA
ATOM      6  N   UNL     1       0.498  14.175  19.049  0.00  0.00    +0.000 N 
ATOM      7  C   UNL     1       1.361  15.311  18.778  0.00  0.00    +0.000 C 
ATOM      8  C   UNL     1       2.525  15.077  19.789  0.00  0.00    +0.000 C 
ATOM      9  C   UNL     1       3.654  14.279  19.101  0.00  0.00    +0.000 C 
ATOM     10  C   UNL     1       3.112  16.412  20.263  0.00  0.00    +0.000 C 
ENDROOT
BRANCH   4  11
ATOM     11  C   UNL     1      -1.819  11.632  18.382  0.00  0.00    +0.000 A 
ATOM     12  C   UNL     1      -1.438  10.507  17.661  0.00  0.00    +0.000 A 
ATOM     13  C   UNL     1      -2.428   9.688  17.122  0.00  0.00    +0.000 A 
ATOM     14  C   UNL     1      -3.765  10.014  17.318  0.00  0.00    +0.000 A 
ATOM     15  C   UNL     1      -4.075  11.151  18.055  0.00  0.00    +0.000 A 
ATOM     16  C   UNL     1      -5.496  11.575  18.270  0.00  0.00    +0.000 C 
ATOM     17  N   UNL     1      -3.124  11.951  18.588  0.00  0.00    +0.000 NA
ENDBRANCH   4  11
BRANCH   3  18
ATOM     18  C   UNL     1      -0.057  11.347  21.201  0.00  0.00    +0.000 A 
ATOM     19  C   UNL     1       0.906  10.335  21.204  0.00  0.00    +0.000 A 
ATOM     20  C   UNL     1       0.922   9.420  22.245  0.00  0.00    +0.000 A 
ATOM     21  N   UNL     1       0.026   9.410  23.253  0.00  0.00    +0.000 NA
ATOM     22  C   UNL     1      -0.921  10.372  23.215  0.00  0.00    +0.000 A 
ATOM     23  C   UNL     1      -0.996  11.349  22.233  0.00  0.00    +0.000 A 
ENDBRANCH   3  18
BRANCH   1  24
ATOM     24  C   UNL     1       1.313  15.021  22.111  0.00  0.00    +0.000 C 
BRANCH  24  26
ATOM     25  C   UNL     1      -0.759  15.025  23.228  0.00  0.00    +0.000 C 
ATOM     26  O   UNL     1      -0.099  15.184  21.980  0.00  0.00    +0.000 OA
ENDBRANCH  24  26
ENDBRANCH   1  24
TORSDOF 4
ENDMDL
MODEL 5
REMARK VINA RESULT:      -5.9      5.241      8.018
REMARK  Name = 
REMARK  8 active torsions:
REMARK  status: ('A' for Active; 'I' for Inactive)
REMARK    1  A    between atoms: C_1  and  O_2
REMARK    2  A    between atoms: O_2  and  C_3
REMARK    3  A    between atoms: C_3  and  C_4
REMARK    4  A    between atoms: C_6  and  C_7
REMARK    5  A    between atoms: C_13  and  C_14
REMARK    6  A    between atoms: C_18  and  C_19
REMARK    7  A    between atoms: C_24  and  C_25
REMARK    8  A    between atoms: C_24  and  C_26
REMARK                            x       y       z     vdW  Elec       q    Type
REMARK                         _______ _______ _______ _____ _____    ______ ____
ROOT
ATOM      1  C   UNL     1       2.542  13.618  20.204  0.00  0.00    +0.000 C 
ATOM      2  C   UNL     1       1.235  13.110  19.676  0.00  0.00    +0.000 A 
ATOM      3  C   UNL     1       0.402  12.015  19.636  0.00  0.00    +0.000 A 
ATOM      4  C   UNL     1      -0.705  12.458  18.794  0.00  0.00    +0.000 A 
ATOM      5  N   UNL     1      -0.532  13.744  18.394  0.00  0.00    +0.000 NA
ATOM      6  N   UNL     1       0.645  14.052  18.904  0.00  0.00    +0.000 N 
ATOM      7  C   UNL     1       1.433  15.254  18.687  0.00  0.00    +0.000 C 
ATOM      8  C   UNL     1       2.842  14.806  19.183  0.00  0.00    +0.000 C 
ATOM      9  C   UNL     1       3.661  14.264  17.991  0.00  0.00    +0.000 C 
ATOM     10  C   UNL     1       3.609  15.989  19.785  0.00  0.00    +0.000 C 
ENDROOT
BRANCH   4  11
ATOM     11  C   UNL     1      -1.882  11.688  18.350  0.00  0.00    +0.000 A 
ATOM     12  C   UNL     1      -1.743  10.601  17.495  0.00  0.00    +0.000 A 
ATOM     13  C   UNL     1      -2.887   9.922  17.083  0.00  0.00    +0.000 A 
ATOM     14  C   UNL     1      -4.133  10.345  17.534  0.00  0.00    +0.000 A 
ATOM     15  C   UNL     1      -4.197  11.437  18.392  0.00  0.00    +0.000 A 
ATOM     16  C   UNL     1      -5.511  11.964  18.883  0.00  0.00    +0.000 C 
ATOM     17  N   UNL     1      -3.093  12.102  18.804  0.00  0.00    +0.000 NA
ENDBRANCH   4  11
BRANCH   3  18
ATOM     18  C   UNL     1       0.656  10.735  20.294  0.00  0.00    +0.000 A 
ATOM     19  C   UNL     1       1.124   9.636  19.569  0.00  0.00    +0.000 A 
ATOM     20  C   UNL     1       1.452   8.471  20.244  0.00  0.00    +0.000 A 
ATOM     21  N   UNL     1       1.307   8.305  21.574  0.00  0.00    +0.000 NA
ATOM     22  C   UNL     1       0.818   9.363  22.254  0.00  0.00    +0.000 A 
ATOM     23  C   UNL     1       0.494  10.580  21.671  0.00  0.00    +0.000 A 
ENDBRANCH   3  18
BRANCH   1  24
ATOM     24  C   UNL     1       2.414  14.087  21.666  0.00  0.00    +0.000 C 
BRANCH  24  26
ATOM     25  C   UNL     1       0.605  15.421  22.367  0.00  0.00    +0.000 C 
ATOM     26  O   UNL     1       1.045  14.103  22.070  0.00  0.00    +0.000 OA
ENDBRANCH  24  26
ENDBRANCH   1  24
TORSDOF 4
ENDMDL
MODEL 6
REMARK VINA RESULT:      -5.9      4.285      9.069
REMARK  Name = 
REMARK  8 active torsions:
REMARK  status: ('A' for Active; 'I' for Inactive)
REMARK    1  A    between atoms: C_1  and  O_2
REMARK    2  A    between atoms: O_2  and  C_3
REMARK    3  A    between atoms: C_3  and  C_4
REMARK    4  A    between atoms: C_6  and  C_7
REMARK    5  A    between atoms: C_13  and  C_14
REMARK    6  A    between atoms: C_18  and  C_19
REMARK    7  A    between atoms: C_24  and  C_25
REMARK    8  A    between atoms: C_24  and  C_26
REMARK                            x       y       z     vdW  Elec       q    Type
REMARK                         _______ _______ _______ _____ _____    ______ ____
ROOT
ATOM      1  C   UNL     1      -2.411  13.097  21.157  0.00  0.00    +0.000 C 
ATOM      2  C   UNL     1      -1.373  12.108  20.724  0.00  0.00    +0.000 A 
ATOM      3  C   UNL     1      -1.031  11.215  19.732  0.00  0.00    +0.000 A 
ATOM      4  C   UNL     1       0.216  10.629  20.215  0.00  0.00    +0.000 A 
ATOM      5  N   UNL     1       0.585  11.174  21.402  0.00  0.00    +0.000 NA
ATOM      6  N   UNL     1      -0.411  11.997  21.669  0.00  0.00    +0.000 N 
ATOM      7  C   UNL     1      -0.651  12.754  22.886  0.00  0.00    +0.000 C 
ATOM      8  C   UNL     1      -2.154  13.141  22.729  0.00  0.00    +0.000 C 
ATOM      9  C   UNL     1      -3.035  12.079  23.424  0.00  0.00    +0.000 C 
ATOM     10  C   UNL     1      -2.439  14.496  23.388  0.00  0.00    +0.000 C 
ENDROOT
BRANCH   4  11
ATOM     11  C   UNL     1       1.027   9.566  19.594  0.00  0.00    +0.000 A 
ATOM     12  C   UNL     1       1.555   9.723  18.317  0.00  0.00    +0.000 A 
ATOM     13  C   UNL     1       2.292   8.679  17.764  0.00  0.00    +0.000 A 
ATOM     14  C   UNL     1       2.481   7.512  18.496  0.00  0.00    +0.000 A 
ATOM     15  C   UNL     1       1.929   7.426  19.769  0.00  0.00    +0.000 A 
ATOM     16  C   UNL     1       2.066   6.182  20.594  0.00  0.00    +0.000 C 
ATOM     17  N   UNL     1       1.216   8.434  20.321  0.00  0.00    +0.000 NA
ENDBRANCH   4  11
BRANCH   3  18
ATOM     18  C   UNL     1      -1.809  10.959  18.522  0.00  0.00    +0.000 A 
ATOM     19  C   UNL     1      -1.796  11.861  17.456  0.00  0.00    +0.000 A 
ATOM     20  C   UNL     1      -2.463  11.534  16.285  0.00  0.00    +0.000 A 
ATOM     21  N   UNL     1      -3.175  10.402  16.115  0.00  0.00    +0.000 NA
ATOM     22  C   UNL     1      -3.209   9.558  17.169  0.00  0.00    +0.000 A 
ATOM     23  C   UNL     1      -2.546   9.784  18.366  0.00  0.00    +0.000 A 
ENDBRANCH   3  18
BRANCH   1  24
ATOM     24  C   UNL     1      -2.211  14.461  20.467  0.00  0.00    +0.000 C 
BRANCH  24  26
ATOM     25  C   UNL     1      -0.575  15.422  19.073  0.00  0.00    +0.000 C 
ATOM     26  O   UNL     1      -0.822  14.736  20.292  0.00  0.00    +0.000 OA
ENDBRANCH  24  26
ENDBRANCH   1  24
TORSDOF 4
ENDMDL
MODEL 7
REMARK VINA RESULT:      -5.9      6.577      8.320
REMARK  Name = 
REMARK  8 active torsions:
REMARK  status: ('A' for Active; 'I' for Inactive)
REMARK    1  A    between atoms: C_1  and  O_2
REMARK    2  A    between atoms: O_2  and  C_3
REMARK    3  A    between atoms: C_3  and  C_4
REMARK    4  A    between atoms: C_6  and  C_7
REMARK    5  A    between atoms: C_13  and  C_14
REMARK    6  A    between atoms: C_18  and  C_19
REMARK    7  A    between atoms: C_24  and  C_25
REMARK    8  A    between atoms: C_24  and  C_26
REMARK                            x       y       z     vdW  Elec       q    Type
REMARK                         _______ _______ _______ _____ _____    ______ ____
ROOT
ATOM      1  C   UNL     1       2.297  14.000  20.557  0.00  0.00    +0.000 C 
ATOM      2  C   UNL     1       1.068  13.391  19.955  0.00  0.00    +0.000 A 
ATOM      3  C   UNL     1       0.154  12.369  20.087  0.00  0.00    +0.000 A 
ATOM      4  C   UNL     1      -0.729  12.551  18.938  0.00  0.00    +0.000 A 
ATOM      5  N   UNL     1      -0.360  13.632  18.203  0.00  0.00    +0.000 NA
ATOM      6  N   UNL     1       0.726  14.050  18.824  0.00  0.00    +0.000 N 
ATOM      7  C   UNL     1       1.653  15.090  18.412  0.00  0.00    +0.000 C 
ATOM      8  C   UNL     1       2.895  14.782  19.303  0.00  0.00    +0.000 C 
ATOM      9  C   UNL     1       3.865  13.856  18.535  0.00  0.00    +0.000 C 
ATOM     10  C   UNL     1       3.649  16.071  19.652  0.00  0.00    +0.000 C 
ENDROOT
BRANCH   4  11
ATOM     11  C   UNL     1      -1.872  11.717  18.522  0.00  0.00    +0.000 A 
ATOM     12  C   UNL     1      -1.674  10.528  17.830  0.00  0.00    +0.000 A 
ATOM     13  C   UNL     1      -2.787   9.789  17.436  0.00  0.00    +0.000 A 
ATOM     14  C   UNL     1      -4.061  10.256  17.743  0.00  0.00    +0.000 A 
ATOM     15  C   UNL     1      -4.184  11.450  18.442  0.00  0.00    +0.000 A 
ATOM     16  C   UNL     1      -5.529  12.024  18.770  0.00  0.00    +0.000 C 
ATOM     17  N   UNL     1      -3.112  12.175  18.836  0.00  0.00    +0.000 NA
ENDBRANCH   4  11
BRANCH   3  18
ATOM     18  C   UNL     1       0.157  11.364  21.147  0.00  0.00    +0.000 A 
ATOM     19  C   UNL     1      -0.743  11.443  22.212  0.00  0.00    +0.000 A 
ATOM     20  C   UNL     1      -0.780  10.416  23.143  0.00  0.00    +0.000 A 
ATOM     21  N   UNL     1       0.039   9.346  23.117  0.00  0.00    +0.000 NA
ATOM     22  C   UNL     1       0.929   9.304  22.103  0.00  0.00    +0.000 A 
ATOM     23  C   UNL     1       1.017  10.266  21.107  0.00  0.00    +0.000 A 
ENDBRANCH   3  18
BRANCH   1  24
ATOM     24  C   UNL     1       1.946  14.921  21.741  0.00  0.00    +0.000 C 
BRANCH  24  26
ATOM     25  C   UNL     1       3.357  16.229  23.099  0.00  0.00    +0.000 C 
ATOM     26  O   UNL     1       2.992  14.911  22.712  0.00  0.00    +0.000 OA
ENDBRANCH  24  26
ENDBRANCH   1  24
TORSDOF 4
ENDMDL
MODEL 8
REMARK VINA RESULT:      -5.9      8.561     10.570
REMARK  Name = 
REMARK  8 active torsions:
REMARK  status: ('A' for Active; 'I' for Inactive)
REMARK    1  A    between atoms: C_1  and  O_2
REMARK    2  A    between atoms: O_2  and  C_3
REMARK    3  A    between atoms: C_3  and  C_4
REMARK    4  A    between atoms: C_6  and  C_7
REMARK    5  A    between atoms: C_13  and  C_14
REMARK    6  A    between atoms: C_18  and  C_19
REMARK    7  A    between atoms: C_24  and  C_25
REMARK    8  A    between atoms: C_24  and  C_26
REMARK                            x       y       z     vdW  Elec       q    Type
REMARK                         _______ _______ _______ _____ _____    ______ ____
ROOT
ATOM      1  C   UNL     1       9.785  13.178  19.641  0.00  0.00    +0.000 C 
ATOM      2  C   UNL     1       9.161  12.823  20.956  0.00  0.00    +0.000 A 
ATOM      3  C   UNL     1       8.661  13.347  22.127  0.00  0.00    +0.000 A 
ATOM      4  C   UNL     1       8.285  12.164  22.897  0.00  0.00    +0.000 A 
ATOM      5  N   UNL     1       8.529  11.027  22.197  0.00  0.00    +0.000 NA
ATOM      6  N   UNL     1       9.086  11.479  21.089  0.00  0.00    +0.000 N 
ATOM      7  C   UNL     1       9.700  10.717  20.015  0.00  0.00    +0.000 C 
ATOM      8  C   UNL     1      10.526  11.814  19.277  0.00  0.00    +0.000 C 
ATOM      9  C   UNL     1      11.964  11.844  19.842  0.00  0.00    +0.000 C 
ATOM     10  C   UNL     1      10.613  11.513  17.776  0.00  0.00    +0.000 C 
ENDROOT
BRANCH   4  11
ATOM     11  C   UNL     1       7.738  12.100  24.265  0.00  0.00    +0.000 A 
ATOM     12  C   UNL     1       8.369  12.751  25.318  0.00  0.00    +0.000 A 
ATOM     13  C   UNL     1       7.827  12.638  26.597  0.00  0.00    +0.000 A 
ATOM     14  C   UNL     1       6.677  11.881  26.787  0.00  0.00    +0.000 A 
ATOM     15  C   UNL     1       6.096  11.261  25.687  0.00  0.00    +0.000 A 
ATOM     16  C   UNL     1       4.877  10.401  25.832  0.00  0.00    +0.000 C 
ATOM     17  N   UNL     1       6.608  11.367  24.439  0.00  0.00    +0.000 NA
ENDBRANCH   4  11
BRANCH   3  18
ATOM     18  C   UNL     1       8.586  14.770  22.453  0.00  0.00    +0.000 A 
ATOM     19  C   UNL     1       7.409  15.492  22.244  0.00  0.00    +0.000 A 
ATOM     20  C   UNL     1       7.343  16.812  22.661  0.00  0.00    +0.000 A 
ATOM     21  N   UNL     1       8.372  17.476  23.225  0.00  0.00    +0.000 NA
ATOM     22  C   UNL     1       9.514  16.775  23.385  0.00  0.00    +0.000 A 
ATOM     23  C   UNL     1       9.664  15.442  23.031  0.00  0.00    +0.000 A 
ENDBRANCH   3  18
BRANCH   1  24
ATOM     24  C   UNL     1       8.720  13.590  18.606  0.00  0.00    +0.000 C 
BRANCH  24  26
ATOM     25  C   UNL     1      10.188  15.322  17.985  0.00  0.00    +0.000 C 
ATOM     26  O   UNL     1       8.843  14.974  18.282  0.00  0.00    +0.000 OA
ENDBRANCH  24  26
ENDBRANCH   1  24
TORSDOF 4
ENDMDL
MODEL 9
REMARK VINA RESULT:      -5.9      6.639      8.555
REMARK  Name = 
REMARK  8 active torsions:
REMARK  status: ('A' for Active; 'I' for Inactive)
REMARK    1  A    between atoms: C_1  and  O_2
REMARK    2  A    between atoms: O_2  and  C_3
REMARK    3  A    between atoms: C_3  and  C_4
REMARK    4  A    between atoms: C_6  and  C_7
REMARK    5  A    between atoms: C_13  and  C_14
REMARK    6  A    between atoms: C_18  and  C_19
REMARK    7  A    between atoms: C_24  and  C_25
REMARK    8  A    between atoms: C_24  and  C_26
REMARK                            x       y       z     vdW  Elec       q    Type
REMARK                         _______ _______ _______ _____ _____    ______ ____
ROOT
ATOM      1  C   UNL     1       2.328  14.077  20.644  0.00  0.00    +0.000 C 
ATOM      2  C   UNL     1       1.043  13.586  20.051  0.00  0.00    +0.000 A 
ATOM      3  C   UNL     1       0.075  12.611  20.145  0.00  0.00    +0.000 A 
ATOM      4  C   UNL     1      -0.839  12.930  19.051  0.00  0.00    +0.000 A 
ATOM      5  N   UNL     1      -0.434  14.041  18.384  0.00  0.00    +0.000 NA
ATOM      6  N   UNL     1       0.698  14.349  18.987  0.00  0.00    +0.000 N 
ATOM      7  C   UNL     1       1.670  15.362  18.614  0.00  0.00    +0.000 C 
ATOM      8  C   UNL     1       2.923  14.917  19.427  0.00  0.00    +0.000 C 
ATOM      9  C   UNL     1       3.806  13.999  18.552  0.00  0.00    +0.000 C 
ATOM     10  C   UNL     1       3.765  16.131  19.838  0.00  0.00    +0.000 C 
ENDROOT
BRANCH   4  11
ATOM     11  C   UNL     1      -2.044  12.196  18.624  0.00  0.00    +0.000 A 
ATOM     12  C   UNL     1      -3.227  12.281  19.349  0.00  0.00    +0.000 A 
ATOM     13  C   UNL     1      -4.331  11.548  18.919  0.00  0.00    +0.000 A 
ATOM     14  C   UNL     1      -4.224  10.755  17.782  0.00  0.00    +0.000 A 
ATOM     15  C   UNL     1      -3.012  10.722  17.102  0.00  0.00    +0.000 A 
ATOM     16  C   UNL     1      -2.822   9.859  15.893  0.00  0.00    +0.000 C 
ATOM     17  N   UNL     1      -1.934  11.433  17.506  0.00  0.00    +0.000 NA
ENDBRANCH   4  11
BRANCH   3  18
ATOM     18  C   UNL     1       0.057  11.530  21.128  0.00  0.00    +0.000 A 
ATOM     19  C   UNL     1      -0.822  11.560  22.212  0.00  0.00    +0.000 A 
ATOM     20  C   UNL     1      -0.882  10.468  23.064  0.00  0.00    +0.000 A 
ATOM     21  N   UNL     1      -0.102   9.375  22.944  0.00  0.00    +0.000 NA
ATOM     22  C   UNL     1       0.769   9.378  21.913  0.00  0.00    +0.000 A 
ATOM     23  C   UNL     1       0.876  10.408  20.990  0.00  0.00    +0.000 A 
ENDBRANCH   3  18
BRANCH   1  24
ATOM     24  C   UNL     1       2.078  14.924  21.907  0.00  0.00    +0.000 C 
BRANCH  24  26
ATOM     25  C   UNL     1       0.026  15.668  22.789  0.00  0.00    +0.000 C 
ATOM     26  O   UNL     1       0.853  14.542  22.533  0.00  0.00    +0.000 OA
ENDBRANCH  24  26
ENDBRANCH   1  24
TORSDOF 4
ENDMDL
