MODEL 1
REMARK VINA RESULT:      -6.2      0.000      0.000
REMARK  Name = 
REMARK  9 active torsions:
REMARK  status: ('A' for Active; 'I' for Inactive)
REMARK    1  A    between atoms: C_1  and  O_2
REMARK    2  A    between atoms: O_2  and  C_3
REMARK    3  A    between atoms: C_6  and  C_7
REMARK    4  A    between atoms: C_12  and  C_13
REMARK    5  A    between atoms: C_18  and  O_19
REMARK    6  A    between atoms: O_19  and  C_20
REMARK    7  A    between atoms: N_21  and  C_22
REMARK    8  A    between atoms: C_22  and  C_23
REMARK    9  A    between atoms: C_23  and  C_24
REMARK                            x       y       z     vdW  Elec       q    Type
REMARK                         _______ _______ _______ _____ _____    ______ ____
ROOT
ATOM      1  C   UNL     1      -4.271  11.980  19.610  0.00  0.00    +0.000 A 
ATOM      2  N   UNL     1      -5.488  11.710  20.145  0.00  0.00    +0.000 NA
ATOM      3  N   UNL     1      -5.505  12.338  21.346  0.00  0.00    +0.000 N 
ATOM      4  C   UNL     1      -4.357  13.002  21.568  0.00  0.00    +0.000 A 
ATOM      5  C   UNL     1      -3.523  12.754  20.517  0.00  0.00    +0.000 A 
ATOM      6  C   UNL     1      -2.211  13.377  20.787  0.00  0.00    +0.000 C 
ATOM      7  N   UNL     1      -2.408  13.863  22.174  0.00  0.00    +0.000 N 
ATOM      8  C   UNL     1      -3.725  13.702  22.624  0.00  0.00    +0.000 C 
ATOM      9  O   UNL     1      -4.198  13.997  23.708  0.00  0.00    +0.000 OA
ATOM     10  H   UNL     1      -6.300  12.205  21.965  0.00  0.00    +0.000 HD
ENDROOT
BRANCH   1  14
ATOM     11  C   UNL     1      -3.184  10.448  15.761  0.00  0.00    +0.000 A 
ATOM     12  C   UNL     1      -2.453  10.090  16.894  0.00  0.00    +0.000 A 
ATOM     13  C   UNL     1      -2.803  10.590  18.154  0.00  0.00    +0.000 A 
ATOM     14  C   UNL     1      -3.889  11.460  18.298  0.00  0.00    +0.000 A 
ATOM     15  C   UNL     1      -4.595  11.842  17.149  0.00  0.00    +0.000 A 
ATOM     16  C   UNL     1      -4.247  11.340  15.889  0.00  0.00    +0.000 A 
BRANCH  11  18
ATOM     17  C   UNL     1      -3.682   9.904  13.517  0.00  0.00    +0.000 C 
ATOM     18  O   UNL     1      -2.739   9.913  14.583  0.00  0.00    +0.000 OA
ENDBRANCH  11  18
ENDBRANCH   1  14
BRANCH   6  19
ATOM     19  C   UNL     1      -1.073  12.422  20.514  0.00  0.00    +0.000 A 
ATOM     20  C   UNL     1      -0.364  12.757  19.316  0.00  0.00    +0.000 A 
ATOM     21  C   UNL     1       0.722  12.028  18.833  0.00  0.00    +0.000 A 
ATOM     22  C   UNL     1       1.155  10.925  19.537  0.00  0.00    +0.000 A 
ATOM     23  C   UNL     1       0.497  10.579  20.711  0.00  0.00    +0.000 A 
ATOM     24  C   UNL     1      -0.604  11.303  21.227  0.00  0.00    +0.000 A 
BRANCH  24  25
ATOM     25  O   UNL     1      -0.965  10.697  22.390  0.00  0.00    +0.000 OA
ATOM     26  C   UNL     1      -0.234   9.695  23.048  0.00  0.00    +0.000 C 
ENDBRANCH  24  25
ENDBRANCH   6  19
BRANCH   7  27
ATOM     27  C   UNL     1      -1.331  14.374  23.011  0.00  0.00    +0.000 C 
BRANCH  27  28
ATOM     28  C   UNL     1      -0.637  15.646  22.520  0.00  0.00    +0.000 C 
BRANCH  28  29
ATOM     29  C   UNL     1       0.585  15.381  21.723  0.00  0.00    +0.000 A 
ATOM     30  C   UNL     1       1.099  15.920  20.562  0.00  0.00    +0.000 A 
ATOM     31  C   UNL     1       2.330  15.262  20.327  0.00  0.00    +0.000 A 
ATOM     32  C   UNL     1       2.493  14.373  21.363  0.00  0.00    +0.000 A 
ATOM     33  O   UNL     1       1.438  14.436  22.215  0.00  0.00    +0.000 OA
ENDBRANCH  28  29
ENDBRANCH  27  28
ENDBRANCH   7  27
TORSDOF 7
ENDMDL
MODEL 2
REMARK VINA RESULT:      -6.2      0.802      1.278
REMARK  Name = 
REMARK  9 active torsions:
REMARK  status: ('A' for Active; 'I' for Inactive)
REMARK    1  A    between atoms: C_1  and  O_2
REMARK    2  A    between atoms: O_2  and  C_3
REMARK    3  A    between atoms: C_6  and  C_7
REMARK    4  A    between atoms: C_12  and  C_13
REMARK    5  A    between atoms: C_18  and  O_19
REMARK    6  A    between atoms: O_19  and  C_20
REMARK    7  A    between atoms: N_21  and  C_22
REMARK    8  A    between atoms: C_22  and  C_23
REMARK    9  A    between atoms: C_23  and  C_24
REMARK                            x       y       z     vdW  Elec       q    Type
REMARK                         _______ _______ _______ _____ _____    ______ ____
ROOT
ATOM      1  C   UNL     1      -4.601  11.874  19.377  0.00  0.00    +0.000 A 
ATOM      2  N   UNL     1      -5.810  11.466  19.838  0.00  0.00    +0.000 NA
ATOM      3  N   UNL     1      -5.984  12.109  21.018  0.00  0.00    +0.000 N 
ATOM      4  C   UNL     1      -4.943  12.913  21.296  0.00  0.00    +0.000 A 
ATOM      5  C   UNL     1      -4.016  12.750  20.309  0.00  0.00    +0.000 A 
ATOM      6  C   UNL     1      -2.811  13.534  20.647  0.00  0.00    +0.000 C 
ATOM      7  N   UNL     1      -3.158  14.017  22.005  0.00  0.00    +0.000 N 
ATOM      8  C   UNL     1      -4.474  13.704  22.372  0.00  0.00    +0.000 C 
ATOM      9  O   UNL     1      -5.052  13.959  23.416  0.00  0.00    +0.000 OA
ATOM     10  H   UNL     1      -6.798  11.891  21.587  0.00  0.00    +0.000 HD
ENDROOT
BRANCH   1  14
ATOM     11  C   UNL     1      -3.017  10.436  15.666  0.00  0.00    +0.000 A 
ATOM     12  C   UNL     1      -4.151  11.249  15.681  0.00  0.00    +0.000 A 
ATOM     13  C   UNL     1      -4.673  11.720  16.891  0.00  0.00    +0.000 A 
ATOM     14  C   UNL     1      -4.071  11.380  18.106  0.00  0.00    +0.000 A 
ATOM     15  C   UNL     1      -2.954  10.533  18.084  0.00  0.00    +0.000 A 
ATOM     16  C   UNL     1      -2.430  10.064  16.873  0.00  0.00    +0.000 A 
BRANCH  11  18
ATOM     17  C   UNL     1      -3.628   9.956  13.435  0.00  0.00    +0.000 C 
ATOM     18  O   UNL     1      -2.609  10.022  14.427  0.00  0.00    +0.000 OA
ENDBRANCH  11  18
ENDBRANCH   1  14
BRANCH   6  19
ATOM     19  C   UNL     1      -1.549  12.721  20.475  0.00  0.00    +0.000 A 
ATOM     20  C   UNL     1      -0.837  13.077  19.285  0.00  0.00    +0.000 A 
ATOM     21  C   UNL     1       0.352  12.469  18.887  0.00  0.00    +0.000 A 
ATOM     22  C   UNL     1       0.892  11.473  19.672  0.00  0.00    +0.000 A 
ATOM     23  C   UNL     1       0.233  11.112  20.841  0.00  0.00    +0.000 A 
ATOM     24  C   UNL     1      -0.973  11.714  21.271  0.00  0.00    +0.000 A 
BRANCH  24  25
ATOM     25  O   UNL     1      -1.303  11.133  22.455  0.00  0.00    +0.000 OA
ATOM     26  C   UNL     1      -0.596  10.092  23.079  0.00  0.00    +0.000 C 
ENDBRANCH  24  25
ENDBRANCH   6  19
BRANCH   7  27
ATOM     27  C   UNL     1      -2.210  14.671  22.897  0.00  0.00    +0.000 C 
BRANCH  27  28
ATOM     28  C   UNL     1      -1.604  15.983  22.396  0.00  0.00    +0.000 C 
BRANCH  28  29
ATOM     29  C   UNL     1      -0.279  15.813  21.751  0.00  0.00    +0.000 A 
ATOM     30  C   UNL     1       0.884  15.170  22.122  0.00  0.00    +0.000 A 
ATOM     31  C   UNL     1       1.792  15.340  21.050  0.00  0.00    +0.000 A 
ATOM     32  C   UNL     1       1.124  16.065  20.092  0.00  0.00    +0.000 A 
ATOM     33  O   UNL     1      -0.134  16.359  20.510  0.00  0.00    +0.000 OA
ENDBRANCH  28  29
ENDBRANCH  27  28
ENDBRANCH   7  27
TORSDOF 7
ENDMDL
MODEL 3
REMARK VINA RESULT:      -6.2      3.560      7.145
REMARK  Name = 
REMARK  9 active torsions:
REMARK  status: ('A' for Active; 'I' for Inactive)
REMARK    1  A    between atoms: C_1  and  O_2
REMARK    2  A    between atoms: O_2  and  C_3
REMARK    3  A    between atoms: C_6  and  C_7
REMARK    4  A    between atoms: C_12  and  C_13
REMARK    5  A    between atoms: C_18  and  O_19
REMARK    6  A    between atoms: O_19  and  C_20
REMARK    7  A    between atoms: N_21  and  C_22
REMARK    8  A    between atoms: C_22  and  C_23
REMARK    9  A    between atoms: C_23  and  C_24
REMARK                            x       y       z     vdW  Elec       q    Type
REMARK                         _______ _______ _______ _____ _____    ______ ____
ROOT
ATOM      1  C   UNL     1      -0.484  11.161  22.136  0.00  0.00    +0.000 A 
ATOM      2  N   UNL     1      -0.425  10.413  23.267  0.00  0.00    +0.000 NA
ATOM      3  N   UNL     1       0.293   9.313  22.936  0.00  0.00    +0.000 N 
ATOM      4  C   UNL     1       0.698   9.357  21.656  0.00  0.00    +0.000 A 
ATOM      5  C   UNL     1       0.177  10.486  21.093  0.00  0.00    +0.000 A 
ATOM      6  C   UNL     1       0.509  10.504  19.654  0.00  0.00    +0.000 C 
ATOM      7  N   UNL     1       1.146   9.174  19.493  0.00  0.00    +0.000 N 
ATOM      8  C   UNL     1       1.326   8.508  20.713  0.00  0.00    +0.000 C 
ATOM      9  O   UNL     1       1.815   7.408  20.911  0.00  0.00    +0.000 OA
ATOM     10  H   UNL     1       0.398   8.565  23.618  0.00  0.00    +0.000 HD
ENDROOT
BRANCH   1  14
ATOM     11  C   UNL     1      -2.558  14.907  22.035  0.00  0.00    +0.000 A 
ATOM     12  C   UNL     1      -1.314  14.807  22.657  0.00  0.00    +0.000 A 
ATOM     13  C   UNL     1      -0.632  13.585  22.695  0.00  0.00    +0.000 A 
ATOM     14  C   UNL     1      -1.190  12.441  22.113  0.00  0.00    +0.000 A 
ATOM     15  C   UNL     1      -2.456  12.544  21.521  0.00  0.00    +0.000 A 
ATOM     16  C   UNL     1      -3.137  13.767  21.482  0.00  0.00    +0.000 A 
BRANCH  11  18
ATOM     17  C   UNL     1      -4.538  16.162  22.322  0.00  0.00    +0.000 C 
ATOM     18  O   UNL     1      -3.136  16.146  22.077  0.00  0.00    +0.000 OA
ENDBRANCH  11  18
ENDBRANCH   1  14
BRANCH   6  19
ATOM     19  C   UNL     1      -0.698  10.829  18.807  0.00  0.00    +0.000 A 
ATOM     20  C   UNL     1      -1.617   9.733  18.735  0.00  0.00    +0.000 A 
ATOM     21  C   UNL     1      -2.805   9.769  18.007  0.00  0.00    +0.000 A 
ATOM     22  C   UNL     1      -3.135  10.916  17.318  0.00  0.00    +0.000 A 
ATOM     23  C   UNL     1      -2.271  12.004  17.377  0.00  0.00    +0.000 A 
ATOM     24  C   UNL     1      -1.061  11.996  18.110  0.00  0.00    +0.000 A 
BRANCH  24  25
ATOM     25  O   UNL     1      -0.502  13.227  17.960  0.00  0.00    +0.000 OA
ATOM     26  C   UNL     1      -0.258  14.143  18.995  0.00  0.00    +0.000 C 
ENDBRANCH  24  25
ENDBRANCH   6  19
BRANCH   7  27
ATOM     27  C   UNL     1       1.471   8.586  18.201  0.00  0.00    +0.000 C 
BRANCH  27  28
ATOM     28  C   UNL     1       2.959   8.408  17.894  0.00  0.00    +0.000 C 
BRANCH  28  29
ATOM     29  C   UNL     1       3.366   6.988  17.748  0.00  0.00    +0.000 A 
ATOM     30  C   UNL     1       4.563   6.366  17.462  0.00  0.00    +0.000 A 
ATOM     31  C   UNL     1       4.309   4.974  17.500  0.00  0.00    +0.000 A 
ATOM     32  C   UNL     1       2.978   4.836  17.816  0.00  0.00    +0.000 A 
ATOM     33  O   UNL     1       2.396   6.054  17.966  0.00  0.00    +0.000 OA
ENDBRANCH  28  29
ENDBRANCH  27  28
ENDBRANCH   7  27
TORSDOF 7
ENDMDL
MODEL 4
REMARK VINA RESULT:      -6.1      2.414      5.169
REMARK  Name = 
REMARK  9 active torsions:
REMARK  status: ('A' for Active; 'I' for Inactive)
REMARK    1  A    between atoms: C_1  and  O_2
REMARK    2  A    between atoms: O_2  and  C_3
REMARK    3  A    between atoms: C_6  and  C_7
REMARK    4  A    between atoms: C_12  and  C_13
REMARK    5  A    between atoms: C_18  and  O_19
REMARK    6  A    between atoms: O_19  and  C_20
REMARK    7  A    between atoms: N_21  and  C_22
REMARK    8  A    between atoms: C_22  and  C_23
REMARK    9  A    between atoms: C_23  and  C_24
REMARK                            x       y       z     vdW  Elec       q    Type
REMARK                         _______ _______ _______ _____ _____    ______ ____
ROOT
ATOM      1  C   UNL     1      -1.643  12.346  20.014  0.00  0.00    +0.000 A 
ATOM      2  N   UNL     1      -0.349  12.754  19.985  0.00  0.00    +0.000 NA
ATOM      3  N   UNL     1      -0.099  13.251  21.220  0.00  0.00    +0.000 N 
ATOM      4  C   UNL     1      -1.176  13.150  22.018  0.00  0.00    +0.000 A 
ATOM      5  C   UNL     1      -2.197  12.634  21.275  0.00  0.00    +0.000 A 
ATOM      6  C   UNL     1      -3.427  12.618  22.093  0.00  0.00    +0.000 C 
ATOM      7  N   UNL     1      -2.965  13.322  23.313  0.00  0.00    +0.000 N 
ATOM      8  C   UNL     1      -1.588  13.582  23.302  0.00  0.00    +0.000 C 
ATOM      9  O   UNL     1      -0.914  14.142  24.150  0.00  0.00    +0.000 OA
ATOM     10  H   UNL     1       0.798  13.692  21.405  0.00  0.00    +0.000 HD
ENDROOT
BRANCH   1  14
ATOM     11  C   UNL     1      -3.515  10.585  16.587  0.00  0.00    +0.000 A 
ATOM     12  C   UNL     1      -2.196  10.266  16.912  0.00  0.00    +0.000 A 
ATOM     13  C   UNL     1      -1.579  10.841  18.029  0.00  0.00    +0.000 A 
ATOM     14  C   UNL     1      -2.273  11.747  18.838  0.00  0.00    +0.000 A 
ATOM     15  C   UNL     1      -3.586  12.088  18.483  0.00  0.00    +0.000 A 
ATOM     16  C   UNL     1      -4.204  11.512  17.367  0.00  0.00    +0.000 A 
BRANCH  11  18
ATOM     17  C   UNL     1      -3.180  10.065  14.308  0.00  0.00    +0.000 C 
ATOM     18  O   UNL     1      -4.006   9.976  15.464  0.00  0.00    +0.000 OA
ENDBRANCH  11  18
ENDBRANCH   1  14
BRANCH   6  19
ATOM     19  C   UNL     1      -4.606  13.186  21.339  0.00  0.00    +0.000 A 
ATOM     20  C   UNL     1      -4.361  14.521  20.883  0.00  0.00    +0.000 A 
ATOM     21  C   UNL     1      -5.293  15.276  20.172  0.00  0.00    +0.000 A 
ATOM     22  C   UNL     1      -6.520  14.722  19.877  0.00  0.00    +0.000 A 
ATOM     23  C   UNL     1      -6.786  13.424  20.294  0.00  0.00    +0.000 A 
ATOM     24  C   UNL     1      -5.859  12.633  21.013  0.00  0.00    +0.000 A 
BRANCH  24  25
ATOM     25  O   UNL     1      -6.448  11.425  21.220  0.00  0.00    +0.000 OA
ATOM     26  C   UNL     1      -7.141  10.678  20.255  0.00  0.00    +0.000 C 
ENDBRANCH  24  25
ENDBRANCH   6  19
BRANCH   7  27
ATOM     27  C   UNL     1      -3.858  13.773  24.372  0.00  0.00    +0.000 C 
BRANCH  27  28
ATOM     28  C   UNL     1      -4.153  15.273  24.417  0.00  0.00    +0.000 C 
BRANCH  28  29
ATOM     29  C   UNL     1      -5.523  15.618  23.966  0.00  0.00    +0.000 A 
ATOM     30  C   UNL     1      -6.108  16.778  23.501  0.00  0.00    +0.000 A 
ATOM     31  C   UNL     1      -7.452  16.453  23.197  0.00  0.00    +0.000 A 
ATOM     32  C   UNL     1      -7.597  15.116  23.484  0.00  0.00    +0.000 A 
ATOM     33  O   UNL     1      -6.432  14.601  23.954  0.00  0.00    +0.000 OA
ENDBRANCH  28  29
ENDBRANCH  27  28
ENDBRANCH   7  27
TORSDOF 7
ENDMDL
MODEL 5
REMARK VINA RESULT:      -6.0      1.197      1.491
REMARK  Name = 
REMARK  9 active torsions:
REMARK  status: ('A' for Active; 'I' for Inactive)
REMARK    1  A    between atoms: C_1  and  O_2
REMARK    2  A    between atoms: O_2  and  C_3
REMARK    3  A    between atoms: C_6  and  C_7
REMARK    4  A    between atoms: C_12  and  C_13
REMARK    5  A    between atoms: C_18  and  O_19
REMARK    6  A    between atoms: O_19  and  C_20
REMARK    7  A    between atoms: N_21  and  C_22
REMARK    8  A    between atoms: C_22  and  C_23
REMARK    9  A    between atoms: C_23  and  C_24
REMARK                            x       y       z     vdW  Elec       q    Type
REMARK                         _______ _______ _______ _____ _____    ______ ____
ROOT
ATOM      1  C   UNL     1      -4.328  12.678  20.972  0.00  0.00    +0.000 A 
ATOM      2  N   UNL     1      -5.293  12.202  21.798  0.00  0.00    +0.000 NA
ATOM      3  N   UNL     1      -5.055  12.775  23.003  0.00  0.00    +0.000 N 
ATOM      4  C   UNL     1      -3.995  13.600  22.952  0.00  0.00    +0.000 A 
ATOM      5  C   UNL     1      -3.467  13.525  21.696  0.00  0.00    +0.000 A 
ATOM      6  C   UNL     1      -2.233  14.333  21.643  0.00  0.00    +0.000 C 
ATOM      7  N   UNL     1      -2.092  14.730  23.065  0.00  0.00    +0.000 N 
ATOM      8  C   UNL     1      -3.192  14.349  23.846  0.00  0.00    +0.000 C 
ATOM      9  O   UNL     1      -3.373  14.527  25.039  0.00  0.00    +0.000 OA
ATOM     10  H   UNL     1      -5.615  12.496  23.804  0.00  0.00    +0.000 HD
ENDROOT
BRANCH   1  14
ATOM     11  C   UNL     1      -4.177  11.475  16.864  0.00  0.00    +0.000 A 
ATOM     12  C   UNL     1      -3.057  11.330  17.683  0.00  0.00    +0.000 A 
ATOM     13  C   UNL     1      -3.100  11.723  19.025  0.00  0.00    +0.000 A 
ATOM     14  C   UNL     1      -4.266  12.273  19.568  0.00  0.00    +0.000 A 
ATOM     15  C   UNL     1      -5.375  12.449  18.729  0.00  0.00    +0.000 A 
ATOM     16  C   UNL     1      -5.333  12.053  17.386  0.00  0.00    +0.000 A 
BRANCH  11  18
ATOM     17  C   UNL     1      -2.775  10.428  15.278  0.00  0.00    +0.000 C 
ATOM     18  O   UNL     1      -4.011  11.073  15.567  0.00  0.00    +0.000 OA
ENDBRANCH  11  18
ENDBRANCH   1  14
BRANCH   6  19
ATOM     19  C   UNL     1      -1.098  13.577  20.993  0.00  0.00    +0.000 A 
ATOM     20  C   UNL     1      -0.776  14.098  19.698  0.00  0.00    +0.000 A 
ATOM     21  C   UNL     1       0.225  13.572  18.883  0.00  0.00    +0.000 A 
ATOM     22  C   UNL     1       0.960  12.497  19.332  0.00  0.00    +0.000 A 
ATOM     23  C   UNL     1       0.682  11.974  20.590  0.00  0.00    +0.000 A 
ATOM     24  C   UNL     1      -0.324  12.490  21.440  0.00  0.00    +0.000 A 
BRANCH  24  25
ATOM     25  O   UNL     1      -0.289  11.755  22.584  0.00  0.00    +0.000 OA
ATOM     26  C   UNL     1      -1.373  11.058  23.141  0.00  0.00    +0.000 C 
ENDBRANCH  24  25
ENDBRANCH   6  19
BRANCH   7  27
ATOM     27  C   UNL     1      -0.903  15.370  23.611  0.00  0.00    +0.000 C 
BRANCH  27  28
ATOM     28  C   UNL     1      -0.362  16.570  22.832  0.00  0.00    +0.000 C 
BRANCH  28  29
ATOM     29  C   UNL     1       0.849  16.258  22.034  0.00  0.00    +0.000 A 
ATOM     30  C   UNL     1       1.339  16.717  20.829  0.00  0.00    +0.000 A 
ATOM     31  C   UNL     1       2.571  16.053  20.620  0.00  0.00    +0.000 A 
ATOM     32  C   UNL     1       2.759  15.241  21.714  0.00  0.00    +0.000 A 
ATOM     33  O   UNL     1       1.717  15.357  22.577  0.00  0.00    +0.000 OA
ENDBRANCH  28  29
ENDBRANCH  27  28
ENDBRANCH   7  27
TORSDOF 7
ENDMDL
MODEL 6
REMARK VINA RESULT:      -6.0      2.422      5.234
REMARK  Name = 
REMARK  9 active torsions:
REMARK  status: ('A' for Active; 'I' for Inactive)
REMARK    1  A    between atoms: C_1  and  O_2
REMARK    2  A    between atoms: O_2  and  C_3
REMARK    3  A    between atoms: C_6  and  C_7
REMARK    4  A    between atoms: C_12  and  C_13
REMARK    5  A    between atoms: C_18  and  O_19
REMARK    6  A    between atoms: O_19  and  C_20
REMARK    7  A    between atoms: N_21  and  C_22
REMARK    8  A    between atoms: C_22  and  C_23
REMARK    9  A    between atoms: C_23  and  C_24
REMARK                            x       y       z     vdW  Elec       q    Type
REMARK                         _______ _______ _______ _____ _____    ______ ____
ROOT
ATOM      1  C   UNL     1      -1.642  12.218  19.871  0.00  0.00    +0.000 A 
ATOM      2  N   UNL     1      -0.347  12.624  19.849  0.00  0.00    +0.000 NA
ATOM      3  N   UNL     1      -0.097  13.105  21.091  0.00  0.00    +0.000 N 
ATOM      4  C   UNL     1      -1.175  12.995  21.886  0.00  0.00    +0.000 A 
ATOM      5  C   UNL     1      -2.197  12.490  21.135  0.00  0.00    +0.000 A 
ATOM      6  C   UNL     1      -3.427  12.466  21.951  0.00  0.00    +0.000 C 
ATOM      7  N   UNL     1      -2.966  13.154  23.181  0.00  0.00    +0.000 N 
ATOM      8  C   UNL     1      -1.589  13.411  23.175  0.00  0.00    +0.000 C 
ATOM      9  O   UNL     1      -0.915  13.960  24.031  0.00  0.00    +0.000 OA
ATOM     10  H   UNL     1       0.800  13.542  21.282  0.00  0.00    +0.000 HD
ENDROOT
BRANCH   1  14
ATOM     11  C   UNL     1      -3.457  10.513  16.385  0.00  0.00    +0.000 A 
ATOM     12  C   UNL     1      -4.139  11.468  17.140  0.00  0.00    +0.000 A 
ATOM     13  C   UNL     1      -3.551  12.027  18.281  0.00  0.00    +0.000 A 
ATOM     14  C   UNL     1      -2.271  11.634  18.687  0.00  0.00    +0.000 A 
ATOM     15  C   UNL     1      -1.608  10.648  17.943  0.00  0.00    +0.000 A 
ATOM     16  C   UNL     1      -2.195  10.090  16.800  0.00  0.00    +0.000 A 
BRANCH  11  18
ATOM     17  C   UNL     1      -3.430  10.055  14.069  0.00  0.00    +0.000 C 
ATOM     18  O   UNL     1      -4.138  10.026  15.304  0.00  0.00    +0.000 OA
ENDBRANCH  11  18
ENDBRANCH   1  14
BRANCH   6  19
ATOM     19  C   UNL     1      -4.605  13.045  21.203  0.00  0.00    +0.000 A 
ATOM     20  C   UNL     1      -4.354  14.382  20.756  0.00  0.00    +0.000 A 
ATOM     21  C   UNL     1      -5.283  15.147  20.052  0.00  0.00    +0.000 A 
ATOM     22  C   UNL     1      -6.513  14.601  19.755  0.00  0.00    +0.000 A 
ATOM     23  C   UNL     1      -6.785  13.301  20.163  0.00  0.00    +0.000 A 
ATOM     24  C   UNL     1      -5.861  12.501  20.875  0.00  0.00    +0.000 A 
BRANCH  24  25
ATOM     25  O   UNL     1      -6.455  11.294  21.075  0.00  0.00    +0.000 OA
ATOM     26  C   UNL     1      -7.168  10.565  20.109  0.00  0.00    +0.000 C 
ENDBRANCH  24  25
ENDBRANCH   6  19
BRANCH   7  27
ATOM     27  C   UNL     1      -3.859  13.592  24.245  0.00  0.00    +0.000 C 
BRANCH  27  28
ATOM     28  C   UNL     1      -4.213  15.080  24.262  0.00  0.00    +0.000 C 
BRANCH  28  29
ATOM     29  C   UNL     1      -5.605  15.361  23.835  0.00  0.00    +0.000 A 
ATOM     30  C   UNL     1      -6.765  14.614  23.820  0.00  0.00    +0.000 A 
ATOM     31  C   UNL     1      -7.781  15.466  23.324  0.00  0.00    +0.000 A 
ATOM     32  C   UNL     1      -7.180  16.678  23.079  0.00  0.00    +0.000 A 
ATOM     33  O   UNL     1      -5.858  16.624  23.384  0.00  0.00    +0.000 OA
ENDBRANCH  28  29
ENDBRANCH  27  28
ENDBRANCH   7  27
TORSDOF 7
ENDMDL
MODEL 7
REMARK VINA RESULT:      -6.0      3.081      6.158
REMARK  Name = 
REMARK  9 active torsions:
REMARK  status: ('A' for Active; 'I' for Inactive)
REMARK    1  A    between atoms: C_1  and  O_2
REMARK    2  A    between atoms: O_2  and  C_3
REMARK    3  A    between atoms: C_6  and  C_7
REMARK    4  A    between atoms: C_12  and  C_13
REMARK    5  A    between atoms: C_18  and  O_19
REMARK    6  A    between atoms: O_19  and  C_20
REMARK    7  A    between atoms: N_21  and  C_22
REMARK    8  A    between atoms: C_22  and  C_23
REMARK    9  A    between atoms: C_23  and  C_24
REMARK                            x       y       z     vdW  Elec       q    Type
REMARK                         _______ _______ _______ _____ _____    ______ ____
ROOT
ATOM      1  C   UNL     1      -2.952  11.447  18.424  0.00  0.00    +0.000 A 
ATOM      2  N   UNL     1      -2.886  11.421  17.069  0.00  0.00    +0.000 NA
ATOM      3  N   UNL     1      -1.742  10.756  16.775  0.00  0.00    +0.000 N 
ATOM      4  C   UNL     1      -1.108  10.353  17.889  0.00  0.00    +0.000 A 
ATOM      5  C   UNL     1      -1.811  10.821  18.960  0.00  0.00    +0.000 A 
ATOM      6  C   UNL     1      -1.077  10.493  20.199  0.00  0.00    +0.000 C 
ATOM      7  N   UNL     1       0.173   9.921  19.644  0.00  0.00    +0.000 N 
ATOM      8  C   UNL     1       0.130   9.768  18.252  0.00  0.00    +0.000 C 
ATOM      9  O   UNL     1       0.993   9.332  17.508  0.00  0.00    +0.000 OA
ATOM     10  H   UNL     1      -1.444  10.686  15.805  0.00  0.00    +0.000 HD
ENDROOT
BRANCH   1  14
ATOM     11  C   UNL     1      -6.208  13.329  20.473  0.00  0.00    +0.000 A 
ATOM     12  C   UNL     1      -6.454  12.397  19.465  0.00  0.00    +0.000 A 
ATOM     13  C   UNL     1      -5.394  11.780  18.791  0.00  0.00    +0.000 A 
ATOM     14  C   UNL     1      -4.069  12.092  19.113  0.00  0.00    +0.000 A 
ATOM     15  C   UNL     1      -3.832  13.056  20.103  0.00  0.00    +0.000 A 
ATOM     16  C   UNL     1      -4.892  13.671  20.779  0.00  0.00    +0.000 A 
BRANCH  11  18
ATOM     17  C   UNL     1      -7.603  13.447  22.375  0.00  0.00    +0.000 C 
ATOM     18  O   UNL     1      -7.322  13.878  21.048  0.00  0.00    +0.000 OA
ENDBRANCH  11  18
ENDBRANCH   1  14
BRANCH   6  19
ATOM     19  C   UNL     1      -0.974  11.686  21.120  0.00  0.00    +0.000 A 
ATOM     20  C   UNL     1      -1.628  11.456  22.373  0.00  0.00    +0.000 A 
ATOM     21  C   UNL     1      -1.689  12.402  23.395  0.00  0.00    +0.000 A 
ATOM     22  C   UNL     1      -1.088  13.629  23.211  0.00  0.00    +0.000 A 
ATOM     23  C   UNL     1      -0.434  13.880  22.011  0.00  0.00    +0.000 A 
ATOM     24  C   UNL     1      -0.353  12.938  20.959  0.00  0.00    +0.000 A 
BRANCH  24  25
ATOM     25  O   UNL     1       0.379  13.516  19.968  0.00  0.00    +0.000 OA
ATOM     26  C   UNL     1      -0.127  13.973  18.741  0.00  0.00    +0.000 C 
ENDBRANCH  24  25
ENDBRANCH   6  19
BRANCH   7  27
ATOM     27  C   UNL     1       1.353   9.627  20.447  0.00  0.00    +0.000 C 
BRANCH  27  28
ATOM     28  C   UNL     1       1.307   8.339  21.270  0.00  0.00    +0.000 C 
BRANCH  28  29
ATOM     29  C   UNL     1       1.788   7.147  20.529  0.00  0.00    +0.000 A 
ATOM     30  C   UNL     1       1.614   5.788  20.696  0.00  0.00    +0.000 A 
ATOM     31  C   UNL     1       2.304   5.164  19.629  0.00  0.00    +0.000 A 
ATOM     32  C   UNL     1       2.845   6.179  18.876  0.00  0.00    +0.000 A 
ATOM     33  O   UNL     1       2.539   7.387  19.416  0.00  0.00    +0.000 OA
ENDBRANCH  28  29
ENDBRANCH  27  28
ENDBRANCH   7  27
TORSDOF 7
ENDMDL
MODEL 8
REMARK VINA RESULT:      -6.0      3.735      7.409
REMARK  Name = 
REMARK  9 active torsions:
REMARK  status: ('A' for Active; 'I' for Inactive)
REMARK    1  A    between atoms: C_1  and  O_2
REMARK    2  A    between atoms: O_2  and  C_3
REMARK    3  A    between atoms: C_6  and  C_7
REMARK    4  A    between atoms: C_12  and  C_13
REMARK    5  A    between atoms: C_18  and  O_19
REMARK    6  A    between atoms: O_19  and  C_20
REMARK    7  A    between atoms: N_21  and  C_22
REMARK    8  A    between atoms: C_22  and  C_23
REMARK    9  A    between atoms: C_23  and  C_24
REMARK                            x       y       z     vdW  Elec       q    Type
REMARK                         _______ _______ _______ _____ _____    ______ ____
ROOT
ATOM      1  C   UNL     1      -0.397  10.946  22.367  0.00  0.00    +0.000 A 
ATOM      2  N   UNL     1      -0.539  10.129  23.440  0.00  0.00    +0.000 NA
ATOM      3  N   UNL     1       0.059   8.964  23.090  0.00  0.00    +0.000 N 
ATOM      4  C   UNL     1       0.581   9.033  21.853  0.00  0.00    +0.000 A 
ATOM      5  C   UNL     1       0.264  10.255  21.335  0.00  0.00    +0.000 A 
ATOM      6  C   UNL     1       0.725  10.318  19.934  0.00  0.00    +0.000 C 
ATOM      7  N   UNL     1       1.197   8.927  19.727  0.00  0.00    +0.000 N 
ATOM      8  C   UNL     1       1.178   8.168  20.905  0.00  0.00    +0.000 C 
ATOM      9  O   UNL     1       1.501   7.002  21.061  0.00  0.00    +0.000 OA
ATOM     10  H   UNL     1       0.003   8.168  23.720  0.00  0.00    +0.000 HD
ENDROOT
BRANCH   1  14
ATOM     11  C   UNL     1      -1.922  14.949  22.422  0.00  0.00    +0.000 A 
ATOM     12  C   UNL     1      -2.742  13.877  22.778  0.00  0.00    +0.000 A 
ATOM     13  C   UNL     1      -2.249  12.567  22.760  0.00  0.00    +0.000 A 
ATOM     14  C   UNL     1      -0.927  12.309  22.380  0.00  0.00    +0.000 A 
ATOM     15  C   UNL     1      -0.122  13.389  21.990  0.00  0.00    +0.000 A 
ATOM     16  C   UNL     1      -0.615  14.700  22.010  0.00  0.00    +0.000 A 
BRANCH  11  18
ATOM     17  C   UNL     1      -2.606  16.780  23.748  0.00  0.00    +0.000 C 
ATOM     18  O   UNL     1      -2.518  16.180  22.460  0.00  0.00    +0.000 OA
ENDBRANCH  11  18
ENDBRANCH   1  14
BRANCH   6  19
ATOM     19  C   UNL     1      -0.348  10.855  19.016  0.00  0.00    +0.000 A 
ATOM     20  C   UNL     1      -1.342   9.870  18.715  0.00  0.00    +0.000 A 
ATOM     21  C   UNL     1      -2.434  10.106  17.881  0.00  0.00    +0.000 A 
ATOM     22  C   UNL     1      -2.586  11.351  17.312  0.00  0.00    +0.000 A 
ATOM     23  C   UNL     1      -1.646  12.335  17.593  0.00  0.00    +0.000 A 
ATOM     24  C   UNL     1      -0.531  12.125  18.438  0.00  0.00    +0.000 A 
BRANCH  24  25
ATOM     25  O   UNL     1       0.143  13.304  18.502  0.00  0.00    +0.000 OA
ATOM     26  C   UNL     1       1.540  13.448  18.486  0.00  0.00    +0.000 C 
ENDBRANCH  24  25
ENDBRANCH   6  19
BRANCH   7  27
ATOM     27  C   UNL     1       1.561   8.382  18.427  0.00  0.00    +0.000 C 
BRANCH  27  28
ATOM     28  C   UNL     1       3.018   7.948  18.258  0.00  0.00    +0.000 C 
BRANCH  28  29
ATOM     29  C   UNL     1       3.172   6.504  17.954  0.00  0.00    +0.000 A 
ATOM     30  C   UNL     1       2.342   5.410  18.086  0.00  0.00    +0.000 A 
ATOM     31  C   UNL     1       3.062   4.301  17.582  0.00  0.00    +0.000 A 
ATOM     32  C   UNL     1       4.278   4.789  17.166  0.00  0.00    +0.000 A 
ATOM     33  O   UNL     1       4.355   6.126  17.390  0.00  0.00    +0.000 OA
ENDBRANCH  28  29
ENDBRANCH  27  28
ENDBRANCH   7  27
TORSDOF 7
ENDMDL
MODEL 9
REMARK VINA RESULT:      -5.9      1.231      1.716
REMARK  Name = 
REMARK  9 active torsions:
REMARK  status: ('A' for Active; 'I' for Inactive)
REMARK    1  A    between atoms: C_1  and  O_2
REMARK    2  A    between atoms: O_2  and  C_3
REMARK    3  A    between atoms: C_6  and  C_7
REMARK    4  A    between atoms: C_12  and  C_13
REMARK    5  A    between atoms: C_18  and  O_19
REMARK    6  A    between atoms: O_19  and  C_20
REMARK    7  A    between atoms: N_21  and  C_22
REMARK    8  A    between atoms: C_22  and  C_23
REMARK    9  A    between atoms: C_23  and  C_24
REMARK                            x       y       z     vdW  Elec       q    Type
REMARK                         _______ _______ _______ _____ _____    ______ ____
ROOT
ATOM      1  C   UNL     1      -4.263  12.629  20.734  0.00  0.00    +0.000 A 
ATOM      2  N   UNL     1      -5.247  12.228  21.578  0.00  0.00    +0.000 NA
ATOM      3  N   UNL     1      -5.000  12.864  22.750  0.00  0.00    +0.000 N 
ATOM      4  C   UNL     1      -3.918  13.655  22.660  0.00  0.00    +0.000 A 
ATOM      5  C   UNL     1      -3.384  13.492  21.415  0.00  0.00    +0.000 A 
ATOM      6  C   UNL     1      -2.127  14.262  21.324  0.00  0.00    +0.000 C 
ATOM      7  N   UNL     1      -1.985  14.737  22.721  0.00  0.00    +0.000 N 
ATOM      8  C   UNL     1      -3.100  14.433  23.514  0.00  0.00    +0.000 C 
ATOM      9  O   UNL     1      -3.283  14.685  24.694  0.00  0.00    +0.000 OA
ATOM     10  H   UNL     1      -5.573  12.648  23.561  0.00  0.00    +0.000 HD
ENDROOT
BRANCH   1  14
ATOM     11  C   UNL     1      -4.060  11.211  16.697  0.00  0.00    +0.000 A 
ATOM     12  C   UNL     1      -5.197  11.877  17.154  0.00  0.00    +0.000 A 
ATOM     13  C   UNL     1      -5.270  12.341  18.473  0.00  0.00    +0.000 A 
ATOM     14  C   UNL     1      -4.204  12.141  19.357  0.00  0.00    +0.000 A 
ATOM     15  C   UNL     1      -3.080  11.439  18.899  0.00  0.00    +0.000 A 
ATOM     16  C   UNL     1      -3.007  10.977  17.579  0.00  0.00    +0.000 A 
BRANCH  11  18
ATOM     17  C   UNL     1      -3.004  10.007  14.961  0.00  0.00    +0.000 C 
ATOM     18  O   UNL     1      -4.111  10.789  15.397  0.00  0.00    +0.000 OA
ENDBRANCH  11  18
ENDBRANCH   1  14
BRANCH   6  19
ATOM     19  C   UNL     1      -1.010  13.438  20.728  0.00  0.00    +0.000 A 
ATOM     20  C   UNL     1      -0.733  13.807  19.373  0.00  0.00    +0.000 A 
ATOM     21  C   UNL     1       0.244  13.193  18.590  0.00  0.00    +0.000 A 
ATOM     22  C   UNL     1       0.999  12.178  19.136  0.00  0.00    +0.000 A 
ATOM     23  C   UNL     1       0.765  11.803  20.453  0.00  0.00    +0.000 A 
ATOM     24  C   UNL     1      -0.216  12.411  21.271  0.00  0.00    +0.000 A 
BRANCH  24  25
ATOM     25  O   UNL     1      -0.139  11.813  22.490  0.00  0.00    +0.000 OA
ATOM     26  C   UNL     1      -1.095  10.938  23.032  0.00  0.00    +0.000 C 
ENDBRANCH  24  25
ENDBRANCH   6  19
BRANCH   7  27
ATOM     27  C   UNL     1      -0.782  15.375  23.239  0.00  0.00    +0.000 C 
BRANCH  27  28
ATOM     28  C   UNL     1      -0.326  16.645  22.519  0.00  0.00    +0.000 C 
BRANCH  28  29
ATOM     29  C   UNL     1       0.780  16.413  21.558  0.00  0.00    +0.000 A 
ATOM     30  C   UNL     1       1.960  15.701  21.618  0.00  0.00    +0.000 A 
ATOM     31  C   UNL     1       2.575  15.839  20.351  0.00  0.00    +0.000 A 
ATOM     32  C   UNL     1       1.728  16.617  19.597  0.00  0.00    +0.000 A 
ATOM     33  O   UNL     1       0.637  16.973  20.322  0.00  0.00    +0.000 OA
ENDBRANCH  28  29
ENDBRANCH  27  28
ENDBRANCH   7  27
TORSDOF 7
ENDMDL
