MODEL 1
REMARK VINA RESULT:      -7.7      0.000      0.000
REMARK  Name = 
REMARK  9 active torsions:
REMARK  status: ('A' for Active; 'I' for Inactive)
REMARK    1  A    between atoms: C_1  and  C_2
REMARK    2  A    between atoms: C_2  and  C_3
REMARK    3  A    between atoms: C_3  and  N_4
REMARK    4  A    between atoms: C_8  and  C_9
REMARK    5  A    between atoms: C_9  and  C_10
REMARK    6  A    between atoms: C_9  and  N_11
REMARK    7  A    between atoms: C_12  and  C_14
REMARK    8  A    between atoms: C_17  and  C_18
REMARK    9  A    between atoms: N_19  and  C_20
REMARK                            x       y       z     vdW  Elec       q    Type
REMARK                         _______ _______ _______ _____ _____    ______ ____
ROOT
ATOM      1  N   UNL     1       3.666   5.741  18.230  0.00  0.00    +0.000 N 
ATOM      2  C   UNL     1       2.856   6.262  19.203  0.00  0.00    +0.000 C 
ATOM      3  O   UNL     1       2.577   5.633  20.219  0.00  0.00    +0.000 OA
ATOM      4  H   UNL     1       3.782   6.231  17.351  0.00  0.00    +0.000 HD
ENDROOT
BRANCH   2   5
ATOM      5  C   UNL     1       2.337   7.586  18.909  0.00  0.00    +0.000 A 
ATOM      6  C   UNL     1       2.447   8.324  17.737  0.00  0.00    +0.000 A 
ATOM      7  C   UNL     1       1.693   9.508  17.879  0.00  0.00    +0.000 A 
ATOM      8  C   UNL     1       1.140   9.499  19.142  0.00  0.00    +0.000 A 
ATOM      9  C   UNL     1       0.197  10.478  19.751  0.00  0.00    +0.000 C 
ATOM     10  N   UNL     1       1.609   8.371  19.799  0.00  0.00    +0.000 N 
BRANCH  10  11
ATOM     11  C   UNL     1       1.303   8.002  21.182  0.00  0.00    +0.000 C 
ATOM     12  F   UNL     1       1.741   8.943  22.068  0.00  0.00    +0.000 F 
ATOM     13  F   UNL     1      -0.039   7.900  21.365  0.00  0.00    +0.000 F 
ENDBRANCH  10  11
ENDBRANCH   2   5
BRANCH   1  14
ATOM     14  C   UNL     1       4.189   4.388  18.269  0.00  0.00    +0.000 C 
ATOM     15  C   UNL     1       3.462   3.506  17.257  0.00  0.00    +0.000 C 
BRANCH  14  20
ATOM     16  N   UNL     1       6.191   4.358  16.686  0.00  0.00    +0.000 N 
ATOM     17  N   UNL     1       7.528   4.523  16.726  0.00  0.00    +0.000 NA
ATOM     18  C   UNL     1       7.743   4.699  18.028  0.00  0.00    +0.000 A 
ATOM     19  N   UNL     1       6.626   4.698  18.806  0.00  0.00    +0.000 NA
ATOM     20  C   UNL     1       5.647   4.489  17.939  0.00  0.00    +0.000 A 
BRANCH  16  21
ATOM     21  C   UNL     1       5.547   4.087  15.418  0.00  0.00    +0.000 C 
BRANCH  21  23
ATOM     22  C   UNL     1       6.152   3.662  12.980  0.00  0.00    +0.000 C 
ATOM     23  C   UNL     1       6.359   4.545  14.202  0.00  0.00    +0.000 C 
ENDBRANCH  21  23
ENDBRANCH  16  21
ENDBRANCH  14  20
ENDBRANCH   1  14
TORSDOF 6
ENDMDL
MODEL 2
REMARK VINA RESULT:      -7.6      1.083      2.291
REMARK  Name = 
REMARK  9 active torsions:
REMARK  status: ('A' for Active; 'I' for Inactive)
REMARK    1  A    between atoms: C_1  and  C_2
REMARK    2  A    between atoms: C_2  and  C_3
REMARK    3  A    between atoms: C_3  and  N_4
REMARK    4  A    between atoms: C_8  and  C_9
REMARK    5  A    between atoms: C_9  and  C_10
REMARK    6  A    between atoms: C_9  and  N_11
REMARK    7  A    between atoms: C_12  and  C_14
REMARK    8  A    between atoms: C_17  and  C_18
REMARK    9  A    between atoms: N_19  and  C_20
REMARK                            x       y       z     vdW  Elec       q    Type
REMARK                         _______ _______ _______ _____ _____    ______ ____
ROOT
ATOM      1  N   UNL     1       3.762   6.075  17.785  0.00  0.00    +0.000 N 
ATOM      2  C   UNL     1       2.984   6.454  18.845  0.00  0.00    +0.000 C 
ATOM      3  O   UNL     1       2.813   5.725  19.818  0.00  0.00    +0.000 OA
ATOM      4  H   UNL     1       3.789   6.643  16.947  0.00  0.00    +0.000 HD
ENDROOT
BRANCH   2   5
ATOM      5  C   UNL     1       2.361   7.759  18.699  0.00  0.00    +0.000 A 
ATOM      6  C   UNL     1       2.363   8.606  17.599  0.00  0.00    +0.000 A 
ATOM      7  C   UNL     1       1.537   9.713  17.883  0.00  0.00    +0.000 A 
ATOM      8  C   UNL     1       1.047   9.549  19.161  0.00  0.00    +0.000 A 
ATOM      9  C   UNL     1       0.069  10.396  19.897  0.00  0.00    +0.000 C 
ATOM     10  N   UNL     1       1.623   8.403  19.688  0.00  0.00    +0.000 N 
BRANCH  10  11
ATOM     11  C   UNL     1       1.410   7.889  21.042  0.00  0.00    +0.000 C 
ATOM     12  F   UNL     1       1.751   8.805  21.994  0.00  0.00    +0.000 F 
ATOM     13  F   UNL     1       0.099   7.598  21.243  0.00  0.00    +0.000 F 
ENDBRANCH  10  11
ENDBRANCH   2   5
BRANCH   1  14
ATOM     14  C   UNL     1       4.374   4.764  17.675  0.00  0.00    +0.000 C 
ATOM     15  C   UNL     1       3.326   3.715  17.308  0.00  0.00    +0.000 C 
BRANCH  14  20
ATOM     16  N   UNL     1       6.367   5.860  16.515  0.00  0.00    +0.000 N 
ATOM     17  N   UNL     1       7.165   5.658  15.447  0.00  0.00    +0.000 NA
ATOM     18  C   UNL     1       6.624   4.570  14.903  0.00  0.00    +0.000 A 
ATOM     19  N   UNL     1       5.564   4.049  15.579  0.00  0.00    +0.000 NA
ATOM     20  C   UNL     1       5.417   4.873  16.605  0.00  0.00    +0.000 A 
BRANCH  16  21
ATOM     21  C   UNL     1       6.598   7.006  17.368  0.00  0.00    +0.000 C 
BRANCH  21  23
ATOM     22  C   UNL     1       7.758   5.710  19.230  0.00  0.00    +0.000 C 
ATOM     23  C   UNL     1       7.841   6.875  18.254  0.00  0.00    +0.000 C 
ENDBRANCH  21  23
ENDBRANCH  16  21
ENDBRANCH  14  20
ENDBRANCH   1  14
TORSDOF 6
ENDMDL
MODEL 3
REMARK VINA RESULT:      -7.5      2.862      4.494
REMARK  Name = 
REMARK  9 active torsions:
REMARK  status: ('A' for Active; 'I' for Inactive)
REMARK    1  A    between atoms: C_1  and  C_2
REMARK    2  A    between atoms: C_2  and  C_3
REMARK    3  A    between atoms: C_3  and  N_4
REMARK    4  A    between atoms: C_8  and  C_9
REMARK    5  A    between atoms: C_9  and  C_10
REMARK    6  A    between atoms: C_9  and  N_11
REMARK    7  A    between atoms: C_12  and  C_14
REMARK    8  A    between atoms: C_17  and  C_18
REMARK    9  A    between atoms: N_19  and  C_20
REMARK                            x       y       z     vdW  Elec       q    Type
REMARK                         _______ _______ _______ _____ _____    ______ ____
ROOT
ATOM      1  N   UNL     1       3.907   5.343  18.303  0.00  0.00    +0.000 N 
ATOM      2  C   UNL     1       3.623   4.019  18.104  0.00  0.00    +0.000 C 
ATOM      3  O   UNL     1       3.520   3.540  16.978  0.00  0.00    +0.000 OA
ATOM      4  H   UNL     1       3.869   5.735  19.236  0.00  0.00    +0.000 HD
ENDROOT
BRANCH   2   5
ATOM      5  C   UNL     1       3.421   3.256  19.323  0.00  0.00    +0.000 A 
ATOM      6  C   UNL     1       4.347   2.524  20.055  0.00  0.00    +0.000 A 
ATOM      7  C   UNL     1       3.718   2.043  21.222  0.00  0.00    +0.000 A 
ATOM      8  C   UNL     1       2.407   2.467  21.192  0.00  0.00    +0.000 A 
ATOM      9  C   UNL     1       1.350   2.294  22.227  0.00  0.00    +0.000 C 
ATOM     10  N   UNL     1       2.206   3.128  19.990  0.00  0.00    +0.000 N 
BRANCH  10  11
ATOM     11  C   UNL     1       0.937   3.697  19.533  0.00  0.00    +0.000 C 
ATOM     12  F   UNL     1      -0.018   2.739  19.360  0.00  0.00    +0.000 F 
ATOM     13  F   UNL     1       0.444   4.567  20.452  0.00  0.00    +0.000 F 
ENDBRANCH  10  11
ENDBRANCH   2   5
BRANCH   1  14
ATOM     14  C   UNL     1       4.024   6.304  17.222  0.00  0.00    +0.000 C 
ATOM     15  C   UNL     1       3.438   7.651  17.641  0.00  0.00    +0.000 C 
BRANCH  14  20
ATOM     16  N   UNL     1       6.156   5.766  15.925  0.00  0.00    +0.000 N 
ATOM     17  N   UNL     1       7.459   6.114  15.911  0.00  0.00    +0.000 NA
ATOM     18  C   UNL     1       7.531   6.946  16.947  0.00  0.00    +0.000 A 
ATOM     19  N   UNL     1       6.353   7.178  17.589  0.00  0.00    +0.000 NA
ATOM     20  C   UNL     1       5.487   6.429  16.924  0.00  0.00    +0.000 A 
BRANCH  16  21
ATOM     21  C   UNL     1       5.666   4.811  14.955  0.00  0.00    +0.000 C 
BRANCH  21  23
ATOM     22  C   UNL     1       6.148   3.611  12.759  0.00  0.00    +0.000 C 
ATOM     23  C   UNL     1       6.734   4.331  13.966  0.00  0.00    +0.000 C 
ENDBRANCH  21  23
ENDBRANCH  16  21
ENDBRANCH  14  20
ENDBRANCH   1  14
TORSDOF 6
ENDMDL
MODEL 4
REMARK VINA RESULT:      -7.5      0.927      2.149
REMARK  Name = 
REMARK  9 active torsions:
REMARK  status: ('A' for Active; 'I' for Inactive)
REMARK    1  A    between atoms: C_1  and  C_2
REMARK    2  A    between atoms: C_2  and  C_3
REMARK    3  A    between atoms: C_3  and  N_4
REMARK    4  A    between atoms: C_8  and  C_9
REMARK    5  A    between atoms: C_9  and  C_10
REMARK    6  A    between atoms: C_9  and  N_11
REMARK    7  A    between atoms: C_12  and  C_14
REMARK    8  A    between atoms: C_17  and  C_18
REMARK    9  A    between atoms: N_19  and  C_20
REMARK                            x       y       z     vdW  Elec       q    Type
REMARK                         _______ _______ _______ _____ _____    ______ ____
ROOT
ATOM      1  N   UNL     1       4.067   5.867  18.472  0.00  0.00    +0.000 N 
ATOM      2  C   UNL     1       3.002   6.242  19.244  0.00  0.00    +0.000 C 
ATOM      3  O   UNL     1       2.548   5.512  20.120  0.00  0.00    +0.000 OA
ATOM      4  H   UNL     1       4.345   6.435  17.680  0.00  0.00    +0.000 HD
ENDROOT
BRANCH   2   5
ATOM      5  C   UNL     1       2.445   7.542  18.913  0.00  0.00    +0.000 A 
ATOM      6  C   UNL     1       2.530   8.247  17.719  0.00  0.00    +0.000 A 
ATOM      7  C   UNL     1       1.745   9.413  17.829  0.00  0.00    +0.000 A 
ATOM      8  C   UNL     1       1.197   9.427  19.094  0.00  0.00    +0.000 A 
ATOM      9  C   UNL     1       0.231  10.399  19.677  0.00  0.00    +0.000 C 
ATOM     10  N   UNL     1       1.700   8.334  19.782  0.00  0.00    +0.000 N 
BRANCH  10  11
ATOM     11  C   UNL     1       1.410   7.999  21.177  0.00  0.00    +0.000 C 
ATOM     12  F   UNL     1       1.766   9.007  22.026  0.00  0.00    +0.000 F 
ATOM     13  F   UNL     1       0.079   7.801  21.356  0.00  0.00    +0.000 F 
ENDBRANCH  10  11
ENDBRANCH   2   5
BRANCH   1  14
ATOM     14  C   UNL     1       4.692   4.560  18.556  0.00  0.00    +0.000 C 
ATOM     15  C   UNL     1       3.641   3.458  18.430  0.00  0.00    +0.000 C 
BRANCH  14  20
ATOM     16  N   UNL     1       7.015   4.783  17.521  0.00  0.00    +0.000 N 
ATOM     17  N   UNL     1       7.626   4.600  16.334  0.00  0.00    +0.000 NA
ATOM     18  C   UNL     1       6.608   4.244  15.553  0.00  0.00    +0.000 A 
ATOM     19  N   UNL     1       5.402   4.151  16.179  0.00  0.00    +0.000 NA
ATOM     20  C   UNL     1       5.677   4.489  17.430  0.00  0.00    +0.000 A 
BRANCH  16  21
ATOM     21  C   UNL     1       7.790   5.232  18.657  0.00  0.00    +0.000 C 
BRANCH  21  23
ATOM     22  C   UNL     1       7.518   7.463  17.456  0.00  0.00    +0.000 C 
ATOM     23  C   UNL     1       7.955   6.754  18.730  0.00  0.00    +0.000 C 
ENDBRANCH  21  23
ENDBRANCH  16  21
ENDBRANCH  14  20
ENDBRANCH   1  14
TORSDOF 6
ENDMDL
MODEL 5
REMARK VINA RESULT:      -7.4      3.705      5.091
REMARK  Name = 
REMARK  9 active torsions:
REMARK  status: ('A' for Active; 'I' for Inactive)
REMARK    1  A    between atoms: C_1  and  C_2
REMARK    2  A    between atoms: C_2  and  C_3
REMARK    3  A    between atoms: C_3  and  N_4
REMARK    4  A    between atoms: C_8  and  C_9
REMARK    5  A    between atoms: C_9  and  C_10
REMARK    6  A    between atoms: C_9  and  N_11
REMARK    7  A    between atoms: C_12  and  C_14
REMARK    8  A    between atoms: C_17  and  C_18
REMARK    9  A    between atoms: N_19  and  C_20
REMARK                            x       y       z     vdW  Elec       q    Type
REMARK                         _______ _______ _______ _____ _____    ______ ____
ROOT
ATOM      1  N   UNL     1       5.381   5.032  19.578  0.00  0.00    +0.000 N 
ATOM      2  C   UNL     1       4.167   5.518  19.176  0.00  0.00    +0.000 C 
ATOM      3  O   UNL     1       4.066   6.548  18.516  0.00  0.00    +0.000 OA
ATOM      4  H   UNL     1       5.427   4.250  20.219  0.00  0.00    +0.000 HD
ENDROOT
BRANCH   2   5
ATOM      5  C   UNL     1       3.026   4.738  19.626  0.00  0.00    +0.000 A 
ATOM      6  C   UNL     1       2.185   4.969  20.707  0.00  0.00    +0.000 A 
ATOM      7  C   UNL     1       1.155   4.007  20.688  0.00  0.00    +0.000 A 
ATOM      8  C   UNL     1       1.378   3.180  19.607  0.00  0.00    +0.000 A 
ATOM      9  C   UNL     1       0.534   2.062  19.102  0.00  0.00    +0.000 C 
ATOM     10  N   UNL     1       2.570   3.572  19.017  0.00  0.00    +0.000 N 
BRANCH  10  11
ATOM     11  C   UNL     1       3.201   2.928  17.864  0.00  0.00    +0.000 C 
ATOM     12  F   UNL     1       3.840   1.774  18.213  0.00  0.00    +0.000 F 
ATOM     13  F   UNL     1       2.270   2.585  16.937  0.00  0.00    +0.000 F 
ENDBRANCH  10  11
ENDBRANCH   2   5
BRANCH   1  14
ATOM     14  C   UNL     1       6.634   5.724  19.340  0.00  0.00    +0.000 C 
ATOM     15  C   UNL     1       7.738   5.146  20.224  0.00  0.00    +0.000 C 
BRANCH  14  20
ATOM     16  N   UNL     1       7.296   6.525  17.009  0.00  0.00    +0.000 N 
ATOM     17  N   UNL     1       7.544   6.016  15.785  0.00  0.00    +0.000 NA
ATOM     18  C   UNL     1       7.291   4.722  15.971  0.00  0.00    +0.000 A 
ATOM     19  N   UNL     1       6.941   4.375  17.240  0.00  0.00    +0.000 NA
ATOM     20  C   UNL     1       6.956   5.529  17.890  0.00  0.00    +0.000 A 
BRANCH  16  21
ATOM     21  C   UNL     1       7.414   7.952  17.221  0.00  0.00    +0.000 C 
BRANCH  21  23
ATOM     22  C   UNL     1       8.666   9.829  18.404  0.00  0.00    +0.000 C 
ATOM     23  C   UNL     1       8.401   8.332  18.329  0.00  0.00    +0.000 C 
ENDBRANCH  21  23
ENDBRANCH  16  21
ENDBRANCH  14  20
ENDBRANCH   1  14
TORSDOF 6
ENDMDL
MODEL 6
REMARK VINA RESULT:      -7.4      1.716      2.600
REMARK  Name = 
REMARK  9 active torsions:
REMARK  status: ('A' for Active; 'I' for Inactive)
REMARK    1  A    between atoms: C_1  and  C_2
REMARK    2  A    between atoms: C_2  and  C_3
REMARK    3  A    between atoms: C_3  and  N_4
REMARK    4  A    between atoms: C_8  and  C_9
REMARK    5  A    between atoms: C_9  and  C_10
REMARK    6  A    between atoms: C_9  and  N_11
REMARK    7  A    between atoms: C_12  and  C_14
REMARK    8  A    between atoms: C_17  and  C_18
REMARK    9  A    between atoms: N_19  and  C_20
REMARK                            x       y       z     vdW  Elec       q    Type
REMARK                         _______ _______ _______ _____ _____    ______ ____
ROOT
ATOM      1  N   UNL     1       3.905   7.288  17.644  0.00  0.00    +0.000 N 
ATOM      2  C   UNL     1       2.647   7.171  18.171  0.00  0.00    +0.000 C 
ATOM      3  O   UNL     1       2.091   6.083  18.287  0.00  0.00    +0.000 OA
ATOM      4  H   UNL     1       4.290   8.204  17.450  0.00  0.00    +0.000 HD
ENDROOT
BRANCH   2   5
ATOM      5  C   UNL     1       2.029   8.433  18.540  0.00  0.00    +0.000 A 
ATOM      6  C   UNL     1       1.874   9.583  17.775  0.00  0.00    +0.000 A 
ATOM      7  C   UNL     1       1.119  10.516  18.515  0.00  0.00    +0.000 A 
ATOM      8  C   UNL     1       0.829   9.942  19.735  0.00  0.00    +0.000 A 
ATOM      9  C   UNL     1      -0.010  10.482  20.841  0.00  0.00    +0.000 C 
ATOM     10  N   UNL     1       1.463   8.710  19.781  0.00  0.00    +0.000 N 
BRANCH  10  11
ATOM     11  C   UNL     1       1.455   7.790  20.920  0.00  0.00    +0.000 C 
ATOM     12  F   UNL     1       1.791   8.418  22.084  0.00  0.00    +0.000 F 
ATOM     13  F   UNL     1       0.213   7.273  21.109  0.00  0.00    +0.000 F 
ENDBRANCH  10  11
ENDBRANCH   2   5
BRANCH   1  14
ATOM     14  C   UNL     1       4.648   6.166  17.101  0.00  0.00    +0.000 C 
ATOM     15  C   UNL     1       5.173   6.500  15.706  0.00  0.00    +0.000 C 
BRANCH  14  20
ATOM     16  N   UNL     1       5.719   5.113  19.166  0.00  0.00    +0.000 N 
ATOM     17  N   UNL     1       6.912   5.078  19.792  0.00  0.00    +0.000 NA
ATOM     18  C   UNL     1       7.639   5.906  19.045  0.00  0.00    +0.000 A 
ATOM     19  N   UNL     1       6.995   6.429  17.965  0.00  0.00    +0.000 NA
ATOM     20  C   UNL     1       5.779   5.910  18.050  0.00  0.00    +0.000 A 
BRANCH  16  21
ATOM     21  C   UNL     1       4.609   4.360  19.709  0.00  0.00    +0.000 C 
BRANCH  21  23
ATOM     22  C   UNL     1       3.335   2.649  18.316  0.00  0.00    +0.000 C 
ATOM     23  C   UNL     1       4.539   2.914  19.208  0.00  0.00    +0.000 C 
ENDBRANCH  21  23
ENDBRANCH  16  21
ENDBRANCH  14  20
ENDBRANCH   1  14
TORSDOF 6
ENDMDL
MODEL 7
REMARK VINA RESULT:      -7.4      3.409      4.431
REMARK  Name = 
REMARK  9 active torsions:
REMARK  status: ('A' for Active; 'I' for Inactive)
REMARK    1  A    between atoms: C_1  and  C_2
REMARK    2  A    between atoms: C_2  and  C_3
REMARK    3  A    between atoms: C_3  and  N_4
REMARK    4  A    between atoms: C_8  and  C_9
REMARK    5  A    between atoms: C_9  and  C_10
REMARK    6  A    between atoms: C_9  and  N_11
REMARK    7  A    between atoms: C_12  and  C_14
REMARK    8  A    between atoms: C_17  and  C_18
REMARK    9  A    between atoms: N_19  and  C_20
REMARK                            x       y       z     vdW  Elec       q    Type
REMARK                         _______ _______ _______ _____ _____    ______ ____
ROOT
ATOM      1  N   UNL     1       3.863   5.408  17.783  0.00  0.00    +0.000 N 
ATOM      2  C   UNL     1       3.169   4.228  17.786  0.00  0.00    +0.000 C 
ATOM      3  O   UNL     1       3.220   3.444  16.843  0.00  0.00    +0.000 OA
ATOM      4  H   UNL     1       3.710   6.088  18.518  0.00  0.00    +0.000 HD
ENDROOT
BRANCH   2   5
ATOM      5  C   UNL     1       2.353   4.012  18.969  0.00  0.00    +0.000 A 
ATOM      6  C   UNL     1       1.119   4.564  19.287  0.00  0.00    +0.000 A 
ATOM      7  C   UNL     1       0.661   3.979  20.486  0.00  0.00    +0.000 A 
ATOM      8  C   UNL     1       1.623   3.084  20.905  0.00  0.00    +0.000 A 
ATOM      9  C   UNL     1       1.584   2.154  22.068  0.00  0.00    +0.000 C 
ATOM     10  N   UNL     1       2.693   3.175  20.028  0.00  0.00    +0.000 N 
BRANCH  10  11
ATOM     11  C   UNL     1       3.947   2.429  20.134  0.00  0.00    +0.000 C 
ATOM     12  F   UNL     1       4.039   1.450  19.188  0.00  0.00    +0.000 F 
ATOM     13  F   UNL     1       5.011   3.250  19.940  0.00  0.00    +0.000 F 
ENDBRANCH  10  11
ENDBRANCH   2   5
BRANCH   1  14
ATOM     14  C   UNL     1       4.639   5.872  16.649  0.00  0.00    +0.000 C 
ATOM     15  C   UNL     1       4.702   7.399  16.635  0.00  0.00    +0.000 C 
BRANCH  14  20
ATOM     16  N   UNL     1       6.817   4.865  15.777  0.00  0.00    +0.000 N 
ATOM     17  N   UNL     1       7.991   4.404  16.252  0.00  0.00    +0.000 NA
ATOM     18  C   UNL     1       7.820   4.521  17.567  0.00  0.00    +0.000 A 
ATOM     19  N   UNL     1       6.632   5.063  17.952  0.00  0.00    +0.000 NA
ATOM     20  C   UNL     1       6.008   5.284  16.804  0.00  0.00    +0.000 A 
BRANCH  16  21
ATOM     21  C   UNL     1       6.577   4.860  14.350  0.00  0.00    +0.000 C 
BRANCH  21  23
ATOM     22  C   UNL     1       6.068   3.465  12.279  0.00  0.00    +0.000 C 
ATOM     23  C   UNL     1       6.149   3.496  13.799  0.00  0.00    +0.000 C 
ENDBRANCH  21  23
ENDBRANCH  16  21
ENDBRANCH  14  20
ENDBRANCH   1  14
TORSDOF 6
ENDMDL
MODEL 8
REMARK VINA RESULT:      -7.4      3.681      5.873
REMARK  Name = 
REMARK  9 active torsions:
REMARK  status: ('A' for Active; 'I' for Inactive)
REMARK    1  A    between atoms: C_1  and  C_2
REMARK    2  A    between atoms: C_2  and  C_3
REMARK    3  A    between atoms: C_3  and  N_4
REMARK    4  A    between atoms: C_8  and  C_9
REMARK    5  A    between atoms: C_9  and  C_10
REMARK    6  A    between atoms: C_9  and  N_11
REMARK    7  A    between atoms: C_12  and  C_14
REMARK    8  A    between atoms: C_17  and  C_18
REMARK    9  A    between atoms: N_19  and  C_20
REMARK                            x       y       z     vdW  Elec       q    Type
REMARK                         _______ _______ _______ _____ _____    ______ ____
ROOT
ATOM      1  N   UNL     1       4.967   3.496  19.238  0.00  0.00    +0.000 N 
ATOM      2  C   UNL     1       5.450   4.091  18.104  0.00  0.00    +0.000 C 
ATOM      3  O   UNL     1       5.126   3.709  16.984  0.00  0.00    +0.000 OA
ATOM      4  H   UNL     1       5.341   3.752  20.144  0.00  0.00    +0.000 HD
ENDROOT
BRANCH   2   5
ATOM      5  C   UNL     1       6.392   5.171  18.345  0.00  0.00    +0.000 A 
ATOM      6  C   UNL     1       7.465   5.210  19.226  0.00  0.00    +0.000 A 
ATOM      7  C   UNL     1       8.158   6.423  19.035  0.00  0.00    +0.000 A 
ATOM      8  C   UNL     1       7.498   7.129  18.052  0.00  0.00    +0.000 A 
ATOM      9  C   UNL     1       7.874   8.428  17.428  0.00  0.00    +0.000 C 
ATOM     10  N   UNL     1       6.370   6.404  17.698  0.00  0.00    +0.000 N 
BRANCH  10  11
ATOM     11  C   UNL     1       5.364   6.817  16.720  0.00  0.00    +0.000 C 
ATOM     12  F   UNL     1       5.439   6.084  15.572  0.00  0.00    +0.000 F 
ATOM     13  F   UNL     1       4.112   6.631  17.212  0.00  0.00    +0.000 F 
ENDBRANCH  10  11
ENDBRANCH   2   5
BRANCH   1  14
ATOM     14  C   UNL     1       4.112   2.324  19.221  0.00  0.00    +0.000 C 
ATOM     15  C   UNL     1       4.894   1.087  19.656  0.00  0.00    +0.000 C 
BRANCH  14  20
ATOM     16  N   UNL     1       1.684   2.843  19.816  0.00  0.00    +0.000 N 
ATOM     17  N   UNL     1       0.920   3.042  20.908  0.00  0.00    +0.000 NA
ATOM     18  C   UNL     1       1.818   2.965  21.888  0.00  0.00    +0.000 A 
ATOM     19  N   UNL     1       3.090   2.690  21.489  0.00  0.00    +0.000 NA
ATOM     20  C   UNL     1       2.988   2.607  20.171  0.00  0.00    +0.000 A 
BRANCH  16  21
ATOM     21  C   UNL     1       1.075   2.897  18.504  0.00  0.00    +0.000 C 
BRANCH  21  23
ATOM     22  C   UNL     1       1.770   5.331  18.209  0.00  0.00    +0.000 C 
ATOM     23  C   UNL     1       1.696   3.948  17.578  0.00  0.00    +0.000 C 
ENDBRANCH  21  23
ENDBRANCH  16  21
ENDBRANCH  14  20
ENDBRANCH   1  14
TORSDOF 6
ENDMDL
MODEL 9
REMARK VINA RESULT:      -7.4      3.105      6.175
REMARK  Name = 
REMARK  9 active torsions:
REMARK  status: ('A' for Active; 'I' for Inactive)
REMARK    1  A    between atoms: C_1  and  C_2
REMARK    2  A    between atoms: C_2  and  C_3
REMARK    3  A    between atoms: C_3  and  N_4
REMARK    4  A    between atoms: C_8  and  C_9
REMARK    5  A    between atoms: C_9  and  C_10
REMARK    6  A    between atoms: C_9  and  N_11
REMARK    7  A    between atoms: C_12  and  C_14
REMARK    8  A    between atoms: C_17  and  C_18
REMARK    9  A    between atoms: N_19  and  C_20
REMARK                            x       y       z     vdW  Elec       q    Type
REMARK                         _______ _______ _______ _____ _____    ______ ____
ROOT
ATOM      1  N   UNL     1       3.973   5.270  18.533  0.00  0.00    +0.000 N 
ATOM      2  C   UNL     1       5.268   4.830  18.481  0.00  0.00    +0.000 C 
ATOM      3  O   UNL     1       5.957   4.722  19.490  0.00  0.00    +0.000 OA
ATOM      4  H   UNL     1       3.467   5.463  17.677  0.00  0.00    +0.000 HD
ENDROOT
BRANCH   2   5
ATOM      5  C   UNL     1       5.753   4.545  17.141  0.00  0.00    +0.000 A 
ATOM      6  C   UNL     1       5.444   3.474  16.313  0.00  0.00    +0.000 A 
ATOM      7  C   UNL     1       6.070   3.675  15.066  0.00  0.00    +0.000 A 
ATOM      8  C   UNL     1       6.774   4.859  15.140  0.00  0.00    +0.000 A 
ATOM      9  C   UNL     1       7.535   5.557  14.067  0.00  0.00    +0.000 C 
ATOM     10  N   UNL     1       6.653   5.339  16.435  0.00  0.00    +0.000 N 
BRANCH  10  11
ATOM     11  C   UNL     1       7.286   6.551  16.957  0.00  0.00    +0.000 C 
ATOM     12  F   UNL     1       6.365   7.479  17.348  0.00  0.00    +0.000 F 
ATOM     13  F   UNL     1       8.033   6.267  18.055  0.00  0.00    +0.000 F 
ENDBRANCH  10  11
ENDBRANCH   2   5
BRANCH   1  14
ATOM     14  C   UNL     1       3.335   5.724  19.755  0.00  0.00    +0.000 C 
ATOM     15  C   UNL     1       2.388   6.886  19.461  0.00  0.00    +0.000 C 
BRANCH  14  20
ATOM     16  N   UNL     1       1.938   3.596  19.552  0.00  0.00    +0.000 N 
ATOM     17  N   UNL     1       1.377   2.663  20.347  0.00  0.00    +0.000 NA
ATOM     18  C   UNL     1       1.670   3.125  21.561  0.00  0.00    +0.000 A 
ATOM     19  N   UNL     1       2.414   4.265  21.584  0.00  0.00    +0.000 NA
ATOM     20  C   UNL     1       2.583   4.548  20.301  0.00  0.00    +0.000 A 
BRANCH  16  21
ATOM     21  C   UNL     1       1.800   3.482  18.116  0.00  0.00    +0.000 C 
BRANCH  21  23
ATOM     22  C   UNL     1       3.451   1.564  18.414  0.00  0.00    +0.000 C 
ATOM     23  C   UNL     1       2.363   2.177  17.543  0.00  0.00    +0.000 C 
ENDBRANCH  21  23
ENDBRANCH  16  21
ENDBRANCH  14  20
ENDBRANCH   1  14
TORSDOF 6
ENDMDL
