MODEL 1
REMARK VINA RESULT:      -9.0      0.000      0.000
REMARK  Name = 
REMARK  3 active torsions:
REMARK  status: ('A' for Active; 'I' for Inactive)
REMARK    1  A    between atoms: C_6  and  C_7
REMARK    2  A    between atoms: C_7  and  C_8
REMARK    3  A    between atoms: N_10  and  C_11
REMARK                            x       y       z     vdW  Elec       q    Type
REMARK                         _______ _______ _______ _____ _____    ______ ____
ROOT
ATOM      1  C   UNL     1       2.031   6.387  19.003  0.00  0.00    +0.000 C 
ATOM      2  C   UNL     1       3.159   6.260  17.951  0.00  0.00    +0.000 C 
ATOM      3  N   UNL     1       3.984   5.100  18.300  0.00  0.00    +0.000 N 
ATOM      4  C   UNL     1       3.222   4.347  19.216  0.00  0.00    +0.000 A 
ATOM      5  C   UNL     1       3.491   3.091  19.733  0.00  0.00    +0.000 A 
ATOM      6  C   UNL     1       2.571   2.503  20.610  0.00  0.00    +0.000 A 
ATOM      7  C   UNL     1       1.389   3.169  20.961  0.00  0.00    +0.000 A 
ATOM      8  C   UNL     1       1.118   4.435  20.450  0.00  0.00    +0.000 A 
ATOM      9  C   UNL     1       2.046   5.008  19.592  0.00  0.00    +0.000 A 
ENDROOT
BRANCH   3  10
ATOM     10  C   UNL     1       5.265   4.899  17.790  0.00  0.00    +0.000 A 
ATOM     11  N   UNL     1       6.311   4.888  18.665  0.00  0.00    +0.000 NA
ATOM     12  C   UNL     1       7.565   4.756  18.212  0.00  0.00    +0.000 A 
ATOM     13  N   UNL     1       7.957   4.611  16.949  0.00  0.00    +0.000 NA
ATOM     14  C   UNL     1       6.923   4.587  16.096  0.00  0.00    +0.000 A 
ATOM     15  S   UNL     1       7.208   4.381  14.426  0.00  0.00    +0.000 S 
ATOM     16  C   UNL     1       5.542   4.418  14.075  0.00  0.00    +0.000 A 
ATOM     17  C   UNL     1       4.786   4.589  15.214  0.00  0.00    +0.000 A 
ATOM     18  C   UNL     1       5.575   4.716  16.415  0.00  0.00    +0.000 A 
ENDBRANCH   3  10
BRANCH   1  19
ATOM     19  C   UNL     1       2.282   7.426  20.108  0.00  0.00    +0.000 C 
BRANCH  19  25
ATOM     20  O   UNL     1       0.361   9.632  23.822  0.00  0.00    +0.000 OA
ATOM     21  C   UNL     1       0.496   9.555  22.605  0.00  0.00    +0.000 C 
ATOM     22  C   UNL     1       0.027  10.640  21.630  0.00  0.00    +0.000 C 
ATOM     23  O   UNL     1      -0.290  10.179  20.320  0.00  0.00    +0.000 OA
ATOM     24  C   UNL     1       0.797   9.424  19.782  0.00  0.00    +0.000 C 
ATOM     25  C   UNL     1       1.044   8.163  20.638  0.00  0.00    +0.000 C 
ATOM     26  N   UNL     1       1.183   8.500  22.050  0.00  0.00    +0.000 N 
ATOM     27  H   UNL     1       1.369   7.773  22.730  0.00  0.00    +0.000 HD
ENDBRANCH  19  25
ENDBRANCH   1  19
TORSDOF 3
ENDMDL
MODEL 2
REMARK VINA RESULT:      -8.6      4.159      7.532
REMARK  Name = 
REMARK  3 active torsions:
REMARK  status: ('A' for Active; 'I' for Inactive)
REMARK    1  A    between atoms: C_6  and  C_7
REMARK    2  A    between atoms: C_7  and  C_8
REMARK    3  A    between atoms: N_10  and  C_11
REMARK                            x       y       z     vdW  Elec       q    Type
REMARK                         _______ _______ _______ _____ _____    ______ ____
ROOT
ATOM      1  C   UNL     1       4.425   4.756  18.483  0.00  0.00    +0.000 C 
ATOM      2  C   UNL     1       4.149   6.274  18.610  0.00  0.00    +0.000 C 
ATOM      3  N   UNL     1       2.804   6.452  19.164  0.00  0.00    +0.000 N 
ATOM      4  C   UNL     1       2.442   5.202  19.706  0.00  0.00    +0.000 A 
ATOM      5  C   UNL     1       1.332   4.884  20.470  0.00  0.00    +0.000 A 
ATOM      6  C   UNL     1       1.183   3.576  20.944  0.00  0.00    +0.000 A 
ATOM      7  C   UNL     1       2.143   2.595  20.658  0.00  0.00    +0.000 A 
ATOM      8  C   UNL     1       3.257   2.909  19.883  0.00  0.00    +0.000 A 
ATOM      9  C   UNL     1       3.382   4.208  19.412  0.00  0.00    +0.000 A 
ENDROOT
BRANCH   3  10
ATOM     10  C   UNL     1       2.104   7.655  19.084  0.00  0.00    +0.000 A 
ATOM     11  N   UNL     1       1.883   8.190  17.850  0.00  0.00    +0.000 NA
ATOM     12  C   UNL     1       1.265   9.373  17.731  0.00  0.00    +0.000 A 
ATOM     13  N   UNL     1       0.796  10.141  18.710  0.00  0.00    +0.000 NA
ATOM     14  C   UNL     1       0.984   9.594  19.919  0.00  0.00    +0.000 A 
ATOM     15  S   UNL     1       0.427  10.408  21.312  0.00  0.00    +0.000 S 
ATOM     16  C   UNL     1       0.967   9.156  22.334  0.00  0.00    +0.000 A 
ATOM     17  C   UNL     1       1.563   8.140  21.621  0.00  0.00    +0.000 A 
ATOM     18  C   UNL     1       1.609   8.384  20.200  0.00  0.00    +0.000 A 
ENDBRANCH   3  10
BRANCH   1  19
ATOM     19  C   UNL     1       4.223   4.171  17.075  0.00  0.00    +0.000 C 
BRANCH  19  25
ATOM     20  O   UNL     1       6.027   3.559  12.749  0.00  0.00    +0.000 OA
ATOM     21  C   UNL     1       6.162   3.998  13.887  0.00  0.00    +0.000 C 
ATOM     22  C   UNL     1       7.302   4.932  14.305  0.00  0.00    +0.000 C 
ATOM     23  O   UNL     1       7.661   4.868  15.683  0.00  0.00    +0.000 OA
ATOM     24  C   UNL     1       6.506   5.047  16.506  0.00  0.00    +0.000 C 
ATOM     25  C   UNL     1       5.499   3.902  16.265  0.00  0.00    +0.000 C 
ATOM     26  N   UNL     1       5.209   3.740  14.845  0.00  0.00    +0.000 N 
ATOM     27  H   UNL     1       4.548   3.037  14.538  0.00  0.00    +0.000 HD
ENDBRANCH  19  25
ENDBRANCH   1  19
TORSDOF 3
ENDMDL
MODEL 3
REMARK VINA RESULT:      -8.5      4.033      7.277
REMARK  Name = 
REMARK  3 active torsions:
REMARK  status: ('A' for Active; 'I' for Inactive)
REMARK    1  A    between atoms: C_6  and  C_7
REMARK    2  A    between atoms: C_7  and  C_8
REMARK    3  A    between atoms: N_10  and  C_11
REMARK                            x       y       z     vdW  Elec       q    Type
REMARK                         _______ _______ _______ _____ _____    ______ ____
ROOT
ATOM      1  C   UNL     1       4.337   4.597  18.356  0.00  0.00    +0.000 C 
ATOM      2  C   UNL     1       4.088   5.901  19.152  0.00  0.00    +0.000 C 
ATOM      3  N   UNL     1       2.688   5.915  19.587  0.00  0.00    +0.000 N 
ATOM      4  C   UNL     1       2.226   4.591  19.439  0.00  0.00    +0.000 A 
ATOM      5  C   UNL     1       1.019   4.049  19.848  0.00  0.00    +0.000 A 
ATOM      6  C   UNL     1       0.775   2.688  19.635  0.00  0.00    +0.000 A 
ATOM      7  C   UNL     1       1.738   1.874  19.020  0.00  0.00    +0.000 A 
ATOM      8  C   UNL     1       2.950   2.417  18.600  0.00  0.00    +0.000 A 
ATOM      9  C   UNL     1       3.169   3.771  18.809  0.00  0.00    +0.000 A 
ENDROOT
BRANCH   3  10
ATOM     10  C   UNL     1       2.036   7.071  20.011  0.00  0.00    +0.000 A 
ATOM     11  N   UNL     1       1.483   7.077  21.257  0.00  0.00    +0.000 NA
ATOM     12  C   UNL     1       0.797   8.147  21.683  0.00  0.00    +0.000 A 
ATOM     13  N   UNL     1       0.578   9.281  21.024  0.00  0.00    +0.000 NA
ATOM     14  C   UNL     1       1.154   9.284  19.813  0.00  0.00    +0.000 A 
ATOM     15  S   UNL     1       1.017  10.660  18.813  0.00  0.00    +0.000 S 
ATOM     16  C   UNL     1       1.963   9.944  17.592  0.00  0.00    +0.000 A 
ATOM     17  C   UNL     1       2.371   8.676  17.943  0.00  0.00    +0.000 A 
ATOM     18  C   UNL     1       1.888   8.253  19.235  0.00  0.00    +0.000 A 
ENDBRANCH   3  10
BRANCH   1  19
ATOM     19  C   UNL     1       4.301   4.749  16.826  0.00  0.00    +0.000 C 
BRANCH  19  25
ATOM     20  O   UNL     1       6.148   3.356  12.704  0.00  0.00    +0.000 OA
ATOM     21  C   UNL     1       6.258   4.024  13.728  0.00  0.00    +0.000 C 
ATOM     22  C   UNL     1       7.350   5.077  13.940  0.00  0.00    +0.000 C 
ATOM     23  O   UNL     1       7.706   5.312  15.299  0.00  0.00    +0.000 OA
ATOM     24  C   UNL     1       6.542   5.599  16.076  0.00  0.00    +0.000 C 
ATOM     25  C   UNL     1       5.591   4.383  16.080  0.00  0.00    +0.000 C 
ATOM     26  N   UNL     1       5.315   3.922  14.725  0.00  0.00    +0.000 N 
ATOM     27  H   UNL     1       4.690   3.140  14.571  0.00  0.00    +0.000 HD
ENDBRANCH  19  25
ENDBRANCH   1  19
TORSDOF 3
ENDMDL
MODEL 4
REMARK VINA RESULT:      -8.3      0.941      1.515
REMARK  Name = 
REMARK  3 active torsions:
REMARK  status: ('A' for Active; 'I' for Inactive)
REMARK    1  A    between atoms: C_6  and  C_7
REMARK    2  A    between atoms: C_7  and  C_8
REMARK    3  A    between atoms: N_10  and  C_11
REMARK                            x       y       z     vdW  Elec       q    Type
REMARK                         _______ _______ _______ _____ _____    ______ ____
ROOT
ATOM      1  C   UNL     1       1.778   6.431  19.670  0.00  0.00    +0.000 C 
ATOM      2  C   UNL     1       2.955   6.563  18.673  0.00  0.00    +0.000 C 
ATOM      3  N   UNL     1       3.814   5.383  18.816  0.00  0.00    +0.000 N 
ATOM      4  C   UNL     1       3.046   4.432  19.518  0.00  0.00    +0.000 A 
ATOM      5  C   UNL     1       3.346   3.105  19.778  0.00  0.00    +0.000 A 
ATOM      6  C   UNL     1       2.417   2.318  20.467  0.00  0.00    +0.000 A 
ATOM      7  C   UNL     1       1.193   2.856  20.888  0.00  0.00    +0.000 A 
ATOM      8  C   UNL     1       0.890   4.192  20.636  0.00  0.00    +0.000 A 
ATOM      9  C   UNL     1       1.828   4.960  19.962  0.00  0.00    +0.000 A 
ENDROOT
BRANCH   3  10
ATOM     10  C   UNL     1       5.123   5.335  18.341  0.00  0.00    +0.000 A 
ATOM     11  N   UNL     1       6.135   5.592  19.219  0.00  0.00    +0.000 NA
ATOM     12  C   UNL     1       7.405   5.613  18.792  0.00  0.00    +0.000 A 
ATOM     13  N   UNL     1       7.846   5.393  17.557  0.00  0.00    +0.000 NA
ATOM     14  C   UNL     1       6.851   5.107  16.705  0.00  0.00    +0.000 A 
ATOM     15  S   UNL     1       7.206   4.763  15.072  0.00  0.00    +0.000 S 
ATOM     16  C   UNL     1       5.564   4.492  14.708  0.00  0.00    +0.000 A 
ATOM     17  C   UNL     1       4.763   4.666  15.814  0.00  0.00    +0.000 A 
ATOM     18  C   UNL     1       5.492   5.052  16.998  0.00  0.00    +0.000 A 
ENDBRANCH   3  10
BRANCH   1  19
ATOM     19  C   UNL     1       1.937   7.225  20.977  0.00  0.00    +0.000 C 
BRANCH  19  25
ATOM     20  O   UNL     1      -0.890  10.459  19.005  0.00  0.00    +0.000 OA
ATOM     21  C   UNL     1      -0.274  10.069  19.992  0.00  0.00    +0.000 C 
ATOM     22  C   UNL     1      -0.450  10.668  21.391  0.00  0.00    +0.000 C 
ATOM     23  O   UNL     1       0.684  10.551  22.246  0.00  0.00    +0.000 OA
ATOM     24  C   UNL     1       1.121   9.192  22.307  0.00  0.00    +0.000 C 
ATOM     25  C   UNL     1       1.577   8.715  20.911  0.00  0.00    +0.000 C 
ATOM     26  N   UNL     1       0.557   8.977  19.903  0.00  0.00    +0.000 N 
ATOM     27  H   UNL     1       0.710   8.699  18.941  0.00  0.00    +0.000 HD
ENDBRANCH  19  25
ENDBRANCH   1  19
TORSDOF 3
ENDMDL
MODEL 5
REMARK VINA RESULT:      -8.1      3.368      6.276
REMARK  Name = 
REMARK  3 active torsions:
REMARK  status: ('A' for Active; 'I' for Inactive)
REMARK    1  A    between atoms: C_6  and  C_7
REMARK    2  A    between atoms: C_7  and  C_8
REMARK    3  A    between atoms: N_10  and  C_11
REMARK                            x       y       z     vdW  Elec       q    Type
REMARK                         _______ _______ _______ _____ _____    ______ ____
ROOT
ATOM      1  C   UNL     1       3.556   3.625  16.965  0.00  0.00    +0.000 C 
ATOM      2  C   UNL     1       2.477   4.576  17.536  0.00  0.00    +0.000 C 
ATOM      3  N   UNL     1       3.153   5.732  18.134  0.00  0.00    +0.000 N 
ATOM      4  C   UNL     1       4.470   5.710  17.632  0.00  0.00    +0.000 A 
ATOM      5  C   UNL     1       5.462   6.665  17.776  0.00  0.00    +0.000 A 
ATOM      6  C   UNL     1       6.701   6.460  17.157  0.00  0.00    +0.000 A 
ATOM      7  C   UNL     1       6.940   5.309  16.394  0.00  0.00    +0.000 A 
ATOM      8  C   UNL     1       5.947   4.342  16.252  0.00  0.00    +0.000 A 
ATOM      9  C   UNL     1       4.730   4.556  16.883  0.00  0.00    +0.000 A 
ENDROOT
BRANCH   3  10
ATOM     10  C   UNL     1       2.528   6.594  19.033  0.00  0.00    +0.000 A 
ATOM     11  N   UNL     1       2.229   6.121  20.276  0.00  0.00    +0.000 NA
ATOM     12  C   UNL     1       1.577   6.897  21.152  0.00  0.00    +0.000 A 
ATOM     13  N   UNL     1       1.166   8.149  20.972  0.00  0.00    +0.000 NA
ATOM     14  C   UNL     1       1.493   8.622  19.761  0.00  0.00    +0.000 A 
ATOM     15  S   UNL     1       1.081  10.223  19.337  0.00  0.00    +0.000 S 
ATOM     16  C   UNL     1       1.812  10.071  17.807  0.00  0.00    +0.000 A 
ATOM     17  C   UNL     1       2.356   8.819  17.625  0.00  0.00    +0.000 A 
ATOM     18  C   UNL     1       2.160   7.938  18.750  0.00  0.00    +0.000 A 
ENDBRANCH   3  10
BRANCH   1  19
ATOM     19  C   UNL     1       3.909   2.425  17.860  0.00  0.00    +0.000 C 
BRANCH  19  25
ATOM     20  O   UNL     1       2.367   3.160  22.267  0.00  0.00    +0.000 OA
ATOM     21  C   UNL     1       2.105   2.918  21.093  0.00  0.00    +0.000 C 
ATOM     22  C   UNL     1       0.686   2.955  20.517  0.00  0.00    +0.000 C 
ATOM     23  O   UNL     1       0.471   2.115  19.386  0.00  0.00    +0.000 OA
ATOM     24  C   UNL     1       1.453   2.375  18.381  0.00  0.00    +0.000 C 
ATOM     25  C   UNL     1       2.862   2.036  18.913  0.00  0.00    +0.000 C 
ATOM     26  N   UNL     1       3.118   2.690  20.191  0.00  0.00    +0.000 N 
ATOM     27  H   UNL     1       4.012   2.574  20.652  0.00  0.00    +0.000 HD
ENDBRANCH  19  25
ENDBRANCH   1  19
TORSDOF 3
ENDMDL
MODEL 6
REMARK VINA RESULT:      -8.0      3.842      7.016
REMARK  Name = 
REMARK  3 active torsions:
REMARK  status: ('A' for Active; 'I' for Inactive)
REMARK    1  A    between atoms: C_6  and  C_7
REMARK    2  A    between atoms: C_7  and  C_8
REMARK    3  A    between atoms: N_10  and  C_11
REMARK                            x       y       z     vdW  Elec       q    Type
REMARK                         _______ _______ _______ _____ _____    ______ ____
ROOT
ATOM      1  C   UNL     1       4.595   4.341  19.163  0.00  0.00    +0.000 C 
ATOM      2  C   UNL     1       4.353   5.870  19.159  0.00  0.00    +0.000 C 
ATOM      3  N   UNL     1       2.938   6.112  19.459  0.00  0.00    +0.000 N 
ATOM      4  C   UNL     1       2.447   4.904  19.995  0.00  0.00    +0.000 A 
ATOM      5  C   UNL     1       1.211   4.657  20.570  0.00  0.00    +0.000 A 
ATOM      6  C   UNL     1       0.939   3.382  21.079  0.00  0.00    +0.000 A 
ATOM      7  C   UNL     1       1.901   2.364  21.017  0.00  0.00    +0.000 A 
ATOM      8  C   UNL     1       3.142   2.606  20.433  0.00  0.00    +0.000 A 
ATOM      9  C   UNL     1       3.390   3.872  19.923  0.00  0.00    +0.000 A 
ENDROOT
BRANCH   3  10
ATOM     10  C   UNL     1       2.303   7.323  19.195  0.00  0.00    +0.000 A 
ATOM     11  N   UNL     1       2.274   7.767  17.906  0.00  0.00    +0.000 NA
ATOM     12  C   UNL     1       1.725   8.954  17.616  0.00  0.00    +0.000 A 
ATOM     13  N   UNL     1       1.156   9.809  18.461  0.00  0.00    +0.000 NA
ATOM     14  C   UNL     1       1.156   9.353  19.722  0.00  0.00    +0.000 A 
ATOM     15  S   UNL     1       0.447  10.289  20.961  0.00  0.00    +0.000 S 
ATOM     16  C   UNL     1       0.792   9.106  22.136  0.00  0.00    +0.000 A 
ATOM     17  C   UNL     1       1.441   8.020  21.590  0.00  0.00    +0.000 A 
ATOM     18  C   UNL     1       1.689   8.151  20.175  0.00  0.00    +0.000 A 
ENDBRANCH   3  10
BRANCH   1  19
ATOM     19  C   UNL     1       4.621   3.681  17.774  0.00  0.00    +0.000 C 
BRANCH  19  25
ATOM     20  O   UNL     1       7.835   6.867  16.410  0.00  0.00    +0.000 OA
ATOM     21  C   UNL     1       7.131   5.903  16.126  0.00  0.00    +0.000 C 
ATOM     22  C   UNL     1       7.279   5.097  14.832  0.00  0.00    +0.000 C 
ATOM     23  O   UNL     1       6.091   4.449  14.384  0.00  0.00    +0.000 OA
ATOM     24  C   UNL     1       5.532   3.657  15.435  0.00  0.00    +0.000 C 
ATOM     25  C   UNL     1       5.117   4.559  16.617  0.00  0.00    +0.000 C 
ATOM     26  N   UNL     1       6.212   5.426  17.033  0.00  0.00    +0.000 N 
ATOM     27  H   UNL     1       6.091   6.061  17.813  0.00  0.00    +0.000 HD
ENDBRANCH  19  25
ENDBRANCH   1  19
TORSDOF 3
ENDMDL
MODEL 7
REMARK VINA RESULT:      -8.0      1.294      1.784
REMARK  Name = 
REMARK  3 active torsions:
REMARK  status: ('A' for Active; 'I' for Inactive)
REMARK    1  A    between atoms: C_6  and  C_7
REMARK    2  A    between atoms: C_7  and  C_8
REMARK    3  A    between atoms: N_10  and  C_11
REMARK                            x       y       z     vdW  Elec       q    Type
REMARK                         _______ _______ _______ _____ _____    ______ ____
ROOT
ATOM      1  C   UNL     1       1.780   6.112  18.993  0.00  0.00    +0.000 C 
ATOM      2  C   UNL     1       2.873   6.556  17.990  0.00  0.00    +0.000 C 
ATOM      3  N   UNL     1       3.821   5.450  17.825  0.00  0.00    +0.000 N 
ATOM      4  C   UNL     1       3.174   4.307  18.338  0.00  0.00    +0.000 A 
ATOM      5  C   UNL     1       3.585   2.987  18.282  0.00  0.00    +0.000 A 
ATOM      6  C   UNL     1       2.764   1.993  18.827  0.00  0.00    +0.000 A 
ATOM      7  C   UNL     1       1.536   2.322  19.419  0.00  0.00    +0.000 A 
ATOM      8  C   UNL     1       1.122   3.650  19.484  0.00  0.00    +0.000 A 
ATOM      9  C   UNL     1       1.955   4.623  18.950  0.00  0.00    +0.000 A 
ENDROOT
BRANCH   3  10
ATOM     10  C   UNL     1       5.094   5.617  17.284  0.00  0.00    +0.000 A 
ATOM     11  N   UNL     1       6.007   6.336  17.998  0.00  0.00    +0.000 NA
ATOM     12  C   UNL     1       7.224   6.571  17.490  0.00  0.00    +0.000 A 
ATOM     13  N   UNL     1       7.703   6.163  16.318  0.00  0.00    +0.000 NA
ATOM     14  C   UNL     1       6.815   5.426  15.635  0.00  0.00    +0.000 A 
ATOM     15  S   UNL     1       7.241   4.780  14.115  0.00  0.00    +0.000 S 
ATOM     16  C   UNL     1       5.728   4.018  13.945  0.00  0.00    +0.000 A 
ATOM     17  C   UNL     1       4.913   4.258  15.030  0.00  0.00    +0.000 A 
ATOM     18  C   UNL     1       5.520   5.105  16.028  0.00  0.00    +0.000 A 
ENDBRANCH   3  10
BRANCH   1  19
ATOM     19  C   UNL     1       1.972   6.615  20.433  0.00  0.00    +0.000 C 
BRANCH  19  25
ATOM     20  O   UNL     1       0.785  10.735  18.443  0.00  0.00    +0.000 OA
ATOM     21  C   UNL     1       0.659   9.949  19.377  0.00  0.00    +0.000 C 
ATOM     22  C   UNL     1      -0.422  10.079  20.455  0.00  0.00    +0.000 C 
ATOM     23  O   UNL     1      -0.090   9.504  21.715  0.00  0.00    +0.000 OA
ATOM     24  C   UNL     1       0.324   8.147  21.549  0.00  0.00    +0.000 C 
ATOM     25  C   UNL     1       1.606   8.083  20.691  0.00  0.00    +0.000 C 
ATOM     26  N   UNL     1       1.448   8.824  19.445  0.00  0.00    +0.000 N 
ATOM     27  H   UNL     1       2.204   8.854  18.772  0.00  0.00    +0.000 HD
ENDBRANCH  19  25
ENDBRANCH   1  19
TORSDOF 3
ENDMDL
MODEL 8
REMARK VINA RESULT:      -7.8      3.658      6.688
REMARK  Name = 
REMARK  3 active torsions:
REMARK  status: ('A' for Active; 'I' for Inactive)
REMARK    1  A    between atoms: C_6  and  C_7
REMARK    2  A    between atoms: C_7  and  C_8
REMARK    3  A    between atoms: N_10  and  C_11
REMARK                            x       y       z     vdW  Elec       q    Type
REMARK                         _______ _______ _______ _____ _____    ______ ____
ROOT
ATOM      1  C   UNL     1       4.655   4.113  19.419  0.00  0.00    +0.000 C 
ATOM      2  C   UNL     1       4.463   5.647  19.358  0.00  0.00    +0.000 C 
ATOM      3  N   UNL     1       3.036   5.939  19.527  0.00  0.00    +0.000 N 
ATOM      4  C   UNL     1       2.461   4.762  20.047  0.00  0.00    +0.000 A 
ATOM      5  C   UNL     1       1.173   4.567  20.516  0.00  0.00    +0.000 A 
ATOM      6  C   UNL     1       0.817   3.315  21.031  0.00  0.00    +0.000 A 
ATOM      7  C   UNL     1       1.748   2.267  21.078  0.00  0.00    +0.000 A 
ATOM      8  C   UNL     1       3.042   2.456  20.599  0.00  0.00    +0.000 A 
ATOM      9  C   UNL     1       3.374   3.701  20.082  0.00  0.00    +0.000 A 
ENDROOT
BRANCH   3  10
ATOM     10  C   UNL     1       2.465   7.162  19.179  0.00  0.00    +0.000 A 
ATOM     11  N   UNL     1       2.592   7.588  17.890  0.00  0.00    +0.000 NA
ATOM     12  C   UNL     1       2.109   8.783  17.527  0.00  0.00    +0.000 A 
ATOM     13  N   UNL     1       1.471   9.664  18.292  0.00  0.00    +0.000 NA
ATOM     14  C   UNL     1       1.317   9.226  19.550  0.00  0.00    +0.000 A 
ATOM     15  S   UNL     1       0.497  10.195  20.691  0.00  0.00    +0.000 S 
ATOM     16  C   UNL     1       0.679   9.021  21.911  0.00  0.00    +0.000 A 
ATOM     17  C   UNL     1       1.357   7.913  21.453  0.00  0.00    +0.000 A 
ATOM     18  C   UNL     1       1.766   8.018  20.074  0.00  0.00    +0.000 A 
ENDBRANCH   3  10
BRANCH   1  19
ATOM     19  C   UNL     1       4.780   3.415  18.055  0.00  0.00    +0.000 C 
BRANCH  19  25
ATOM     20  O   UNL     1       4.972   7.152  15.166  0.00  0.00    +0.000 OA
ATOM     21  C   UNL     1       5.561   6.365  15.900  0.00  0.00    +0.000 C 
ATOM     22  C   UNL     1       7.013   6.552  16.352  0.00  0.00    +0.000 C 
ATOM     23  O   UNL     1       7.708   5.349  16.666  0.00  0.00    +0.000 OA
ATOM     24  C   UNL     1       6.961   4.575  17.607  0.00  0.00    +0.000 C 
ATOM     25  C   UNL     1       5.610   4.149  16.993  0.00  0.00    +0.000 C 
ATOM     26  N   UNL     1       4.892   5.295  16.447  0.00  0.00    +0.000 N 
ATOM     27  H   UNL     1       3.979   5.169  16.027  0.00  0.00    +0.000 HD
ENDBRANCH  19  25
ENDBRANCH   1  19
TORSDOF 3
ENDMDL
MODEL 9
REMARK VINA RESULT:      -7.7      1.346      1.985
REMARK  Name = 
REMARK  3 active torsions:
REMARK  status: ('A' for Active; 'I' for Inactive)
REMARK    1  A    between atoms: C_6  and  C_7
REMARK    2  A    between atoms: C_7  and  C_8
REMARK    3  A    between atoms: N_10  and  C_11
REMARK                            x       y       z     vdW  Elec       q    Type
REMARK                         _______ _______ _______ _____ _____    ______ ____
ROOT
ATOM      1  C   UNL     1       1.604   5.645  19.800  0.00  0.00    +0.000 C 
ATOM      2  C   UNL     1       2.737   5.813  18.759  0.00  0.00    +0.000 C 
ATOM      3  N   UNL     1       3.810   4.871  19.091  0.00  0.00    +0.000 N 
ATOM      4  C   UNL     1       3.242   3.938  19.982  0.00  0.00    +0.000 A 
ATOM      5  C   UNL     1       3.797   2.769  20.474  0.00  0.00    +0.000 A 
ATOM      6  C   UNL     1       3.038   1.960  21.327  0.00  0.00    +0.000 A 
ATOM      7  C   UNL     1       1.729   2.319  21.680  0.00  0.00    +0.000 A 
ATOM      8  C   UNL     1       1.170   3.499  21.195  0.00  0.00    +0.000 A 
ATOM      9  C   UNL     1       1.942   4.294  20.359  0.00  0.00    +0.000 A 
ENDROOT
BRANCH   3  10
ATOM     10  C   UNL     1       5.106   4.990  18.591  0.00  0.00    +0.000 A 
ATOM     11  N   UNL     1       6.104   5.312  19.462  0.00  0.00    +0.000 NA
ATOM     12  C   UNL     1       7.354   5.493  19.014  0.00  0.00    +0.000 A 
ATOM     13  N   UNL     1       7.787   5.383  17.762  0.00  0.00    +0.000 NA
ATOM     14  C   UNL     1       6.809   5.032  16.914  0.00  0.00    +0.000 A 
ATOM     15  S   UNL     1       7.161   4.810  15.260  0.00  0.00    +0.000 S 
ATOM     16  C   UNL     1       5.551   4.380  14.911  0.00  0.00    +0.000 A 
ATOM     17  C   UNL     1       4.761   4.410  16.039  0.00  0.00    +0.000 A 
ATOM     18  C   UNL     1       5.472   4.815  17.228  0.00  0.00    +0.000 A 
ENDBRANCH   3  10
BRANCH   1  19
ATOM     19  C   UNL     1       1.598   6.687  20.931  0.00  0.00    +0.000 C 
BRANCH  19  25
ATOM     20  O   UNL     1       1.916   9.676  17.284  0.00  0.00    +0.000 OA
ATOM     21  C   UNL     1       1.568   9.472  18.443  0.00  0.00    +0.000 C 
ATOM     22  C   UNL     1       0.691  10.437  19.247  0.00  0.00    +0.000 C 
ATOM     23  O   UNL     1       0.867  10.379  20.660  0.00  0.00    +0.000 OA
ATOM     24  C   UNL     1       0.728   9.034  21.122  0.00  0.00    +0.000 C 
ATOM     25  C   UNL     1       1.830   8.144  20.510  0.00  0.00    +0.000 C 
ATOM     26  N   UNL     1       1.878   8.282  19.059  0.00  0.00    +0.000 N 
ATOM     27  H   UNL     1       2.542   7.741  18.518  0.00  0.00    +0.000 HD
ENDBRANCH  19  25
ENDBRANCH   1  19
TORSDOF 3
ENDMDL
