MODEL 1
REMARK VINA RESULT:      -8.8      0.000      0.000
REMARK  Name = 
REMARK  6 active torsions:
REMARK  status: ('A' for Active; 'I' for Inactive)
REMARK    1  A    between atoms: C_7  and  S_8
REMARK    2  A    between atoms: S_8  and  N_11
REMARK    3  A    between atoms: N_11  and  C_12
REMARK    4  A    between atoms: C_12  and  C_13
REMARK    5  A    between atoms: C_13  and  C_14
REMARK    6  A    between atoms: N_16  and  C_17
REMARK                            x       y       z     vdW  Elec       q    Type
REMARK                         _______ _______ _______ _____ _____    ______ ____
ROOT
ATOM      1  S   UNL     1       6.849   5.234  15.892  0.00  0.00    +0.000 S 
ATOM      2  O   UNL     1       7.771   4.200  16.309  0.00  0.00    +0.000 OA
ATOM      3  O   UNL     1       6.576   5.507  14.498  0.00  0.00    +0.000 OA
ENDROOT
BRANCH   1  10
ATOM      4  O   UNL     1       0.078   2.818  19.443  0.00  0.00    +0.000 OA
ATOM      5  C   UNL     1       1.202   2.984  18.980  0.00  0.00    +0.000 C 
ATOM      6  C   UNL     1       2.288   1.937  19.082  0.00  0.00    +0.000 C 
ATOM      7  C   UNL     1       3.216   1.970  17.879  0.00  0.00    +0.000 C 
ATOM      8  C   UNL     1       3.688   3.374  17.611  0.00  0.00    +0.000 A 
ATOM      9  C   UNL     1       4.931   3.621  17.021  0.00  0.00    +0.000 A 
ATOM     10  C   UNL     1       5.287   4.934  16.691  0.00  0.00    +0.000 A 
ATOM     11  C   UNL     1       4.415   5.998  16.938  0.00  0.00    +0.000 A 
ATOM     12  C   UNL     1       3.170   5.748  17.519  0.00  0.00    +0.000 A 
ATOM     13  C   UNL     1       2.818   4.443  17.863  0.00  0.00    +0.000 A 
ATOM     14  N   UNL     1       1.573   4.194  18.448  0.00  0.00    +0.000 N 
ATOM     15  H   UNL     1       0.881   4.930  18.515  0.00  0.00    +0.000 HD
ENDBRANCH   1  10
BRANCH   1  16
ATOM     16  N   UNL     1       7.358   6.679  16.598  0.00  0.00    +0.000 NA
ATOM     17  H   UNL     1       6.978   7.480  16.075  0.00  0.00    +0.000 HD
BRANCH  16  18
ATOM     18  C   UNL     1       7.241   6.813  18.063  0.00  0.00    +0.000 C 
BRANCH  18  19
ATOM     19  C   UNL     1       8.437   7.578  18.629  0.00  0.00    +0.000 C 
BRANCH  19  20
ATOM     20  C   UNL     1       8.362   9.054  18.291  0.00  0.00    +0.000 C 
ATOM     21  O   UNL     1       7.542   9.510  17.495  0.00  0.00    +0.000 OA
ATOM     22  N   UNL     1       9.292   9.837  18.942  0.00  0.00    +0.000 N 
ATOM     23  H   UNL     1      10.045   9.388  19.452  0.00  0.00    +0.000 HD
BRANCH  22  24
ATOM     24  C   UNL     1       9.346  11.279  18.720  0.00  0.00    +0.000 C 
ATOM     25  C   UNL     1       9.339  12.053  20.042  0.00  0.00    +0.000 C 
ATOM     26  C   UNL     1      10.687  12.040  20.756  0.00  0.00    +0.000 C 
ATOM     27  C   UNL     1      11.811  12.523  19.846  0.00  0.00    +0.000 C 
ATOM     28  C   UNL     1      11.869  11.732  18.544  0.00  0.00    +0.000 C 
ATOM     29  C   UNL     1      10.523  11.686  17.822  0.00  0.00    +0.000 C 
ENDBRANCH  22  24
ENDBRANCH  19  20
ENDBRANCH  18  19
ENDBRANCH  16  18
ENDBRANCH   1  16
TORSDOF 6
ENDMDL
MODEL 2
REMARK VINA RESULT:      -8.7      1.486      1.914
REMARK  Name = 
REMARK  6 active torsions:
REMARK  status: ('A' for Active; 'I' for Inactive)
REMARK    1  A    between atoms: C_7  and  S_8
REMARK    2  A    between atoms: S_8  and  N_11
REMARK    3  A    between atoms: N_11  and  C_12
REMARK    4  A    between atoms: C_12  and  C_13
REMARK    5  A    between atoms: C_13  and  C_14
REMARK    6  A    between atoms: N_16  and  C_17
REMARK                            x       y       z     vdW  Elec       q    Type
REMARK                         _______ _______ _______ _____ _____    ______ ____
ROOT
ATOM      1  S   UNL     1       6.982   5.905  16.858  0.00  0.00    +0.000 S 
ATOM      2  O   UNL     1       7.929   5.359  17.805  0.00  0.00    +0.000 OA
ATOM      3  O   UNL     1       7.115   5.706  15.432  0.00  0.00    +0.000 OA
ENDROOT
BRANCH   1  10
ATOM      4  O   UNL     1       0.055   2.388  18.846  0.00  0.00    +0.000 OA
ATOM      5  C   UNL     1       1.213   2.724  18.616  0.00  0.00    +0.000 C 
ATOM      6  C   UNL     1       2.386   1.789  18.804  0.00  0.00    +0.000 C 
ATOM      7  C   UNL     1       3.493   2.066  17.800  0.00  0.00    +0.000 C 
ATOM      8  C   UNL     1       3.827   3.533  17.770  0.00  0.00    +0.000 A 
ATOM      9  C   UNL     1       5.113   3.978  17.445  0.00  0.00    +0.000 A 
ATOM     10  C   UNL     1       5.356   5.351  17.324  0.00  0.00    +0.000 A 
ATOM     11  C   UNL     1       4.330   6.281  17.517  0.00  0.00    +0.000 A 
ATOM     12  C   UNL     1       3.046   5.835  17.833  0.00  0.00    +0.000 A 
ATOM     13  C   UNL     1       2.803   4.468  17.970  0.00  0.00    +0.000 A 
ATOM     14  N   UNL     1       1.517   4.023  18.289  0.00  0.00    +0.000 N 
ATOM     15  H   UNL     1       0.739   4.670  18.305  0.00  0.00    +0.000 HD
ENDBRANCH   1  10
BRANCH   1  16
ATOM     16  N   UNL     1       6.899   7.569  17.127  0.00  0.00    +0.000 NA
ATOM     17  H   UNL     1       5.963   7.826  17.467  0.00  0.00    +0.000 HD
BRANCH  16  18
ATOM     18  C   UNL     1       8.001   8.205  17.877  0.00  0.00    +0.000 C 
BRANCH  18  19
ATOM     19  C   UNL     1       7.986   9.719  17.670  0.00  0.00    +0.000 C 
BRANCH  19  20
ATOM     20  C   UNL     1       9.036  10.405  18.521  0.00  0.00    +0.000 C 
ATOM     21  O   UNL     1       9.491   9.899  19.546  0.00  0.00    +0.000 OA
ATOM     22  N   UNL     1       9.430  11.643  18.055  0.00  0.00    +0.000 N 
ATOM     23  H   UNL     1       8.904  12.078  17.306  0.00  0.00    +0.000 HD
BRANCH  22  24
ATOM     24  C   UNL     1      10.434  12.427  18.768  0.00  0.00    +0.000 C 
ATOM     25  C   UNL     1      11.797  12.364  18.069  0.00  0.00    +0.000 C 
ATOM     26  C   UNL     1      11.881  13.248  16.829  0.00  0.00    +0.000 C 
ATOM     27  C   UNL     1      11.491  14.689  17.137  0.00  0.00    +0.000 C 
ATOM     28  C   UNL     1      10.115  14.781  17.787  0.00  0.00    +0.000 C 
ATOM     29  C   UNL     1       9.979  13.873  19.009  0.00  0.00    +0.000 C 
ENDBRANCH  22  24
ENDBRANCH  19  20
ENDBRANCH  18  19
ENDBRANCH  16  18
ENDBRANCH   1  16
TORSDOF 6
ENDMDL
MODEL 3
REMARK VINA RESULT:      -8.6      1.315      1.367
REMARK  Name = 
REMARK  6 active torsions:
REMARK  status: ('A' for Active; 'I' for Inactive)
REMARK    1  A    between atoms: C_7  and  S_8
REMARK    2  A    between atoms: S_8  and  N_11
REMARK    3  A    between atoms: N_11  and  C_12
REMARK    4  A    between atoms: C_12  and  C_13
REMARK    5  A    between atoms: C_13  and  C_14
REMARK    6  A    between atoms: N_16  and  C_17
REMARK                            x       y       z     vdW  Elec       q    Type
REMARK                         _______ _______ _______ _____ _____    ______ ____
ROOT
ATOM      1  S   UNL     1       5.713   5.844  15.876  0.00  0.00    +0.000 S 
ATOM      2  O   UNL     1       6.138   4.620  15.232  0.00  0.00    +0.000 OA
ATOM      3  O   UNL     1       5.031   6.896  15.157  0.00  0.00    +0.000 OA
ENDROOT
BRANCH   1  10
ATOM      4  O   UNL     1       1.585   2.878  22.078  0.00  0.00    +0.000 OA
ATOM      5  C   UNL     1       2.371   3.160  21.179  0.00  0.00    +0.000 C 
ATOM      6  C   UNL     1       3.606   2.337  20.887  0.00  0.00    +0.000 C 
ATOM      7  C   UNL     1       3.952   2.347  19.408  0.00  0.00    +0.000 C 
ATOM      8  C   UNL     1       3.967   3.754  18.875  0.00  0.00    +0.000 A 
ATOM      9  C   UNL     1       4.791   4.117  17.806  0.00  0.00    +0.000 A 
ATOM     10  C   UNL     1       4.698   5.407  17.272  0.00  0.00    +0.000 A 
ATOM     11  C   UNL     1       3.788   6.334  17.789  0.00  0.00    +0.000 A 
ATOM     12  C   UNL     1       2.960   5.967  18.852  0.00  0.00    +0.000 A 
ATOM     13  C   UNL     1       3.060   4.687  19.397  0.00  0.00    +0.000 A 
ATOM     14  N   UNL     1       2.233   4.323  20.462  0.00  0.00    +0.000 N 
ATOM     15  H   UNL     1       1.484   4.934  20.762  0.00  0.00    +0.000 HD
ENDBRANCH   1  10
BRANCH   1  16
ATOM     16  N   UNL     1       7.072   6.530  16.604  0.00  0.00    +0.000 NA
ATOM     17  H   UNL     1       7.318   7.410  16.132  0.00  0.00    +0.000 HD
BRANCH  16  18
ATOM     18  C   UNL     1       7.100   6.615  18.078  0.00  0.00    +0.000 C 
BRANCH  18  19
ATOM     19  C   UNL     1       8.351   7.355  18.548  0.00  0.00    +0.000 C 
BRANCH  19  20
ATOM     20  C   UNL     1       8.292   8.828  18.191  0.00  0.00    +0.000 C 
ATOM     21  O   UNL     1       7.539   9.269  17.324  0.00  0.00    +0.000 OA
ATOM     22  N   UNL     1       9.156   9.625  18.913  0.00  0.00    +0.000 N 
ATOM     23  H   UNL     1       9.866   9.188  19.490  0.00  0.00    +0.000 HD
BRANCH  22  24
ATOM     24  C   UNL     1       9.215  11.066  18.683  0.00  0.00    +0.000 C 
ATOM     25  C   UNL     1       9.185  11.848  20.000  0.00  0.00    +0.000 C 
ATOM     26  C   UNL     1      10.520  11.838  20.738  0.00  0.00    +0.000 C 
ATOM     27  C   UNL     1      11.661  12.313  19.846  0.00  0.00    +0.000 C 
ATOM     28  C   UNL     1      11.742  11.514  18.550  0.00  0.00    +0.000 C 
ATOM     29  C   UNL     1      10.409  11.466  17.804  0.00  0.00    +0.000 C 
ENDBRANCH  22  24
ENDBRANCH  19  20
ENDBRANCH  18  19
ENDBRANCH  16  18
ENDBRANCH   1  16
TORSDOF 6
ENDMDL
MODEL 4
REMARK VINA RESULT:      -8.5      4.333      7.303
REMARK  Name = 
REMARK  6 active torsions:
REMARK  status: ('A' for Active; 'I' for Inactive)
REMARK    1  A    between atoms: C_7  and  S_8
REMARK    2  A    between atoms: S_8  and  N_11
REMARK    3  A    between atoms: N_11  and  C_12
REMARK    4  A    between atoms: C_12  and  C_13
REMARK    5  A    between atoms: C_13  and  C_14
REMARK    6  A    between atoms: N_16  and  C_17
REMARK                            x       y       z     vdW  Elec       q    Type
REMARK                         _______ _______ _______ _____ _____    ______ ____
ROOT
ATOM      1  S   UNL     1       2.648   5.849  19.718  0.00  0.00    +0.000 S 
ATOM      2  O   UNL     1       4.094   5.828  19.728  0.00  0.00    +0.000 OA
ATOM      3  O   UNL     1       1.863   5.390  20.842  0.00  0.00    +0.000 OA
ENDROOT
BRANCH   1  10
ATOM      4  O   UNL     1      -0.169  13.325  19.036  0.00  0.00    +0.000 OA
ATOM      5  C   UNL     1       0.254  12.223  19.373  0.00  0.00    +0.000 C 
ATOM      6  C   UNL     1       0.362  11.799  20.820  0.00  0.00    +0.000 C 
ATOM      7  C   UNL     1       0.134  10.306  20.987  0.00  0.00    +0.000 C 
ATOM      8  C   UNL     1       0.979   9.528  20.016  0.00  0.00    +0.000 A 
ATOM      9  C   UNL     1       1.431   8.239  20.317  0.00  0.00    +0.000 A 
ATOM     10  C   UNL     1       2.124   7.508  19.344  0.00  0.00    +0.000 A 
ATOM     11  C   UNL     1       2.364   8.047  18.077  0.00  0.00    +0.000 A 
ATOM     12  C   UNL     1       1.905   9.331  17.776  0.00  0.00    +0.000 A 
ATOM     13  C   UNL     1       1.227  10.068  18.747  0.00  0.00    +0.000 A 
ATOM     14  N   UNL     1       0.772  11.354  18.445  0.00  0.00    +0.000 N 
ATOM     15  H   UNL     1       0.822  11.707  17.497  0.00  0.00    +0.000 HD
ENDBRANCH   1  10
BRANCH   1  16
ATOM     16  N   UNL     1       2.139   4.983  18.362  0.00  0.00    +0.000 NA
ATOM     17  H   UNL     1       2.732   5.212  17.554  0.00  0.00    +0.000 HD
BRANCH  16  18
ATOM     18  C   UNL     1       1.876   3.539  18.521  0.00  0.00    +0.000 C 
BRANCH  18  19
ATOM     19  C   UNL     1       3.180   2.745  18.439  0.00  0.00    +0.000 C 
BRANCH  19  20
ATOM     20  C   UNL     1       4.088   3.281  17.349  0.00  0.00    +0.000 C 
ATOM     21  O   UNL     1       3.800   3.211  16.155  0.00  0.00    +0.000 OA
ATOM     22  N   UNL     1       5.261   3.842  17.808  0.00  0.00    +0.000 N 
ATOM     23  H   UNL     1       5.519   3.722  18.781  0.00  0.00    +0.000 HD
BRANCH  22  24
ATOM     24  C   UNL     1       6.238   4.401  16.878  0.00  0.00    +0.000 C 
ATOM     25  C   UNL     1       5.714   5.677  16.211  0.00  0.00    +0.000 C 
ATOM     26  C   UNL     1       5.772   6.901  17.121  0.00  0.00    +0.000 C 
ATOM     27  C   UNL     1       7.170   7.116  17.688  0.00  0.00    +0.000 C 
ATOM     28  C   UNL     1       7.692   5.874  18.402  0.00  0.00    +0.000 C 
ATOM     29  C   UNL     1       7.609   4.618  17.535  0.00  0.00    +0.000 C 
ENDBRANCH  22  24
ENDBRANCH  19  20
ENDBRANCH  18  19
ENDBRANCH  16  18
ENDBRANCH   1  16
TORSDOF 6
ENDMDL
MODEL 5
REMARK VINA RESULT:      -8.3      1.763      2.344
REMARK  Name = 
REMARK  6 active torsions:
REMARK  status: ('A' for Active; 'I' for Inactive)
REMARK    1  A    between atoms: C_7  and  S_8
REMARK    2  A    between atoms: S_8  and  N_11
REMARK    3  A    between atoms: N_11  and  C_12
REMARK    4  A    between atoms: C_12  and  C_13
REMARK    5  A    between atoms: C_13  and  C_14
REMARK    6  A    between atoms: N_16  and  C_17
REMARK                            x       y       z     vdW  Elec       q    Type
REMARK                         _______ _______ _______ _____ _____    ______ ____
ROOT
ATOM      1  S   UNL     1       7.254   5.339  18.200  0.00  0.00    +0.000 S 
ATOM      2  O   UNL     1       7.678   5.343  19.583  0.00  0.00    +0.000 OA
ATOM      3  O   UNL     1       8.050   4.741  17.152  0.00  0.00    +0.000 OA
ENDROOT
BRANCH   1  10
ATOM      4  O   UNL     1      -0.066   2.152  18.943  0.00  0.00    +0.000 OA
ATOM      5  C   UNL     1       1.004   2.746  19.034  0.00  0.00    +0.000 C 
ATOM      6  C   UNL     1       1.368   3.590  20.235  0.00  0.00    +0.000 C 
ATOM      7  C   UNL     1       2.862   3.560  20.511  0.00  0.00    +0.000 C 
ATOM      8  C   UNL     1       3.640   3.844  19.255  0.00  0.00    +0.000 A 
ATOM      9  C   UNL     1       4.897   4.457  19.302  0.00  0.00    +0.000 A 
ATOM     10  C   UNL     1       5.634   4.607  18.122  0.00  0.00    +0.000 A 
ATOM     11  C   UNL     1       5.133   4.149  16.900  0.00  0.00    +0.000 A 
ATOM     12  C   UNL     1       3.882   3.531  16.856  0.00  0.00    +0.000 A 
ATOM     13  C   UNL     1       3.138   3.392  18.028  0.00  0.00    +0.000 A 
ATOM     14  N   UNL     1       1.884   2.776  17.982  0.00  0.00    +0.000 N 
ATOM     15  H   UNL     1       1.566   2.324  17.133  0.00  0.00    +0.000 HD
ENDBRANCH   1  10
BRANCH   1  16
ATOM     16  N   UNL     1       6.961   6.941  17.757  0.00  0.00    +0.000 NA
ATOM     17  H   UNL     1       6.261   7.358  18.384  0.00  0.00    +0.000 HD
BRANCH  16  18
ATOM     18  C   UNL     1       8.125   7.811  17.497  0.00  0.00    +0.000 C 
BRANCH  18  19
ATOM     19  C   UNL     1       7.760   9.277  17.728  0.00  0.00    +0.000 C 
BRANCH  19  20
ATOM     20  C   UNL     1       8.812   9.987  18.558  0.00  0.00    +0.000 C 
ATOM     21  O   UNL     1       9.312   9.484  19.564  0.00  0.00    +0.000 OA
ATOM     22  N   UNL     1       9.154  11.241  18.096  0.00  0.00    +0.000 N 
ATOM     23  H   UNL     1       8.594  11.668  17.367  0.00  0.00    +0.000 HD
BRANCH  22  24
ATOM     24  C   UNL     1      10.154  12.048  18.789  0.00  0.00    +0.000 C 
ATOM     25  C   UNL     1      11.466  12.116  18.002  0.00  0.00    +0.000 C 
ATOM     26  C   UNL     1      11.410  13.073  16.815  0.00  0.00    +0.000 C 
ATOM     27  C   UNL     1      10.953  14.465  17.236  0.00  0.00    +0.000 C 
ATOM     28  C   UNL     1       9.621  14.427  17.978  0.00  0.00    +0.000 C 
ATOM     29  C   UNL     1       9.627  13.445  19.148  0.00  0.00    +0.000 C 
ENDBRANCH  22  24
ENDBRANCH  19  20
ENDBRANCH  18  19
ENDBRANCH  16  18
ENDBRANCH   1  16
TORSDOF 6
ENDMDL
MODEL 6
REMARK VINA RESULT:      -8.2      1.452      1.853
REMARK  Name = 
REMARK  6 active torsions:
REMARK  status: ('A' for Active; 'I' for Inactive)
REMARK    1  A    between atoms: C_7  and  S_8
REMARK    2  A    between atoms: S_8  and  N_11
REMARK    3  A    between atoms: N_11  and  C_12
REMARK    4  A    between atoms: C_12  and  C_13
REMARK    5  A    between atoms: C_13  and  C_14
REMARK    6  A    between atoms: N_16  and  C_17
REMARK                            x       y       z     vdW  Elec       q    Type
REMARK                         _______ _______ _______ _____ _____    ______ ____
ROOT
ATOM      1  S   UNL     1       6.878   5.084  16.334  0.00  0.00    +0.000 S 
ATOM      2  O   UNL     1       8.001   4.512  17.044  0.00  0.00    +0.000 OA
ATOM      3  O   UNL     1       6.552   4.707  14.976  0.00  0.00    +0.000 OA
ENDROOT
BRANCH   1  10
ATOM      4  O   UNL     1       0.835   3.112  21.221  0.00  0.00    +0.000 OA
ATOM      5  C   UNL     1       1.894   3.303  20.632  0.00  0.00    +0.000 C 
ATOM      6  C   UNL     1       3.210   2.738  21.118  0.00  0.00    +0.000 C 
ATOM      7  C   UNL     1       4.142   2.412  19.963  0.00  0.00    +0.000 C 
ATOM      8  C   UNL     1       4.244   3.577  19.017  0.00  0.00    +0.000 A 
ATOM      9  C   UNL     1       5.402   3.805  18.267  0.00  0.00    +0.000 A 
ATOM     10  C   UNL     1       5.418   4.836  17.321  0.00  0.00    +0.000 A 
ATOM     11  C   UNL     1       4.291   5.636  17.112  0.00  0.00    +0.000 A 
ATOM     12  C   UNL     1       3.133   5.403  17.856  0.00  0.00    +0.000 A 
ATOM     13  C   UNL     1       3.118   4.385  18.811  0.00  0.00    +0.000 A 
ATOM     14  N   UNL     1       1.959   4.154  19.557  0.00  0.00    +0.000 N 
ATOM     15  H   UNL     1       1.098   4.636  19.329  0.00  0.00    +0.000 HD
ENDBRANCH   1  10
BRANCH   1  16
ATOM     16  N   UNL     1       7.064   6.761  16.359  0.00  0.00    +0.000 NA
ATOM     17  H   UNL     1       6.213   7.216  16.004  0.00  0.00    +0.000 HD
BRANCH  16  18
ATOM     18  C   UNL     1       7.605   7.380  17.585  0.00  0.00    +0.000 C 
BRANCH  18  19
ATOM     19  C   UNL     1       7.567   8.904  17.479  0.00  0.00    +0.000 C 
BRANCH  19  20
ATOM     20  C   UNL     1       8.607   9.549  18.374  0.00  0.00    +0.000 C 
ATOM     21  O   UNL     1       9.175   8.935  19.276  0.00  0.00    +0.000 OA
ATOM     22  N   UNL     1       8.854  10.877  18.097  0.00  0.00    +0.000 N 
ATOM     23  H   UNL     1       8.241  11.371  17.458  0.00  0.00    +0.000 HD
BRANCH  22  24
ATOM     24  C   UNL     1       9.830  11.635  18.874  0.00  0.00    +0.000 C 
ATOM     25  C   UNL     1      11.176  11.731  18.147  0.00  0.00    +0.000 C 
ATOM     26  C   UNL     1      11.178  12.751  17.012  0.00  0.00    +0.000 C 
ATOM     27  C   UNL     1      10.715  14.123  17.488  0.00  0.00    +0.000 C 
ATOM     28  C   UNL     1       9.353  14.060  18.170  0.00  0.00    +0.000 C 
ATOM     29  C   UNL     1       9.300  13.017  19.285  0.00  0.00    +0.000 C 
ENDBRANCH  22  24
ENDBRANCH  19  20
ENDBRANCH  18  19
ENDBRANCH  16  18
ENDBRANCH   1  16
TORSDOF 6
ENDMDL
MODEL 7
REMARK VINA RESULT:      -8.1      1.608      2.052
REMARK  Name = 
REMARK  6 active torsions:
REMARK  status: ('A' for Active; 'I' for Inactive)
REMARK    1  A    between atoms: C_7  and  S_8
REMARK    2  A    between atoms: S_8  and  N_11
REMARK    3  A    between atoms: N_11  and  C_12
REMARK    4  A    between atoms: C_12  and  C_13
REMARK    5  A    between atoms: C_13  and  C_14
REMARK    6  A    between atoms: N_16  and  C_17
REMARK                            x       y       z     vdW  Elec       q    Type
REMARK                         _______ _______ _______ _____ _____    ______ ____
ROOT
ATOM      1  S   UNL     1       5.703   5.796  15.704  0.00  0.00    +0.000 S 
ATOM      2  O   UNL     1       5.876   4.582  14.936  0.00  0.00    +0.000 OA
ATOM      3  O   UNL     1       5.126   6.993  15.134  0.00  0.00    +0.000 OA
ENDROOT
BRANCH   1  10
ATOM      4  O   UNL     1       1.851   2.967  22.143  0.00  0.00    +0.000 OA
ATOM      5  C   UNL     1       2.587   3.217  21.193  0.00  0.00    +0.000 C 
ATOM      6  C   UNL     1       3.739   2.323  20.796  0.00  0.00    +0.000 C 
ATOM      7  C   UNL     1       3.977   2.343  19.295  0.00  0.00    +0.000 C 
ATOM      8  C   UNL     1       4.046   3.758  18.788  0.00  0.00    +0.000 A 
ATOM      9  C   UNL     1       4.813   4.090  17.666  0.00  0.00    +0.000 A 
ATOM     10  C   UNL     1       4.766   5.396  17.163  0.00  0.00    +0.000 A 
ATOM     11  C   UNL     1       3.959   6.367  17.762  0.00  0.00    +0.000 A 
ATOM     12  C   UNL     1       3.189   6.032  18.877  0.00  0.00    +0.000 A 
ATOM     13  C   UNL     1       3.244   4.736  19.391  0.00  0.00    +0.000 A 
ATOM     14  N   UNL     1       2.474   4.402  20.508  0.00  0.00    +0.000 N 
ATOM     15  H   UNL     1       1.790   5.053  20.874  0.00  0.00    +0.000 HD
ENDBRANCH   1  10
BRANCH   1  16
ATOM     16  N   UNL     1       7.212   6.214  16.333  0.00  0.00    +0.000 NA
ATOM     17  H   UNL     1       7.798   6.631  15.598  0.00  0.00    +0.000 HD
BRANCH  16  18
ATOM     18  C   UNL     1       7.249   6.949  17.613  0.00  0.00    +0.000 C 
BRANCH  18  19
ATOM     19  C   UNL     1       7.430   8.446  17.367  0.00  0.00    +0.000 C 
BRANCH  19  20
ATOM     20  C   UNL     1       8.477   9.037  18.292  0.00  0.00    +0.000 C 
ATOM     21  O   UNL     1       8.914   8.432  19.269  0.00  0.00    +0.000 OA
ATOM     22  N   UNL     1       8.889  10.309  17.949  0.00  0.00    +0.000 N 
ATOM     23  H   UNL     1       8.377  10.819  17.239  0.00  0.00    +0.000 HD
BRANCH  22  24
ATOM     24  C   UNL     1       9.892  11.011  18.744  0.00  0.00    +0.000 C 
ATOM     25  C   UNL     1      10.959  11.661  17.857  0.00  0.00    +0.000 C 
ATOM     26  C   UNL     1      10.485  12.947  17.186  0.00  0.00    +0.000 C 
ATOM     27  C   UNL     1       9.938  13.943  18.202  0.00  0.00    +0.000 C 
ATOM     28  C   UNL     1       8.838  13.332  19.064  0.00  0.00    +0.000 C 
ATOM     29  C   UNL     1       9.263  12.018  19.717  0.00  0.00    +0.000 C 
ENDBRANCH  22  24
ENDBRANCH  19  20
ENDBRANCH  18  19
ENDBRANCH  16  18
ENDBRANCH   1  16
TORSDOF 6
ENDMDL
MODEL 8
REMARK VINA RESULT:      -8.1      1.082      1.419
REMARK  Name = 
REMARK  6 active torsions:
REMARK  status: ('A' for Active; 'I' for Inactive)
REMARK    1  A    between atoms: C_7  and  S_8
REMARK    2  A    between atoms: S_8  and  N_11
REMARK    3  A    between atoms: N_11  and  C_12
REMARK    4  A    between atoms: C_12  and  C_13
REMARK    5  A    between atoms: C_13  and  C_14
REMARK    6  A    between atoms: N_16  and  C_17
REMARK                            x       y       z     vdW  Elec       q    Type
REMARK                         _______ _______ _______ _____ _____    ______ ____
ROOT
ATOM      1  S   UNL     1       6.455   5.648  15.899  0.00  0.00    +0.000 S 
ATOM      2  O   UNL     1       7.587   4.777  15.666  0.00  0.00    +0.000 OA
ATOM      3  O   UNL     1       5.576   6.072  14.833  0.00  0.00    +0.000 OA
ENDROOT
BRANCH   1  10
ATOM      4  O   UNL     1       1.033   2.623  20.973  0.00  0.00    +0.000 OA
ATOM      5  C   UNL     1       1.692   3.059  20.035  0.00  0.00    +0.000 C 
ATOM      6  C   UNL     1       1.117   3.240  18.648  0.00  0.00    +0.000 C 
ATOM      7  C   UNL     1       1.746   4.421  17.928  0.00  0.00    +0.000 C 
ATOM      8  C   UNL     1       3.247   4.354  18.007  0.00  0.00    +0.000 A 
ATOM      9  C   UNL     1       4.052   4.896  17.000  0.00  0.00    +0.000 A 
ATOM     10  C   UNL     1       5.442   4.907  17.161  0.00  0.00    +0.000 A 
ATOM     11  C   UNL     1       6.035   4.390  18.317  0.00  0.00    +0.000 A 
ATOM     12  C   UNL     1       5.229   3.856  19.325  0.00  0.00    +0.000 A 
ATOM     13  C   UNL     1       3.844   3.829  19.161  0.00  0.00    +0.000 A 
ATOM     14  N   UNL     1       3.039   3.292  20.169  0.00  0.00    +0.000 N 
ATOM     15  H   UNL     1       3.439   3.033  21.062  0.00  0.00    +0.000 HD
ENDBRANCH   1  10
BRANCH   1  16
ATOM     16  N   UNL     1       7.036   7.040  16.656  0.00  0.00    +0.000 NA
ATOM     17  H   UNL     1       6.564   7.871  16.276  0.00  0.00    +0.000 HD
BRANCH  16  18
ATOM     18  C   UNL     1       7.141   7.035  18.129  0.00  0.00    +0.000 C 
BRANCH  18  19
ATOM     19  C   UNL     1       8.437   7.710  18.576  0.00  0.00    +0.000 C 
BRANCH  19  20
ATOM     20  C   UNL     1       8.398   9.205  18.325  0.00  0.00    +0.000 C 
ATOM     21  O   UNL     1       7.686   9.713  17.459  0.00  0.00    +0.000 OA
ATOM     22  N   UNL     1       9.230   9.943  19.142  0.00  0.00    +0.000 N 
ATOM     23  H   UNL     1       9.911   9.461  19.717  0.00  0.00    +0.000 HD
BRANCH  22  24
ATOM     24  C   UNL     1       9.303  11.396  19.020  0.00  0.00    +0.000 C 
ATOM     25  C   UNL     1       9.845  12.041  20.300  0.00  0.00    +0.000 C 
ATOM     26  C   UNL     1      11.358  11.905  20.450  0.00  0.00    +0.000 C 
ATOM     27  C   UNL     1      12.095  12.424  19.221  0.00  0.00    +0.000 C 
ATOM     28  C   UNL     1      11.606  11.758  17.940  0.00  0.00    +0.000 C 
ATOM     29  C   UNL     1      10.089  11.837  17.777  0.00  0.00    +0.000 C 
ENDBRANCH  22  24
ENDBRANCH  19  20
ENDBRANCH  18  19
ENDBRANCH  16  18
ENDBRANCH   1  16
TORSDOF 6
ENDMDL
MODEL 9
REMARK VINA RESULT:      -8.1      4.692      8.370
REMARK  Name = 
REMARK  6 active torsions:
REMARK  status: ('A' for Active; 'I' for Inactive)
REMARK    1  A    between atoms: C_7  and  S_8
REMARK    2  A    between atoms: S_8  and  N_11
REMARK    3  A    between atoms: N_11  and  C_12
REMARK    4  A    between atoms: C_12  and  C_13
REMARK    5  A    between atoms: C_13  and  C_14
REMARK    6  A    between atoms: N_16  and  C_17
REMARK                            x       y       z     vdW  Elec       q    Type
REMARK                         _______ _______ _______ _____ _____    ______ ____
ROOT
ATOM      1  S   UNL     1       2.799   6.607  18.720  0.00  0.00    +0.000 S 
ATOM      2  O   UNL     1       3.622   6.120  19.806  0.00  0.00    +0.000 OA
ATOM      3  O   UNL     1       1.885   5.748  18.001  0.00  0.00    +0.000 OA
ENDROOT
BRANCH   1  10
ATOM      4  O   UNL     1      -1.641  12.249  22.291  0.00  0.00    +0.000 OA
ATOM      5  C   UNL     1      -0.931  11.303  21.964  0.00  0.00    +0.000 C 
ATOM      6  C   UNL     1      -0.435  10.275  22.955  0.00  0.00    +0.000 C 
ATOM      7  C   UNL     1      -0.296   8.902  22.319  0.00  0.00    +0.000 C 
ATOM      8  C   UNL     1       0.476   8.989  21.030  0.00  0.00    +0.000 A 
ATOM      9  C   UNL     1       1.247   7.916  20.572  0.00  0.00    +0.000 A 
ATOM     10  C   UNL     1       1.864   7.998  19.318  0.00  0.00    +0.000 A 
ATOM     11  C   UNL     1       1.713   9.134  18.517  0.00  0.00    +0.000 A 
ATOM     12  C   UNL     1       0.937  10.201  18.973  0.00  0.00    +0.000 A 
ATOM     13  C   UNL     1       0.333  10.129  20.229  0.00  0.00    +0.000 A 
ATOM     14  N   UNL     1      -0.442  11.199  20.685  0.00  0.00    +0.000 N 
ATOM     15  H   UNL     1      -0.667  11.969  20.068  0.00  0.00    +0.000 HD
ENDBRANCH   1  10
BRANCH   1  16
ATOM     16  N   UNL     1       3.828   7.311  17.583  0.00  0.00    +0.000 NA
ATOM     17  H   UNL     1       3.890   8.325  17.743  0.00  0.00    +0.000 HD
BRANCH  16  18
ATOM     18  C   UNL     1       5.132   6.666  17.335  0.00  0.00    +0.000 C 
BRANCH  18  19
ATOM     19  C   UNL     1       5.057   5.759  16.107  0.00  0.00    +0.000 C 
BRANCH  19  20
ATOM     20  C   UNL     1       5.000   4.296  16.500  0.00  0.00    +0.000 C 
ATOM     21  O   UNL     1       5.711   3.441  15.972  0.00  0.00    +0.000 OA
ATOM     22  N   UNL     1       4.083   4.006  17.489  0.00  0.00    +0.000 N 
ATOM     23  H   UNL     1       3.414   4.715  17.765  0.00  0.00    +0.000 HD
BRANCH  22  24
ATOM     24  C   UNL     1       3.912   2.639  17.974  0.00  0.00    +0.000 C 
ATOM     25  C   UNL     1       4.202   2.535  19.475  0.00  0.00    +0.000 C 
ATOM     26  C   UNL     1       3.068   3.064  20.348  0.00  0.00    +0.000 C 
ATOM     27  C   UNL     1       1.737   2.406  20.001  0.00  0.00    +0.000 C 
ATOM     28  C   UNL     1       1.403   2.543  18.520  0.00  0.00    +0.000 C 
ATOM     29  C   UNL     1       2.536   2.062  17.614  0.00  0.00    +0.000 C 
ENDBRANCH  22  24
ENDBRANCH  19  20
ENDBRANCH  18  19
ENDBRANCH  16  18
ENDBRANCH   1  16
TORSDOF 6
ENDMDL
