MODEL 1
REMARK VINA RESULT:      -9.1      0.000      0.000
REMARK  Name = 
REMARK  7 active torsions:
REMARK  status: ('A' for Active; 'I' for Inactive)
REMARK    1  A    between atoms: C_1  and  C_2
REMARK    2  A    between atoms: C_7  and  N_8
REMARK    3  A    between atoms: N_8  and  C_9
REMARK    4  A    between atoms: C_11  and  C_12
REMARK    5  A    between atoms: C_19  and  C_20
REMARK    6  A    between atoms: C_20  and  C_21
REMARK    7  A    between atoms: C_21  and  C_22
REMARK                            x       y       z     vdW  Elec       q    Type
REMARK                         _______ _______ _______ _____ _____    ______ ____
ROOT
ATOM      1  C   UNL     1       4.163   3.744  17.123  0.00  0.00    +0.000 A 
ATOM      2  O   UNL     1       4.824   3.384  15.983  0.00  0.00    +0.000 OA
ATOM      3  C   UNL     1       5.410   4.529  15.527  0.00  0.00    +0.000 A 
ATOM      4  N   UNL     1       5.213   5.575  16.314  0.00  0.00    +0.000 NA
ATOM      5  C   UNL     1       4.425   5.087  17.343  0.00  0.00    +0.000 A 
ENDROOT
BRANCH   3   6
ATOM      6  C   UNL     1       6.117   4.436  14.252  0.00  0.00    +0.000 A 
ATOM      7  C   UNL     1       5.701   3.564  13.232  0.00  0.00    +0.000 A 
ATOM      8  C   UNL     1       6.392   3.499  12.016  0.00  0.00    +0.000 A 
ATOM      9  C   UNL     1       7.504   4.309  11.803  0.00  0.00    +0.000 A 
ATOM     10  C   UNL     1       7.926   5.184  12.802  0.00  0.00    +0.000 A 
ATOM     11  C   UNL     1       7.238   5.248  14.017  0.00  0.00    +0.000 A 
ENDBRANCH   3   6
BRANCH   1  12
ATOM     12  N   UNL     1       3.458   2.788  17.773  0.00  0.00    +0.000 N 
ATOM     13  H   UNL     1       3.741   1.818  17.680  0.00  0.00    +0.000 HD
BRANCH  12  20
ATOM     14  C   UNL     1       4.686   1.999  20.329  0.00  0.00    +0.000 C 
ATOM     15  C   UNL     1       3.325   2.629  20.227  0.00  0.00    +0.000 A 
ATOM     16  C   UNL     1       2.572   2.791  21.407  0.00  0.00    +0.000 A 
ATOM     17  C   UNL     1       1.297   3.357  21.376  0.00  0.00    +0.000 A 
ATOM     18  C   UNL     1       0.755   3.766  20.168  0.00  0.00    +0.000 A 
ATOM     19  C   UNL     1       1.478   3.586  18.990  0.00  0.00    +0.000 A 
ATOM     20  C   UNL     1       2.760   3.008  18.990  0.00  0.00    +0.000 A 
ENDBRANCH  12  20
ENDBRANCH   1  12
BRANCH   5  21
ATOM     21  C   UNL     1       3.937   6.001  18.419  0.00  0.00    +0.000 C 
BRANCH  21  22
ATOM     22  C   UNL     1       3.194   7.222  17.865  0.00  0.00    +0.000 C 
BRANCH  22  23
ATOM     23  C   UNL     1       2.234   7.932  18.798  0.00  0.00    +0.000 A 
ATOM     24  C   UNL     1       2.038   7.400  20.085  0.00  0.00    +0.000 A 
ATOM     25  C   UNL     1       1.226   8.047  21.019  0.00  0.00    +0.000 A 
ATOM     26  C   UNL     1       0.600   9.242  20.685  0.00  0.00    +0.000 A 
ATOM     27  C   UNL     1       0.789   9.790  19.417  0.00  0.00    +0.000 A 
ATOM     28  C   UNL     1       1.604   9.141  18.480  0.00  0.00    +0.000 A 
ENDBRANCH  22  23
ENDBRANCH  21  22
ENDBRANCH   5  21
TORSDOF 6
ENDMDL
MODEL 2
REMARK VINA RESULT:      -9.1      1.095      1.552
REMARK  Name = 
REMARK  7 active torsions:
REMARK  status: ('A' for Active; 'I' for Inactive)
REMARK    1  A    between atoms: C_1  and  C_2
REMARK    2  A    between atoms: C_7  and  N_8
REMARK    3  A    between atoms: N_8  and  C_9
REMARK    4  A    between atoms: C_11  and  C_12
REMARK    5  A    between atoms: C_19  and  C_20
REMARK    6  A    between atoms: C_20  and  C_21
REMARK    7  A    between atoms: C_21  and  C_22
REMARK                            x       y       z     vdW  Elec       q    Type
REMARK                         _______ _______ _______ _____ _____    ______ ____
ROOT
ATOM      1  C   UNL     1       4.956   4.858  17.637  0.00  0.00    +0.000 A 
ATOM      2  O   UNL     1       5.512   4.198  16.577  0.00  0.00    +0.000 OA
ATOM      3  C   UNL     1       5.543   5.107  15.561  0.00  0.00    +0.000 A 
ATOM      4  N   UNL     1       5.096   6.304  15.906  0.00  0.00    +0.000 NA
ATOM      5  C   UNL     1       4.726   6.163  17.233  0.00  0.00    +0.000 A 
ENDROOT
BRANCH   3   6
ATOM      6  C   UNL     1       6.019   4.622  14.267  0.00  0.00    +0.000 A 
ATOM      7  C   UNL     1       5.291   3.690  13.508  0.00  0.00    +0.000 A 
ATOM      8  C   UNL     1       5.765   3.247  12.267  0.00  0.00    +0.000 A 
ATOM      9  C   UNL     1       6.970   3.734  11.769  0.00  0.00    +0.000 A 
ATOM     10  C   UNL     1       7.701   4.663  12.506  0.00  0.00    +0.000 A 
ATOM     11  C   UNL     1       7.229   5.105  13.746  0.00  0.00    +0.000 A 
ENDBRANCH   3   6
BRANCH   1  12
ATOM     12  N   UNL     1       4.777   4.166  18.787  0.00  0.00    +0.000 N 
ATOM     13  H   UNL     1       5.486   4.219  19.511  0.00  0.00    +0.000 HD
BRANCH  12  20
ATOM     14  C   UNL     1       3.437   1.653  18.043  0.00  0.00    +0.000 C 
ATOM     15  C   UNL     1       2.837   2.661  18.984  0.00  0.00    +0.000 A 
ATOM     16  C   UNL     1       1.542   2.422  19.485  0.00  0.00    +0.000 A 
ATOM     17  C   UNL     1       0.927   3.326  20.352  0.00  0.00    +0.000 A 
ATOM     18  C   UNL     1       1.594   4.481  20.729  0.00  0.00    +0.000 A 
ATOM     19  C   UNL     1       2.864   4.743  20.219  0.00  0.00    +0.000 A 
ATOM     20  C   UNL     1       3.503   3.855  19.334  0.00  0.00    +0.000 A 
ENDBRANCH  12  20
ENDBRANCH   1  12
BRANCH   5  21
ATOM     21  C   UNL     1       4.110   7.306  17.971  0.00  0.00    +0.000 C 
BRANCH  21  22
ATOM     22  C   UNL     1       2.580   7.314  17.878  0.00  0.00    +0.000 C 
BRANCH  22  23
ATOM     23  C   UNL     1       1.840   8.350  18.700  0.00  0.00    +0.000 A 
ATOM     24  C   UNL     1       1.264   9.445  18.031  0.00  0.00    +0.000 A 
ATOM     25  C   UNL     1       0.506  10.395  18.718  0.00  0.00    +0.000 A 
ATOM     26  C   UNL     1       0.302  10.262  20.086  0.00  0.00    +0.000 A 
ATOM     27  C   UNL     1       0.857   9.179  20.766  0.00  0.00    +0.000 A 
ATOM     28  C   UNL     1       1.618   8.226  20.077  0.00  0.00    +0.000 A 
ENDBRANCH  22  23
ENDBRANCH  21  22
ENDBRANCH   5  21
TORSDOF 6
ENDMDL
MODEL 3
REMARK VINA RESULT:      -9.0      0.562      1.608
REMARK  Name = 
REMARK  7 active torsions:
REMARK  status: ('A' for Active; 'I' for Inactive)
REMARK    1  A    between atoms: C_1  and  C_2
REMARK    2  A    between atoms: C_7  and  N_8
REMARK    3  A    between atoms: N_8  and  C_9
REMARK    4  A    between atoms: C_11  and  C_12
REMARK    5  A    between atoms: C_19  and  C_20
REMARK    6  A    between atoms: C_20  and  C_21
REMARK    7  A    between atoms: C_21  and  C_22
REMARK                            x       y       z     vdW  Elec       q    Type
REMARK                         _______ _______ _______ _____ _____    ______ ____
ROOT
ATOM      1  C   UNL     1       4.828   3.878  17.551  0.00  0.00    +0.000 A 
ATOM      2  O   UNL     1       5.414   3.480  16.383  0.00  0.00    +0.000 OA
ATOM      3  C   UNL     1       5.647   4.628  15.684  0.00  0.00    +0.000 A 
ATOM      4  N   UNL     1       5.299   5.726  16.337  0.00  0.00    +0.000 NA
ATOM      5  C   UNL     1       4.783   5.262  17.536  0.00  0.00    +0.000 A 
ENDROOT
BRANCH   3   6
ATOM      6  C   UNL     1       6.196   4.473  14.340  0.00  0.00    +0.000 A 
ATOM      7  C   UNL     1       5.629   3.595  13.400  0.00  0.00    +0.000 A 
ATOM      8  C   UNL     1       6.171   3.470  12.115  0.00  0.00    +0.000 A 
ATOM      9  C   UNL     1       7.282   4.226  11.752  0.00  0.00    +0.000 A 
ATOM     10  C   UNL     1       7.853   5.106  12.669  0.00  0.00    +0.000 A 
ATOM     11  C   UNL     1       7.313   5.230  13.953  0.00  0.00    +0.000 A 
ENDBRANCH   3   6
BRANCH   1  12
ATOM     12  N   UNL     1       4.460   2.917  18.431  0.00  0.00    +0.000 N 
ATOM     13  H   UNL     1       5.169   2.306  18.821  0.00  0.00    +0.000 HD
BRANCH  12  20
ATOM     14  C   UNL     1       1.794   3.478  17.316  0.00  0.00    +0.000 C 
ATOM     15  C   UNL     1       2.053   3.303  18.787  0.00  0.00    +0.000 A 
ATOM     16  C   UNL     1       0.979   3.479  19.682  0.00  0.00    +0.000 A 
ATOM     17  C   UNL     1       1.159   3.343  21.059  0.00  0.00    +0.000 A 
ATOM     18  C   UNL     1       2.412   3.032  21.562  0.00  0.00    +0.000 A 
ATOM     19  C   UNL     1       3.489   2.881  20.689  0.00  0.00    +0.000 A 
ATOM     20  C   UNL     1       3.339   3.025  19.298  0.00  0.00    +0.000 A 
ENDBRANCH  12  20
ENDBRANCH   1  12
BRANCH   5  21
ATOM     21  C   UNL     1       4.222   6.219  18.537  0.00  0.00    +0.000 C 
BRANCH  21  22
ATOM     22  C   UNL     1       2.931   6.891  18.053  0.00  0.00    +0.000 C 
BRANCH  22  23
ATOM     23  C   UNL     1       2.176   7.743  19.053  0.00  0.00    +0.000 A 
ATOM     24  C   UNL     1       1.660   8.978  18.622  0.00  0.00    +0.000 A 
ATOM     25  C   UNL     1       0.890   9.776  19.471  0.00  0.00    +0.000 A 
ATOM     26  C   UNL     1       0.615   9.349  20.764  0.00  0.00    +0.000 A 
ATOM     27  C   UNL     1       1.110   8.123  21.207  0.00  0.00    +0.000 A 
ATOM     28  C   UNL     1       1.882   7.322  20.356  0.00  0.00    +0.000 A 
ENDBRANCH  22  23
ENDBRANCH  21  22
ENDBRANCH   5  21
TORSDOF 6
ENDMDL
MODEL 4
REMARK VINA RESULT:      -9.0      0.202      1.325
REMARK  Name = 
REMARK  7 active torsions:
REMARK  status: ('A' for Active; 'I' for Inactive)
REMARK    1  A    between atoms: C_1  and  C_2
REMARK    2  A    between atoms: C_7  and  N_8
REMARK    3  A    between atoms: N_8  and  C_9
REMARK    4  A    between atoms: C_11  and  C_12
REMARK    5  A    between atoms: C_19  and  C_20
REMARK    6  A    between atoms: C_20  and  C_21
REMARK    7  A    between atoms: C_21  and  C_22
REMARK                            x       y       z     vdW  Elec       q    Type
REMARK                         _______ _______ _______ _____ _____    ______ ____
ROOT
ATOM      1  C   UNL     1       4.081   3.808  17.104  0.00  0.00    +0.000 A 
ATOM      2  O   UNL     1       4.754   3.449  15.969  0.00  0.00    +0.000 OA
ATOM      3  C   UNL     1       5.379   4.585  15.544  0.00  0.00    +0.000 A 
ATOM      4  N   UNL     1       5.195   5.622  16.344  0.00  0.00    +0.000 NA
ATOM      5  C   UNL     1       4.376   5.139  17.351  0.00  0.00    +0.000 A 
ENDROOT
BRANCH   3   6
ATOM      6  C   UNL     1       6.107   4.493  14.281  0.00  0.00    +0.000 A 
ATOM      7  C   UNL     1       7.258   5.257  14.027  0.00  0.00    +0.000 A 
ATOM      8  C   UNL     1       7.942   5.145  12.810  0.00  0.00    +0.000 A 
ATOM      9  C   UNL     1       7.485   4.263  11.834  0.00  0.00    +0.000 A 
ATOM     10  C   UNL     1       6.349   3.493  12.072  0.00  0.00    +0.000 A 
ATOM     11  C   UNL     1       5.665   3.606  13.286  0.00  0.00    +0.000 A 
ENDBRANCH   3   6
BRANCH   1  12
ATOM     12  N   UNL     1       3.340   2.860  17.724  0.00  0.00    +0.000 N 
ATOM     13  H   UNL     1       3.556   1.882  17.567  0.00  0.00    +0.000 HD
BRANCH  12  20
ATOM     14  C   UNL     1       4.683   2.016  20.203  0.00  0.00    +0.000 C 
ATOM     15  C   UNL     1       3.318   2.646  20.177  0.00  0.00    +0.000 A 
ATOM     16  C   UNL     1       2.619   2.781  21.393  0.00  0.00    +0.000 A 
ATOM     17  C   UNL     1       1.344   3.346  21.434  0.00  0.00    +0.000 A 
ATOM     18  C   UNL     1       0.747   3.781  20.261  0.00  0.00    +0.000 A 
ATOM     19  C   UNL     1       1.416   3.629  19.048  0.00  0.00    +0.000 A 
ATOM     20  C   UNL     1       2.697   3.052  18.976  0.00  0.00    +0.000 A 
ENDBRANCH  12  20
ENDBRANCH   1  12
BRANCH   5  21
ATOM     21  C   UNL     1       3.893   6.048  18.433  0.00  0.00    +0.000 C 
BRANCH  21  22
ATOM     22  C   UNL     1       2.676   6.879  18.008  0.00  0.00    +0.000 C 
BRANCH  22  23
ATOM     23  C   UNL     1       2.064   7.794  19.048  0.00  0.00    +0.000 A 
ATOM     24  C   UNL     1       1.582   9.049  18.633  0.00  0.00    +0.000 A 
ATOM     25  C   UNL     1       0.939   9.908  19.526  0.00  0.00    +0.000 A 
ATOM     26  C   UNL     1       0.757   9.525  20.849  0.00  0.00    +0.000 A 
ATOM     27  C   UNL     1       1.219   8.282  21.278  0.00  0.00    +0.000 A 
ATOM     28  C   UNL     1       1.865   7.419  20.383  0.00  0.00    +0.000 A 
ENDBRANCH  22  23
ENDBRANCH  21  22
ENDBRANCH   5  21
TORSDOF 6
ENDMDL
MODEL 5
REMARK VINA RESULT:      -9.0      3.834      4.523
REMARK  Name = 
REMARK  7 active torsions:
REMARK  status: ('A' for Active; 'I' for Inactive)
REMARK    1  A    between atoms: C_1  and  C_2
REMARK    2  A    between atoms: C_7  and  N_8
REMARK    3  A    between atoms: N_8  and  C_9
REMARK    4  A    between atoms: C_11  and  C_12
REMARK    5  A    between atoms: C_19  and  C_20
REMARK    6  A    between atoms: C_20  and  C_21
REMARK    7  A    between atoms: C_21  and  C_22
REMARK                            x       y       z     vdW  Elec       q    Type
REMARK                         _______ _______ _______ _____ _____    ______ ____
ROOT
ATOM      1  C   UNL     1       6.520   5.070  17.805  0.00  0.00    +0.000 A 
ATOM      2  O   UNL     1       6.271   4.373  16.656  0.00  0.00    +0.000 OA
ATOM      3  C   UNL     1       6.894   5.075  15.665  0.00  0.00    +0.000 A 
ATOM      4  N   UNL     1       7.557   6.134  16.101  0.00  0.00    +0.000 NA
ATOM      5  C   UNL     1       7.335   6.139  17.468  0.00  0.00    +0.000 A 
ENDROOT
BRANCH   3   6
ATOM      6  C   UNL     1       6.706   4.582  14.302  0.00  0.00    +0.000 A 
ATOM      7  C   UNL     1       5.640   3.734  13.957  0.00  0.00    +0.000 A 
ATOM      8  C   UNL     1       5.479   3.283  12.641  0.00  0.00    +0.000 A 
ATOM      9  C   UNL     1       6.377   3.678  11.654  0.00  0.00    +0.000 A 
ATOM     10  C   UNL     1       7.436   4.524  11.978  0.00  0.00    +0.000 A 
ATOM     11  C   UNL     1       7.599   4.974  13.292  0.00  0.00    +0.000 A 
ENDBRANCH   3   6
BRANCH   1  12
ATOM     12  N   UNL     1       5.982   4.602  18.955  0.00  0.00    +0.000 N 
ATOM     13  H   UNL     1       6.561   4.550  19.786  0.00  0.00    +0.000 HD
BRANCH  12  20
ATOM     14  C   UNL     1       4.511   2.252  19.946  0.00  0.00    +0.000 C 
ATOM     15  C   UNL     1       3.879   3.604  19.759  0.00  0.00    +0.000 A 
ATOM     16  C   UNL     1       2.499   3.738  20.009  0.00  0.00    +0.000 A 
ATOM     17  C   UNL     1       1.851   4.963  19.842  0.00  0.00    +0.000 A 
ATOM     18  C   UNL     1       2.571   6.069  19.421  0.00  0.00    +0.000 A 
ATOM     19  C   UNL     1       3.931   5.944  19.143  0.00  0.00    +0.000 A 
ATOM     20  C   UNL     1       4.607   4.719  19.292  0.00  0.00    +0.000 A 
ENDBRANCH  12  20
ENDBRANCH   1  12
BRANCH   5  21
ATOM     21  C   UNL     1       7.886   7.237  18.318  0.00  0.00    +0.000 C 
BRANCH  21  22
ATOM     22  C   UNL     1       7.713   8.620  17.681  0.00  0.00    +0.000 C 
BRANCH  22  23
ATOM     23  C   UNL     1       8.519   9.760  18.270  0.00  0.00    +0.000 A 
ATOM     24  C   UNL     1       8.548  10.985  17.579  0.00  0.00    +0.000 A 
ATOM     25  C   UNL     1       9.208  12.097  18.104  0.00  0.00    +0.000 A 
ATOM     26  C   UNL     1       9.845  12.008  19.336  0.00  0.00    +0.000 A 
ATOM     27  C   UNL     1       9.820  10.806  20.041  0.00  0.00    +0.000 A 
ATOM     28  C   UNL     1       9.158   9.690  19.514  0.00  0.00    +0.000 A 
ENDBRANCH  22  23
ENDBRANCH  21  22
ENDBRANCH   5  21
TORSDOF 6
ENDMDL
MODEL 6
REMARK VINA RESULT:      -9.0      4.007      4.909
REMARK  Name = 
REMARK  7 active torsions:
REMARK  status: ('A' for Active; 'I' for Inactive)
REMARK    1  A    between atoms: C_1  and  C_2
REMARK    2  A    between atoms: C_7  and  N_8
REMARK    3  A    between atoms: N_8  and  C_9
REMARK    4  A    between atoms: C_11  and  C_12
REMARK    5  A    between atoms: C_19  and  C_20
REMARK    6  A    between atoms: C_20  and  C_21
REMARK    7  A    between atoms: C_21  and  C_22
REMARK                            x       y       z     vdW  Elec       q    Type
REMARK                         _______ _______ _______ _____ _____    ______ ____
ROOT
ATOM      1  C   UNL     1       6.203   5.849  17.791  0.00  0.00    +0.000 A 
ATOM      2  O   UNL     1       5.911   5.087  16.695  0.00  0.00    +0.000 OA
ATOM      3  C   UNL     1       6.819   5.454  15.746  0.00  0.00    +0.000 A 
ATOM      4  N   UNL     1       7.694   6.353  16.168  0.00  0.00    +0.000 NA
ATOM      5  C   UNL     1       7.319   6.608  17.477  0.00  0.00    +0.000 A 
ENDROOT
BRANCH   3   6
ATOM      6  C   UNL     1       6.668   4.842  14.428  0.00  0.00    +0.000 A 
ATOM      7  C   UNL     1       7.588   5.069  13.391  0.00  0.00    +0.000 A 
ATOM      8  C   UNL     1       7.424   4.463  12.139  0.00  0.00    +0.000 A 
ATOM      9  C   UNL     1       6.341   3.620  11.911  0.00  0.00    +0.000 A 
ATOM     10  C   UNL     1       5.422   3.379  12.930  0.00  0.00    +0.000 A 
ATOM     11  C   UNL     1       5.584   3.985  14.180  0.00  0.00    +0.000 A 
ENDBRANCH   3   6
BRANCH   1  12
ATOM     12  N   UNL     1       5.421   5.704  18.886  0.00  0.00    +0.000 N 
ATOM     13  H   UNL     1       5.316   6.485  19.526  0.00  0.00    +0.000 HD
BRANCH  12  20
ATOM     14  C   UNL     1       2.732   6.723  18.253  0.00  0.00    +0.000 C 
ATOM     15  C   UNL     1       3.002   5.300  18.660  0.00  0.00    +0.000 A 
ATOM     16  C   UNL     1       1.906   4.427  18.809  0.00  0.00    +0.000 A 
ATOM     17  C   UNL     1       2.089   3.100  19.197  0.00  0.00    +0.000 A 
ATOM     18  C   UNL     1       3.368   2.626  19.445  0.00  0.00    +0.000 A 
ATOM     19  C   UNL     1       4.458   3.486  19.328  0.00  0.00    +0.000 A 
ATOM     20  C   UNL     1       4.301   4.832  18.950  0.00  0.00    +0.000 A 
ENDBRANCH  12  20
ENDBRANCH   1  12
BRANCH   5  21
ATOM     21  C   UNL     1       8.047   7.631  18.286  0.00  0.00    +0.000 C 
BRANCH  21  22
ATOM     22  C   UNL     1       7.929   9.042  17.698  0.00  0.00    +0.000 C 
BRANCH  22  23
ATOM     23  C   UNL     1       8.715  10.145  18.377  0.00  0.00    +0.000 A 
ATOM     24  C   UNL     1       8.826  11.385  17.724  0.00  0.00    +0.000 A 
ATOM     25  C   UNL     1       9.472  12.466  18.329  0.00  0.00    +0.000 A 
ATOM     26  C   UNL     1      10.012  12.328  19.601  0.00  0.00    +0.000 A 
ATOM     27  C   UNL     1       9.904  11.109  20.269  0.00  0.00    +0.000 A 
ATOM     28  C   UNL     1       9.256  10.025  19.663  0.00  0.00    +0.000 A 
ENDBRANCH  22  23
ENDBRANCH  21  22
ENDBRANCH   5  21
TORSDOF 6
ENDMDL
MODEL 7
REMARK VINA RESULT:      -9.0      2.439      7.588
REMARK  Name = 
REMARK  7 active torsions:
REMARK  status: ('A' for Active; 'I' for Inactive)
REMARK    1  A    between atoms: C_1  and  C_2
REMARK    2  A    between atoms: C_7  and  N_8
REMARK    3  A    between atoms: N_8  and  C_9
REMARK    4  A    between atoms: C_11  and  C_12
REMARK    5  A    between atoms: C_19  and  C_20
REMARK    6  A    between atoms: C_20  and  C_21
REMARK    7  A    between atoms: C_21  and  C_22
REMARK                            x       y       z     vdW  Elec       q    Type
REMARK                         _______ _______ _______ _____ _____    ______ ____
ROOT
ATOM      1  C   UNL     1       2.459   6.838  19.788  0.00  0.00    +0.000 A 
ATOM      2  O   UNL     1       1.647   7.396  20.735  0.00  0.00    +0.000 OA
ATOM      3  C   UNL     1       1.250   8.592  20.212  0.00  0.00    +0.000 A 
ATOM      4  N   UNL     1       1.706   8.814  18.989  0.00  0.00    +0.000 NA
ATOM      5  C   UNL     1       2.473   7.697  18.701  0.00  0.00    +0.000 A 
ENDROOT
BRANCH   3   6
ATOM      6  C   UNL     1       0.432   9.440  21.075  0.00  0.00    +0.000 A 
ATOM      7  C   UNL     1       0.217   9.137  22.430  0.00  0.00    +0.000 A 
ATOM      8  C   UNL     1      -0.566   9.972  23.238  0.00  0.00    +0.000 A 
ATOM      9  C   UNL     1      -1.137  11.122  22.702  0.00  0.00    +0.000 A 
ATOM     10  C   UNL     1      -0.929  11.441  21.362  0.00  0.00    +0.000 A 
ATOM     11  C   UNL     1      -0.150  10.607  20.554  0.00  0.00    +0.000 A 
ENDBRANCH   3   6
BRANCH   1  12
ATOM     12  N   UNL     1       3.024   5.640  20.068  0.00  0.00    +0.000 N 
ATOM     13  H   UNL     1       3.364   5.461  21.007  0.00  0.00    +0.000 HD
BRANCH  12  20
ATOM     14  C   UNL     1       1.883   3.396  21.595  0.00  0.00    +0.000 C 
ATOM     15  C   UNL     1       2.148   3.338  20.116  0.00  0.00    +0.000 A 
ATOM     16  C   UNL     1       1.898   2.129  19.437  0.00  0.00    +0.000 A 
ATOM     17  C   UNL     1       2.136   2.008  18.068  0.00  0.00    +0.000 A 
ATOM     18  C   UNL     1       2.629   3.091  17.357  0.00  0.00    +0.000 A 
ATOM     19  C   UNL     1       2.906   4.284  18.021  0.00  0.00    +0.000 A 
ATOM     20  C   UNL     1       2.687   4.431  19.403  0.00  0.00    +0.000 A 
ENDBRANCH  12  20
ENDBRANCH   1  12
BRANCH   5  21
ATOM     21  C   UNL     1       3.214   7.603  17.407  0.00  0.00    +0.000 C 
BRANCH  21  22
ATOM     22  C   UNL     1       4.733   7.526  17.600  0.00  0.00    +0.000 C 
BRANCH  22  23
ATOM     23  C   UNL     1       5.471   6.428  16.861  0.00  0.00    +0.000 A 
ATOM     24  C   UNL     1       6.446   5.693  17.558  0.00  0.00    +0.000 A 
ATOM     25  C   UNL     1       7.109   4.620  16.958  0.00  0.00    +0.000 A 
ATOM     26  C   UNL     1       6.802   4.257  15.653  0.00  0.00    +0.000 A 
ATOM     27  C   UNL     1       5.831   4.967  14.948  0.00  0.00    +0.000 A 
ATOM     28  C   UNL     1       5.166   6.044  15.549  0.00  0.00    +0.000 A 
ENDBRANCH  22  23
ENDBRANCH  21  22
ENDBRANCH   5  21
TORSDOF 6
ENDMDL
MODEL 8
REMARK VINA RESULT:      -8.9      2.653      7.558
REMARK  Name = 
REMARK  7 active torsions:
REMARK  status: ('A' for Active; 'I' for Inactive)
REMARK    1  A    between atoms: C_1  and  C_2
REMARK    2  A    between atoms: C_7  and  N_8
REMARK    3  A    between atoms: N_8  and  C_9
REMARK    4  A    between atoms: C_11  and  C_12
REMARK    5  A    between atoms: C_19  and  C_20
REMARK    6  A    between atoms: C_20  and  C_21
REMARK    7  A    between atoms: C_21  and  C_22
REMARK                            x       y       z     vdW  Elec       q    Type
REMARK                         _______ _______ _______ _____ _____    ______ ____
ROOT
ATOM      1  C   UNL     1       2.274   6.814  20.079  0.00  0.00    +0.000 A 
ATOM      2  O   UNL     1       1.566   7.517  21.013  0.00  0.00    +0.000 OA
ATOM      3  C   UNL     1       1.161   8.655  20.380  0.00  0.00    +0.000 A 
ATOM      4  N   UNL     1       1.513   8.708  19.106  0.00  0.00    +0.000 NA
ATOM      5  C   UNL     1       2.217   7.533  18.896  0.00  0.00    +0.000 A 
ENDROOT
BRANCH   3   6
ATOM      6  C   UNL     1       0.449   9.636  21.196  0.00  0.00    +0.000 A 
ATOM      7  C   UNL     1      -0.184   9.285  22.400  0.00  0.00    +0.000 A 
ATOM      8  C   UNL     1      -0.853  10.246  23.168  0.00  0.00    +0.000 A 
ATOM      9  C   UNL     1      -0.893  11.571  22.743  0.00  0.00    +0.000 A 
ATOM     10  C   UNL     1      -0.265  11.938  21.555  0.00  0.00    +0.000 A 
ATOM     11  C   UNL     1       0.402  10.978  20.787  0.00  0.00    +0.000 A 
ENDBRANCH   3   6
BRANCH   1  12
ATOM     12  N   UNL     1       2.824   5.637  20.458  0.00  0.00    +0.000 N 
ATOM     13  H   UNL     1       3.219   5.553  21.389  0.00  0.00    +0.000 HD
BRANCH  12  20
ATOM     14  C   UNL     1       4.831   3.756  19.411  0.00  0.00    +0.000 C 
ATOM     15  C   UNL     1       3.357   3.459  19.440  0.00  0.00    +0.000 A 
ATOM     16  C   UNL     1       2.907   2.247  18.880  0.00  0.00    +0.000 A 
ATOM     17  C   UNL     1       1.550   1.920  18.865  0.00  0.00    +0.000 A 
ATOM     18  C   UNL     1       0.625   2.798  19.406  0.00  0.00    +0.000 A 
ATOM     19  C   UNL     1       1.054   4.012  19.939  0.00  0.00    +0.000 A 
ATOM     20  C   UNL     1       2.414   4.373  19.956  0.00  0.00    +0.000 A 
ENDBRANCH  12  20
ENDBRANCH   1  12
BRANCH   5  21
ATOM     21  C   UNL     1       2.837   7.252  17.566  0.00  0.00    +0.000 C 
BRANCH  21  22
ATOM     22  C   UNL     1       4.325   7.615  17.519  0.00  0.00    +0.000 C 
BRANCH  22  23
ATOM     23  C   UNL     1       5.291   6.531  17.085  0.00  0.00    +0.000 A 
ATOM     24  C   UNL     1       6.554   6.477  17.701  0.00  0.00    +0.000 A 
ATOM     25  C   UNL     1       7.461   5.459  17.401  0.00  0.00    +0.000 A 
ATOM     26  C   UNL     1       7.119   4.471  16.487  0.00  0.00    +0.000 A 
ATOM     27  C   UNL     1       5.867   4.502  15.872  0.00  0.00    +0.000 A 
ATOM     28  C   UNL     1       4.957   5.523  16.172  0.00  0.00    +0.000 A 
ENDBRANCH  22  23
ENDBRANCH  21  22
ENDBRANCH   5  21
TORSDOF 6
ENDMDL
MODEL 9
REMARK VINA RESULT:      -8.9      0.874      1.601
REMARK  Name = 
REMARK  7 active torsions:
REMARK  status: ('A' for Active; 'I' for Inactive)
REMARK    1  A    between atoms: C_1  and  C_2
REMARK    2  A    between atoms: C_7  and  N_8
REMARK    3  A    between atoms: N_8  and  C_9
REMARK    4  A    between atoms: C_11  and  C_12
REMARK    5  A    between atoms: C_19  and  C_20
REMARK    6  A    between atoms: C_20  and  C_21
REMARK    7  A    between atoms: C_21  and  C_22
REMARK                            x       y       z     vdW  Elec       q    Type
REMARK                         _______ _______ _______ _____ _____    ______ ____
ROOT
ATOM      1  C   UNL     1       4.927   4.330  17.642  0.00  0.00    +0.000 A 
ATOM      2  O   UNL     1       5.504   3.807  16.518  0.00  0.00    +0.000 OA
ATOM      3  C   UNL     1       5.611   4.852  15.646  0.00  0.00    +0.000 A 
ATOM      4  N   UNL     1       5.193   6.004  16.146  0.00  0.00    +0.000 NA
ATOM      5  C   UNL     1       4.762   5.688  17.423  0.00  0.00    +0.000 A 
ENDROOT
BRANCH   3   6
ATOM      6  C   UNL     1       6.123   4.538  14.315  0.00  0.00    +0.000 A 
ATOM      7  C   UNL     1       7.278   5.149  13.798  0.00  0.00    +0.000 A 
ATOM      8  C   UNL     1       7.752   4.825  12.521  0.00  0.00    +0.000 A 
ATOM      9  C   UNL     1       7.080   3.883  11.747  0.00  0.00    +0.000 A 
ATOM     10  C   UNL     1       5.937   3.263  12.247  0.00  0.00    +0.000 A 
ATOM     11  C   UNL     1       5.462   3.587  13.521  0.00  0.00    +0.000 A 
ENDBRANCH   3   6
BRANCH   1  12
ATOM     12  N   UNL     1       4.675   3.488  18.671  0.00  0.00    +0.000 N 
ATOM     13  H   UNL     1       5.441   3.193  19.267  0.00  0.00    +0.000 HD
BRANCH  12  20
ATOM     14  C   UNL     1       2.366   2.162  17.415  0.00  0.00    +0.000 C 
ATOM     15  C   UNL     1       2.310   2.807  18.773  0.00  0.00    +0.000 A 
ATOM     16  C   UNL     1       1.076   2.835  19.451  0.00  0.00    +0.000 A 
ATOM     17  C   UNL     1       0.956   3.429  20.708  0.00  0.00    +0.000 A 
ATOM     18  C   UNL     1       2.067   4.006  21.304  0.00  0.00    +0.000 A 
ATOM     19  C   UNL     1       3.288   4.010  20.632  0.00  0.00    +0.000 A 
ATOM     20  C   UNL     1       3.434   3.428  19.359  0.00  0.00    +0.000 A 
ENDBRANCH  12  20
ENDBRANCH   1  12
BRANCH   5  21
ATOM     21  C   UNL     1       4.157   6.738  18.297  0.00  0.00    +0.000 C 
BRANCH  21  22
ATOM     22  C   UNL     1       2.625   6.738  18.246  0.00  0.00    +0.000 C 
BRANCH  22  23
ATOM     23  C   UNL     1       1.913   7.964  18.782  0.00  0.00    +0.000 A 
ATOM     24  C   UNL     1       1.619   8.016  20.156  0.00  0.00    +0.000 A 
ATOM     25  C   UNL     1       1.032   9.148  20.727  0.00  0.00    +0.000 A 
ATOM     26  C   UNL     1       0.737  10.251  19.936  0.00  0.00    +0.000 A 
ATOM     27  C   UNL     1       1.030  10.222  18.573  0.00  0.00    +0.000 A 
ATOM     28  C   UNL     1       1.618   9.087  18.000  0.00  0.00    +0.000 A 
ENDBRANCH  22  23
ENDBRANCH  21  22
ENDBRANCH   5  21
TORSDOF 6
ENDMDL
