MODEL 1
REMARK VINA RESULT:      -8.0      0.000      0.000
REMARK  Name = 
REMARK  11 active torsions:
REMARK  status: ('A' for Active; 'I' for Inactive)
REMARK    1  A    between atoms: C_1  and  C_2
REMARK    2  A    between atoms: C_2  and  C_3
REMARK    3  A    between atoms: C_2  and  C_4
REMARK    4  A    between atoms: C_2  and  N_6
REMARK    5  A    between atoms: C_4  and  O_5
REMARK    6  A    between atoms: C_8  and  C_9
REMARK    7  A    between atoms: C_9  and  C_11
REMARK    8  A    between atoms: C_15  and  N_16
REMARK    9  A    between atoms: C_17  and  C_19
REMARK   10  A    between atoms: C_19  and  N_20
REMARK   11  A    between atoms: C_23  and  C_24
REMARK                            x       y       z     vdW  Elec       q    Type
REMARK                         _______ _______ _______ _____ _____    ______ ____
ROOT
ATOM      1  C   UNL     1       1.589   8.545  19.331  0.00  0.00    +0.000 A 
ATOM      2  C   UNL     1       1.952   7.770  20.424  0.00  0.00    +0.000 A 
ATOM      3  N   UNL     1       1.404   7.897  21.648  0.00  0.00    +0.000 NA
ATOM      4  C   UNL     1       0.482   8.881  21.804  0.00  0.00    +0.000 A 
ATOM      5  C   UNL     1       0.069   9.745  20.794  0.00  0.00    +0.000 A 
ATOM      6  C   UNL     1       0.630   9.553  19.524  0.00  0.00    +0.000 A 
ENDROOT
BRANCH   5   7
ATOM      7  N   UNL     1      -0.856  10.799  20.976  0.00  0.00    +0.000 N 
ATOM      8  C   UNL     1      -0.545  12.152  21.058  0.00  0.00    +0.000 C 
ATOM      9  O   UNL     1       0.593  12.618  21.022  0.00  0.00    +0.000 OA
ATOM     10  H   UNL     1      -1.839  10.543  21.074  0.00  0.00    +0.000 HD
BRANCH   8  11
ATOM     11  C   UNL     1      -1.735  13.071  21.184  0.00  0.00    +0.000 C 
BRANCH  11  12
ATOM     12  N   UNL     1      -2.769  12.690  20.250  0.00  0.00    +0.000 N 
ATOM     13  C   UNL     1      -4.111  12.733  20.474  0.00  0.00    +0.000 A 
ATOM     14  C   UNL     1      -4.702  12.209  19.351  0.00  0.00    +0.000 A 
ATOM     15  C   UNL     1      -3.627  11.878  18.501  0.00  0.00    +0.000 A 
ATOM     16  N   UNL     1      -2.441  12.198  19.031  0.00  0.00    +0.000 NA
BRANCH  15  17
ATOM     17  C   UNL     1      -3.856  11.166  17.177  0.00  0.00    +0.000 C 
ATOM     18  C   UNL     1      -2.740  10.947  16.181  0.00  0.00    +0.000 C 
ATOM     19  C   UNL     1      -3.225   9.799  16.998  0.00  0.00    +0.000 C 
ENDBRANCH  15  17
ENDBRANCH  11  12
ENDBRANCH   8  11
ENDBRANCH   5   7
BRANCH   1  20
ATOM     20  C   UNL     1       2.253   8.369  18.014  0.00  0.00    +0.000 C 
ATOM     21  O   UNL     1       2.067   9.221  17.147  0.00  0.00    +0.000 OA
BRANCH  20  24
ATOM     22  N   UNL     1       4.992   5.976  17.438  0.00  0.00    +0.000 N 
ATOM     23  C   UNL     1       4.497   7.253  17.618  0.00  0.00    +0.000 A 
ATOM     24  C   UNL     1       3.127   7.217  17.786  0.00  0.00    +0.000 A 
ATOM     25  C   UNL     1       2.754   5.843  17.724  0.00  0.00    +0.000 A 
ATOM     26  C   UNL     1       1.515   5.186  17.840  0.00  0.00    +0.000 A 
ATOM     27  N   UNL     1       1.420   3.843  17.706  0.00  0.00    +0.000 NA
ATOM     28  C   UNL     1       2.545   3.144  17.455  0.00  0.00    +0.000 A 
ATOM     29  C   UNL     1       3.809   3.701  17.322  0.00  0.00    +0.000 A 
ATOM     30  F   UNL     1       4.849   2.904  17.060  0.00  0.00    +0.000 F 
ATOM     31  C   UNL     1       3.919   5.089  17.471  0.00  0.00    +0.000 A 
BRANCH  22  33
ATOM     32  C   UNL     1       6.725   5.029  15.908  0.00  0.00    +0.000 C 
ATOM     33  C   UNL     1       6.443   5.659  17.288  0.00  0.00    +0.000 C 
ATOM     34  C   UNL     1       6.899   4.716  18.423  0.00  0.00    +0.000 C 
BRANCH  33  35
ATOM     35  C   UNL     1       7.331   6.949  17.384  0.00  0.00    +0.000 C 
BRANCH  35  36
ATOM     36  O   UNL     1       8.145   6.992  18.555  0.00  0.00    +0.000 OA
ATOM     37  H   UNL     1       7.622   7.398  19.269  0.00  0.00    +0.000 HD
ENDBRANCH  35  36
ENDBRANCH  33  35
ENDBRANCH  22  33
ENDBRANCH  20  24
ENDBRANCH   1  20
TORSDOF 9
ENDMDL
MODEL 2
REMARK VINA RESULT:      -7.9      1.630      2.986
REMARK  Name = 
REMARK  11 active torsions:
REMARK  status: ('A' for Active; 'I' for Inactive)
REMARK    1  A    between atoms: C_1  and  C_2
REMARK    2  A    between atoms: C_2  and  C_3
REMARK    3  A    between atoms: C_2  and  C_4
REMARK    4  A    between atoms: C_2  and  N_6
REMARK    5  A    between atoms: C_4  and  O_5
REMARK    6  A    between atoms: C_8  and  C_9
REMARK    7  A    between atoms: C_9  and  C_11
REMARK    8  A    between atoms: C_15  and  N_16
REMARK    9  A    between atoms: C_17  and  C_19
REMARK   10  A    between atoms: C_19  and  N_20
REMARK   11  A    between atoms: C_23  and  C_24
REMARK                            x       y       z     vdW  Elec       q    Type
REMARK                         _______ _______ _______ _____ _____    ______ ____
ROOT
ATOM      1  C   UNL     1       1.429   8.711  19.619  0.00  0.00    +0.000 A 
ATOM      2  C   UNL     1       1.891   8.277  20.854  0.00  0.00    +0.000 A 
ATOM      3  N   UNL     1       1.353   8.655  22.030  0.00  0.00    +0.000 NA
ATOM      4  C   UNL     1       0.335   9.551  21.975  0.00  0.00    +0.000 A 
ATOM      5  C   UNL     1      -0.185  10.087  20.801  0.00  0.00    +0.000 A 
ATOM      6  C   UNL     1       0.372   9.637  19.596  0.00  0.00    +0.000 A 
ENDROOT
BRANCH   5   7
ATOM      7  N   UNL     1      -1.212  11.057  20.753  0.00  0.00    +0.000 N 
ATOM      8  C   UNL     1      -1.032  12.433  20.662  0.00  0.00    +0.000 C 
ATOM      9  O   UNL     1       0.059  13.003  20.648  0.00  0.00    +0.000 OA
ATOM     10  H   UNL     1      -2.174  10.718  20.810  0.00  0.00    +0.000 HD
BRANCH   8  11
ATOM     11  C   UNL     1      -2.306  13.235  20.559  0.00  0.00    +0.000 C 
BRANCH  11  12
ATOM     12  N   UNL     1      -3.211  12.627  19.611  0.00  0.00    +0.000 N 
ATOM     13  C   UNL     1      -4.565  12.551  19.727  0.00  0.00    +0.000 A 
ATOM     14  C   UNL     1      -5.000  11.825  18.645  0.00  0.00    +0.000 A 
ATOM     15  C   UNL     1      -3.827  11.507  17.931  0.00  0.00    +0.000 A 
ATOM     16  N   UNL     1      -2.730  12.021  18.499  0.00  0.00    +0.000 NA
BRANCH  15  17
ATOM     17  C   UNL     1      -3.867  10.611  16.703  0.00  0.00    +0.000 C 
ATOM     18  C   UNL     1      -3.066  10.920  15.459  0.00  0.00    +0.000 C 
ATOM     19  C   UNL     1      -2.613   9.829  16.366  0.00  0.00    +0.000 C 
ENDBRANCH  15  17
ENDBRANCH  11  12
ENDBRANCH   8  11
ENDBRANCH   5   7
BRANCH   1  20
ATOM     20  C   UNL     1       2.086   8.274  18.360  0.00  0.00    +0.000 C 
ATOM     21  O   UNL     1       2.183   9.085  17.441  0.00  0.00    +0.000 OA
BRANCH  20  24
ATOM     22  N   UNL     1       2.863   4.679  18.516  0.00  0.00    +0.000 N 
ATOM     23  C   UNL     1       2.107   5.785  18.850  0.00  0.00    +0.000 A 
ATOM     24  C   UNL     1       2.622   6.917  18.251  0.00  0.00    +0.000 A 
ATOM     25  C   UNL     1       3.748   6.487  17.490  0.00  0.00    +0.000 A 
ATOM     26  C   UNL     1       4.658   7.173  16.663  0.00  0.00    +0.000 A 
ATOM     27  N   UNL     1       5.684   6.527  16.066  0.00  0.00    +0.000 NA
ATOM     28  C   UNL     1       5.821   5.204  16.283  0.00  0.00    +0.000 A 
ATOM     29  C   UNL     1       4.979   4.443  17.082  0.00  0.00    +0.000 A 
ATOM     30  F   UNL     1       5.225   3.138  17.232  0.00  0.00    +0.000 F 
ATOM     31  C   UNL     1       3.906   5.101  17.694  0.00  0.00    +0.000 A 
BRANCH  22  33
ATOM     32  C   UNL     1       3.667   2.717  19.838  0.00  0.00    +0.000 C 
ATOM     33  C   UNL     1       2.541   3.287  18.950  0.00  0.00    +0.000 C 
ATOM     34  C   UNL     1       2.307   2.388  17.718  0.00  0.00    +0.000 C 
BRANCH  33  35
ATOM     35  C   UNL     1       1.226   3.237  19.806  0.00  0.00    +0.000 C 
BRANCH  35  36
ATOM     36  O   UNL     1       0.192   2.453  19.213  0.00  0.00    +0.000 OA
ATOM     37  H   UNL     1       0.612   1.790  18.638  0.00  0.00    +0.000 HD
ENDBRANCH  35  36
ENDBRANCH  33  35
ENDBRANCH  22  33
ENDBRANCH  20  24
ENDBRANCH   1  20
TORSDOF 9
ENDMDL
MODEL 3
REMARK VINA RESULT:      -7.8      3.055      9.616
REMARK  Name = 
REMARK  11 active torsions:
REMARK  status: ('A' for Active; 'I' for Inactive)
REMARK    1  A    between atoms: C_1  and  C_2
REMARK    2  A    between atoms: C_2  and  C_3
REMARK    3  A    between atoms: C_2  and  C_4
REMARK    4  A    between atoms: C_2  and  N_6
REMARK    5  A    between atoms: C_4  and  O_5
REMARK    6  A    between atoms: C_8  and  C_9
REMARK    7  A    between atoms: C_9  and  C_11
REMARK    8  A    between atoms: C_15  and  N_16
REMARK    9  A    between atoms: C_17  and  C_19
REMARK   10  A    between atoms: C_19  and  N_20
REMARK   11  A    between atoms: C_23  and  C_24
REMARK                            x       y       z     vdW  Elec       q    Type
REMARK                         _______ _______ _______ _____ _____    ______ ____
ROOT
ATOM      1  C   UNL     1       0.012  10.570  20.331  0.00  0.00    +0.000 A 
ATOM      2  C   UNL     1      -0.437  10.013  21.520  0.00  0.00    +0.000 A 
ATOM      3  N   UNL     1       0.026   8.852  22.025  0.00  0.00    +0.000 NA
ATOM      4  C   UNL     1       0.947   8.189  21.283  0.00  0.00    +0.000 A 
ATOM      5  C   UNL     1       1.441   8.627  20.057  0.00  0.00    +0.000 A 
ATOM      6  C   UNL     1       0.968   9.860  19.586  0.00  0.00    +0.000 A 
ENDROOT
BRANCH   5   7
ATOM      7  N   UNL     1       2.364   7.907  19.266  0.00  0.00    +0.000 N 
ATOM      8  C   UNL     1       2.686   8.176  17.940  0.00  0.00    +0.000 C 
ATOM      9  O   UNL     1       2.179   9.065  17.257  0.00  0.00    +0.000 OA
ATOM     10  H   UNL     1       2.822   7.104  19.700  0.00  0.00    +0.000 HD
BRANCH   8  11
ATOM     11  C   UNL     1       3.758   7.291  17.353  0.00  0.00    +0.000 C 
BRANCH  11  12
ATOM     12  N   UNL     1       3.604   5.933  17.821  0.00  0.00    +0.000 N 
ATOM     13  C   UNL     1       4.606   5.095  18.203  0.00  0.00    +0.000 A 
ATOM     14  C   UNL     1       4.009   3.893  18.493  0.00  0.00    +0.000 A 
ATOM     15  C   UNL     1       2.636   4.107  18.254  0.00  0.00    +0.000 A 
ATOM     16  N   UNL     1       2.376   5.363  17.872  0.00  0.00    +0.000 NA
BRANCH  15  17
ATOM     17  C   UNL     1       1.628   2.974  18.362  0.00  0.00    +0.000 C 
ATOM     18  C   UNL     1       1.737   1.902  19.422  0.00  0.00    +0.000 C 
ATOM     19  C   UNL     1       0.707   2.968  19.566  0.00  0.00    +0.000 C 
ENDBRANCH  15  17
ENDBRANCH  11  12
ENDBRANCH   8  11
ENDBRANCH   5   7
BRANCH   1  20
ATOM     20  C   UNL     1      -0.561  11.842  19.818  0.00  0.00    +0.000 C 
ATOM     21  O   UNL     1       0.195  12.798  19.654  0.00  0.00    +0.000 OA
BRANCH  20  24
ATOM     22  N   UNL     1      -4.212  12.301  19.700  0.00  0.00    +0.000 N 
ATOM     23  C   UNL     1      -2.992  12.343  20.344  0.00  0.00    +0.000 A 
ATOM     24  C   UNL     1      -1.986  11.922  19.496  0.00  0.00    +0.000 A 
ATOM     25  C   UNL     1      -2.615  11.619  18.254  0.00  0.00    +0.000 A 
ATOM     26  C   UNL     1      -2.114  11.164  17.019  0.00  0.00    +0.000 A 
ATOM     27  N   UNL     1      -2.941  10.914  15.979  0.00  0.00    +0.000 NA
ATOM     28  C   UNL     1      -4.264  11.108  16.151  0.00  0.00    +0.000 A 
ATOM     29  C   UNL     1      -4.851  11.551  17.328  0.00  0.00    +0.000 A 
ATOM     30  F   UNL     1      -6.178  11.693  17.382  0.00  0.00    +0.000 F 
ATOM     31  C   UNL     1      -4.001  11.825  18.407  0.00  0.00    +0.000 A 
BRANCH  22  33
ATOM     32  C   UNL     1      -6.527  11.601  20.324  0.00  0.00    +0.000 C 
ATOM     33  C   UNL     1      -5.496  12.748  20.316  0.00  0.00    +0.000 C 
ATOM     34  C   UNL     1      -6.048  13.975  19.559  0.00  0.00    +0.000 C 
BRANCH  33  35
ATOM     35  C   UNL     1      -5.299  13.187  21.810  0.00  0.00    +0.000 C 
BRANCH  35  36
ATOM     36  O   UNL     1      -6.000  12.364  22.740  0.00  0.00    +0.000 OA
ATOM     37  H   UNL     1      -6.725  12.890  23.119  0.00  0.00    +0.000 HD
ENDBRANCH  35  36
ENDBRANCH  33  35
ENDBRANCH  22  33
ENDBRANCH  20  24
ENDBRANCH   1  20
TORSDOF 9
ENDMDL
MODEL 4
REMARK VINA RESULT:      -7.7      1.784      2.774
REMARK  Name = 
REMARK  11 active torsions:
REMARK  status: ('A' for Active; 'I' for Inactive)
REMARK    1  A    between atoms: C_1  and  C_2
REMARK    2  A    between atoms: C_2  and  C_3
REMARK    3  A    between atoms: C_2  and  C_4
REMARK    4  A    between atoms: C_2  and  N_6
REMARK    5  A    between atoms: C_4  and  O_5
REMARK    6  A    between atoms: C_8  and  C_9
REMARK    7  A    between atoms: C_9  and  C_11
REMARK    8  A    between atoms: C_15  and  N_16
REMARK    9  A    between atoms: C_17  and  C_19
REMARK   10  A    between atoms: C_19  and  N_20
REMARK   11  A    between atoms: C_23  and  C_24
REMARK                            x       y       z     vdW  Elec       q    Type
REMARK                         _______ _______ _______ _____ _____    ______ ____
ROOT
ATOM      1  C   UNL     1       1.637   8.580  19.390  0.00  0.00    +0.000 A 
ATOM      2  C   UNL     1       1.863   7.667  20.411  0.00  0.00    +0.000 A 
ATOM      3  N   UNL     1       1.371   7.801  21.658  0.00  0.00    +0.000 NA
ATOM      4  C   UNL     1       0.659   8.927  21.915  0.00  0.00    +0.000 A 
ATOM      5  C   UNL     1       0.404   9.931  20.985  0.00  0.00    +0.000 A 
ATOM      6  C   UNL     1       0.895   9.735  19.687  0.00  0.00    +0.000 A 
ENDROOT
BRANCH   5   7
ATOM      7  N   UNL     1      -0.297  11.125  21.272  0.00  0.00    +0.000 N 
ATOM      8  C   UNL     1      -0.945  11.423  22.466  0.00  0.00    +0.000 C 
ATOM      9  O   UNL     1      -1.029  10.666  23.432  0.00  0.00    +0.000 OA
ATOM     10  H   UNL     1      -0.349  11.824  20.529  0.00  0.00    +0.000 HD
BRANCH   8  11
ATOM     11  C   UNL     1      -1.557  12.801  22.530  0.00  0.00    +0.000 C 
BRANCH  11  12
ATOM     12  N   UNL     1      -2.907  12.779  22.017  0.00  0.00    +0.000 N 
ATOM     13  C   UNL     1      -3.281  12.993  20.726  0.00  0.00    +0.000 A 
ATOM     14  C   UNL     1      -4.653  12.954  20.715  0.00  0.00    +0.000 A 
ATOM     15  C   UNL     1      -5.016  12.710  22.055  0.00  0.00    +0.000 A 
ATOM     16  N   UNL     1      -3.952  12.570  22.853  0.00  0.00    +0.000 NA
BRANCH  15  17
ATOM     17  C   UNL     1      -6.473  12.697  22.489  0.00  0.00    +0.000 C 
ATOM     18  C   UNL     1      -6.875  12.646  23.946  0.00  0.00    +0.000 C 
ATOM     19  C   UNL     1      -7.004  13.928  23.198  0.00  0.00    +0.000 C 
ENDBRANCH  15  17
ENDBRANCH  11  12
ENDBRANCH   8  11
ENDBRANCH   5   7
BRANCH   1  20
ATOM     20  C   UNL     1       2.233   8.383  18.043  0.00  0.00    +0.000 C 
ATOM     21  O   UNL     1       1.968   9.200  17.163  0.00  0.00    +0.000 OA
BRANCH  20  24
ATOM     22  N   UNL     1       5.023   6.058  17.439  0.00  0.00    +0.000 N 
ATOM     23  C   UNL     1       4.501   7.321  17.636  0.00  0.00    +0.000 A 
ATOM     24  C   UNL     1       3.132   7.253  17.800  0.00  0.00    +0.000 A 
ATOM     25  C   UNL     1       2.789   5.872  17.718  0.00  0.00    +0.000 A 
ATOM     26  C   UNL     1       1.563   5.187  17.822  0.00  0.00    +0.000 A 
ATOM     27  N   UNL     1       1.498   3.845  17.670  0.00  0.00    +0.000 NA
ATOM     28  C   UNL     1       2.637   3.173  17.412  0.00  0.00    +0.000 A 
ATOM     29  C   UNL     1       3.889   3.759  17.289  0.00  0.00    +0.000 A 
ATOM     30  F   UNL     1       4.947   2.989  17.017  0.00  0.00    +0.000 F 
ATOM     31  C   UNL     1       3.969   5.147  17.457  0.00  0.00    +0.000 A 
BRANCH  22  33
ATOM     32  C   UNL     1       7.309   7.066  17.444  0.00  0.00    +0.000 C 
ATOM     33  C   UNL     1       6.481   5.774  17.288  0.00  0.00    +0.000 C 
ATOM     34  C   UNL     1       6.753   5.112  15.920  0.00  0.00    +0.000 C 
BRANCH  33  35
ATOM     35  C   UNL     1       6.993   4.776  18.385  0.00  0.00    +0.000 C 
BRANCH  35  36
ATOM     36  O   UNL     1       6.786   5.241  19.718  0.00  0.00    +0.000 OA
ATOM     37  H   UNL     1       5.980   5.786  19.723  0.00  0.00    +0.000 HD
ENDBRANCH  35  36
ENDBRANCH  33  35
ENDBRANCH  22  33
ENDBRANCH  20  24
ENDBRANCH   1  20
TORSDOF 9
ENDMDL
MODEL 5
REMARK VINA RESULT:      -7.5      3.861     10.308
REMARK  Name = 
REMARK  11 active torsions:
REMARK  status: ('A' for Active; 'I' for Inactive)
REMARK    1  A    between atoms: C_1  and  C_2
REMARK    2  A    between atoms: C_2  and  C_3
REMARK    3  A    between atoms: C_2  and  C_4
REMARK    4  A    between atoms: C_2  and  N_6
REMARK    5  A    between atoms: C_4  and  O_5
REMARK    6  A    between atoms: C_8  and  C_9
REMARK    7  A    between atoms: C_9  and  C_11
REMARK    8  A    between atoms: C_15  and  N_16
REMARK    9  A    between atoms: C_17  and  C_19
REMARK   10  A    between atoms: C_19  and  N_20
REMARK   11  A    between atoms: C_23  and  C_24
REMARK                            x       y       z     vdW  Elec       q    Type
REMARK                         _______ _______ _______ _____ _____    ______ ____
ROOT
ATOM      1  C   UNL     1      -0.626  11.273  19.964  0.00  0.00    +0.000 A 
ATOM      2  C   UNL     1      -0.653  11.338  21.351  0.00  0.00    +0.000 A 
ATOM      3  N   UNL     1       0.100  10.559  22.152  0.00  0.00    +0.000 NA
ATOM      4  C   UNL     1       0.883   9.634  21.542  0.00  0.00    +0.000 A 
ATOM      5  C   UNL     1       0.961   9.447  20.165  0.00  0.00    +0.000 A 
ATOM      6  C   UNL     1       0.195  10.305  19.363  0.00  0.00    +0.000 A 
ENDROOT
BRANCH   5   7
ATOM      7  N   UNL     1       1.740   8.448  19.538  0.00  0.00    +0.000 N 
ATOM      8  C   UNL     1       2.274   8.515  18.256  0.00  0.00    +0.000 C 
ATOM      9  O   UNL     1       2.107   9.447  17.469  0.00  0.00    +0.000 OA
ATOM     10  H   UNL     1       1.912   7.592  20.067  0.00  0.00    +0.000 HD
BRANCH   8  11
ATOM     11  C   UNL     1       3.128   7.335  17.860  0.00  0.00    +0.000 C 
BRANCH  11  12
ATOM     12  N   UNL     1       2.632   6.124  18.473  0.00  0.00    +0.000 N 
ATOM     13  C   UNL     1       1.802   5.212  17.897  0.00  0.00    +0.000 A 
ATOM     14  C   UNL     1       1.535   4.276  18.864  0.00  0.00    +0.000 A 
ATOM     15  C   UNL     1       2.254   4.712  19.995  0.00  0.00    +0.000 A 
ATOM     16  N   UNL     1       2.953   5.827  19.755  0.00  0.00    +0.000 NA
BRANCH  15  17
ATOM     17  C   UNL     1       2.140   3.994  21.330  0.00  0.00    +0.000 C 
ATOM     18  C   UNL     1       1.295   2.752  21.503  0.00  0.00    +0.000 C 
ATOM     19  C   UNL     1       2.778   2.623  21.444  0.00  0.00    +0.000 C 
ENDBRANCH  15  17
ENDBRANCH  11  12
ENDBRANCH   8  11
ENDBRANCH   5   7
BRANCH   1  20
ATOM     20  C   UNL     1      -1.503  12.145  19.141  0.00  0.00    +0.000 C 
ATOM     21  O   UNL     1      -1.052  12.605  18.094  0.00  0.00    +0.000 OA
BRANCH  20  24
ATOM     22  N   UNL     1      -5.131  12.269  19.758  0.00  0.00    +0.000 N 
ATOM     23  C   UNL     1      -4.012  11.765  19.127  0.00  0.00    +0.000 A 
ATOM     24  C   UNL     1      -2.877  12.413  19.571  0.00  0.00    +0.000 A 
ATOM     25  C   UNL     1      -3.313  13.359  20.544  0.00  0.00    +0.000 A 
ATOM     26  C   UNL     1      -2.624  14.289  21.344  0.00  0.00    +0.000 A 
ATOM     27  N   UNL     1      -3.288  15.116  22.184  0.00  0.00    +0.000 NA
ATOM     28  C   UNL     1      -4.632  15.032  22.235  0.00  0.00    +0.000 A 
ATOM     29  C   UNL     1      -5.398  14.151  21.484  0.00  0.00    +0.000 A 
ATOM     30  F   UNL     1      -6.728  14.171  21.612  0.00  0.00    +0.000 F 
ATOM     31  C   UNL     1      -4.719  13.283  20.622  0.00  0.00    +0.000 A 
BRANCH  22  33
ATOM     32  C   UNL     1      -7.427  12.839  18.956  0.00  0.00    +0.000 C 
ATOM     33  C   UNL     1      -6.513  11.746  19.549  0.00  0.00    +0.000 C 
ATOM     34  C   UNL     1      -7.087  11.216  20.881  0.00  0.00    +0.000 C 
BRANCH  33  35
ATOM     35  C   UNL     1      -6.531  10.547  18.537  0.00  0.00    +0.000 C 
BRANCH  35  36
ATOM     36  O   UNL     1      -7.319   9.443  18.978  0.00  0.00    +0.000 OA
ATOM     37  H   UNL     1      -6.872   9.043  19.745  0.00  0.00    +0.000 HD
ENDBRANCH  35  36
ENDBRANCH  33  35
ENDBRANCH  22  33
ENDBRANCH  20  24
ENDBRANCH   1  20
TORSDOF 9
ENDMDL
MODEL 6
REMARK VINA RESULT:      -7.5      2.957      9.646
REMARK  Name = 
REMARK  11 active torsions:
REMARK  status: ('A' for Active; 'I' for Inactive)
REMARK    1  A    between atoms: C_1  and  C_2
REMARK    2  A    between atoms: C_2  and  C_3
REMARK    3  A    between atoms: C_2  and  C_4
REMARK    4  A    between atoms: C_2  and  N_6
REMARK    5  A    between atoms: C_4  and  O_5
REMARK    6  A    between atoms: C_8  and  C_9
REMARK    7  A    between atoms: C_9  and  C_11
REMARK    8  A    between atoms: C_15  and  N_16
REMARK    9  A    between atoms: C_17  and  C_19
REMARK   10  A    between atoms: C_19  and  N_20
REMARK   11  A    between atoms: C_23  and  C_24
REMARK                            x       y       z     vdW  Elec       q    Type
REMARK                         _______ _______ _______ _____ _____    ______ ____
ROOT
ATOM      1  C   UNL     1       1.551   9.027  19.300  0.00  0.00    +0.000 A 
ATOM      2  C   UNL     1       1.183   8.663  20.587  0.00  0.00    +0.000 A 
ATOM      3  N   UNL     1       1.401   7.441  21.111  0.00  0.00    +0.000 NA
ATOM      4  C   UNL     1       1.970   6.520  20.293  0.00  0.00    +0.000 A 
ATOM      5  C   UNL     1       2.343   6.756  18.973  0.00  0.00    +0.000 A 
ATOM      6  C   UNL     1       2.140   8.052  18.478  0.00  0.00    +0.000 A 
ENDROOT
BRANCH   5   7
ATOM      7  N   UNL     1       2.891   5.778  18.112  0.00  0.00    +0.000 N 
ATOM      8  C   UNL     1       2.576   4.424  18.111  0.00  0.00    +0.000 C 
ATOM      9  O   UNL     1       1.798   3.879  18.893  0.00  0.00    +0.000 OA
ATOM     10  H   UNL     1       3.595   6.091  17.441  0.00  0.00    +0.000 HD
BRANCH   8  11
ATOM     11  C   UNL     1       3.258   3.613  17.036  0.00  0.00    +0.000 C 
BRANCH  11  12
ATOM     12  N   UNL     1       4.623   4.053  16.861  0.00  0.00    +0.000 N 
ATOM     13  C   UNL     1       5.342   4.003  15.706  0.00  0.00    +0.000 A 
ATOM     14  C   UNL     1       6.602   4.447  16.023  0.00  0.00    +0.000 A 
ATOM     15  C   UNL     1       6.543   4.743  17.400  0.00  0.00    +0.000 A 
ATOM     16  N   UNL     1       5.326   4.534  17.914  0.00  0.00    +0.000 NA
BRANCH  15  17
ATOM     17  C   UNL     1       7.782   5.173  18.169  0.00  0.00    +0.000 C 
ATOM     18  C   UNL     1       8.029   6.615  18.550  0.00  0.00    +0.000 C 
ATOM     19  C   UNL     1       7.590   5.650  19.596  0.00  0.00    +0.000 C 
ENDBRANCH  15  17
ENDBRANCH  11  12
ENDBRANCH   8  11
ENDBRANCH   5   7
BRANCH   1  20
ATOM     20  C   UNL     1       1.257  10.387  18.776  0.00  0.00    +0.000 C 
ATOM     21  O   UNL     1       2.048  10.890  17.981  0.00  0.00    +0.000 OA
BRANCH  20  24
ATOM     22  N   UNL     1      -1.382  12.431  20.330  0.00  0.00    +0.000 N 
ATOM     23  C   UNL     1      -0.086  11.963  20.242  0.00  0.00    +0.000 A 
ATOM     24  C   UNL     1       0.035  11.078  19.189  0.00  0.00    +0.000 A 
ATOM     25  C   UNL     1      -1.252  11.007  18.580  0.00  0.00    +0.000 A 
ATOM     26  C   UNL     1      -1.742  10.293  17.471  0.00  0.00    +0.000 A 
ATOM     27  N   UNL     1      -3.043  10.372  17.108  0.00  0.00    +0.000 NA
ATOM     28  C   UNL     1      -3.865  11.152  17.837  0.00  0.00    +0.000 A 
ATOM     29  C   UNL     1      -3.476  11.891  18.946  0.00  0.00    +0.000 A 
ATOM     30  F   UNL     1      -4.387  12.619  19.598  0.00  0.00    +0.000 F 
ATOM     31  C   UNL     1      -2.129  11.825  19.322  0.00  0.00    +0.000 A 
BRANCH  22  33
ATOM     32  C   UNL     1      -2.918  12.863  22.252  0.00  0.00    +0.000 C 
ATOM     33  C   UNL     1      -1.835  13.449  21.323  0.00  0.00    +0.000 C 
ATOM     34  C   UNL     1      -2.360  14.705  20.593  0.00  0.00    +0.000 C 
BRANCH  33  35
ATOM     35  C   UNL     1      -0.657  13.921  22.247  0.00  0.00    +0.000 C 
BRANCH  35  36
ATOM     36  O   UNL     1      -0.580  13.205  23.479  0.00  0.00    +0.000 OA
ATOM     37  H   UNL     1      -0.207  13.803  24.150  0.00  0.00    +0.000 HD
ENDBRANCH  35  36
ENDBRANCH  33  35
ENDBRANCH  22  33
ENDBRANCH  20  24
ENDBRANCH   1  20
TORSDOF 9
ENDMDL
MODEL 7
REMARK VINA RESULT:      -7.5      3.570      9.896
REMARK  Name = 
REMARK  11 active torsions:
REMARK  status: ('A' for Active; 'I' for Inactive)
REMARK    1  A    between atoms: C_1  and  C_2
REMARK    2  A    between atoms: C_2  and  C_3
REMARK    3  A    between atoms: C_2  and  C_4
REMARK    4  A    between atoms: C_2  and  N_6
REMARK    5  A    between atoms: C_4  and  O_5
REMARK    6  A    between atoms: C_8  and  C_9
REMARK    7  A    between atoms: C_9  and  C_11
REMARK    8  A    between atoms: C_15  and  N_16
REMARK    9  A    between atoms: C_17  and  C_19
REMARK   10  A    between atoms: C_19  and  N_20
REMARK   11  A    between atoms: C_23  and  C_24
REMARK                            x       y       z     vdW  Elec       q    Type
REMARK                         _______ _______ _______ _____ _____    ______ ____
ROOT
ATOM      1  C   UNL     1      -0.787  11.501  21.609  0.00  0.00    +0.000 A 
ATOM      2  C   UNL     1      -0.991  11.058  22.909  0.00  0.00    +0.000 A 
ATOM      3  N   UNL     1      -0.363   9.993  23.444  0.00  0.00    +0.000 NA
ATOM      4  C   UNL     1       0.473   9.304  22.628  0.00  0.00    +0.000 A 
ATOM      5  C   UNL     1       0.725   9.628  21.298  0.00  0.00    +0.000 A 
ATOM      6  C   UNL     1       0.087  10.768  20.789  0.00  0.00    +0.000 A 
ENDROOT
BRANCH   5   7
ATOM      7  N   UNL     1       1.560   8.878  20.438  0.00  0.00    +0.000 N 
ATOM      8  C   UNL     1       1.506   8.872  19.049  0.00  0.00    +0.000 C 
ATOM      9  O   UNL     1       0.690   9.497  18.371  0.00  0.00    +0.000 OA
ATOM     10  H   UNL     1       2.254   8.271  20.877  0.00  0.00    +0.000 HD
BRANCH   8  11
ATOM     11  C   UNL     1       2.562   8.031  18.375  0.00  0.00    +0.000 C 
BRANCH  11  12
ATOM     12  N   UNL     1       2.384   6.636  18.704  0.00  0.00    +0.000 N 
ATOM     13  C   UNL     1       2.109   5.632  17.827  0.00  0.00    +0.000 A 
ATOM     14  C   UNL     1       1.947   4.498  18.584  0.00  0.00    +0.000 A 
ATOM     15  C   UNL     1       2.146   4.923  19.914  0.00  0.00    +0.000 A 
ATOM     16  N   UNL     1       2.444   6.225  19.993  0.00  0.00    +0.000 NA
BRANCH  15  17
ATOM     17  C   UNL     1       1.950   3.974  21.085  0.00  0.00    +0.000 C 
ATOM     18  C   UNL     1       1.467   2.554  20.894  0.00  0.00    +0.000 C 
ATOM     19  C   UNL     1       2.903   2.800  21.203  0.00  0.00    +0.000 C 
ENDBRANCH  15  17
ENDBRANCH  11  12
ENDBRANCH   8  11
ENDBRANCH   5   7
BRANCH   1  20
ATOM     20  C   UNL     1      -1.533  12.669  21.074  0.00  0.00    +0.000 C 
ATOM     21  O   UNL     1      -0.977  13.766  21.072  0.00  0.00    +0.000 OA
BRANCH  20  24
ATOM     22  N   UNL     1      -5.146  12.420  20.411  0.00  0.00    +0.000 N 
ATOM     23  C   UNL     1      -4.065  12.663  21.235  0.00  0.00    +0.000 A 
ATOM     24  C   UNL     1      -2.884  12.490  20.541  0.00  0.00    +0.000 A 
ATOM     25  C   UNL     1      -3.253  12.137  19.210  0.00  0.00    +0.000 A 
ATOM     26  C   UNL     1      -2.499  11.852  18.056  0.00  0.00    +0.000 A 
ATOM     27  N   UNL     1      -3.101  11.502  16.897  0.00  0.00    +0.000 NA
ATOM     28  C   UNL     1      -4.446  11.428  16.870  0.00  0.00    +0.000 A 
ATOM     29  C   UNL     1      -5.273  11.687  17.954  0.00  0.00    +0.000 A 
ATOM     30  F   UNL     1      -6.596  11.567  17.809  0.00  0.00    +0.000 F 
ATOM     31  C   UNL     1      -4.660  12.062  19.156  0.00  0.00    +0.000 A 
BRANCH  22  33
ATOM     32  C   UNL     1      -7.334  11.246  20.688  0.00  0.00    +0.000 C 
ATOM     33  C   UNL     1      -6.569  12.578  20.835  0.00  0.00    +0.000 C 
ATOM     34  C   UNL     1      -7.247  13.693  20.010  0.00  0.00    +0.000 C 
BRANCH  33  35
ATOM     35  C   UNL     1      -6.681  12.997  22.343  0.00  0.00    +0.000 C 
BRANCH  35  36
ATOM     36  O   UNL     1      -6.897  11.896  23.224  0.00  0.00    +0.000 OA
ATOM     37  H   UNL     1      -6.761  11.076  22.718  0.00  0.00    +0.000 HD
ENDBRANCH  35  36
ENDBRANCH  33  35
ENDBRANCH  22  33
ENDBRANCH  20  24
ENDBRANCH   1  20
TORSDOF 9
ENDMDL
MODEL 8
REMARK VINA RESULT:      -7.5      2.296      3.993
REMARK  Name = 
REMARK  11 active torsions:
REMARK  status: ('A' for Active; 'I' for Inactive)
REMARK    1  A    between atoms: C_1  and  C_2
REMARK    2  A    between atoms: C_2  and  C_3
REMARK    3  A    between atoms: C_2  and  C_4
REMARK    4  A    between atoms: C_2  and  N_6
REMARK    5  A    between atoms: C_4  and  O_5
REMARK    6  A    between atoms: C_8  and  C_9
REMARK    7  A    between atoms: C_9  and  C_11
REMARK    8  A    between atoms: C_15  and  N_16
REMARK    9  A    between atoms: C_17  and  C_19
REMARK   10  A    between atoms: C_19  and  N_20
REMARK   11  A    between atoms: C_23  and  C_24
REMARK                            x       y       z     vdW  Elec       q    Type
REMARK                         _______ _______ _______ _____ _____    ______ ____
ROOT
ATOM      1  C   UNL     1       1.264   8.950  18.993  0.00  0.00    +0.000 A 
ATOM      2  C   UNL     1       1.464   8.900  20.366  0.00  0.00    +0.000 A 
ATOM      3  N   UNL     1       0.638   9.470  21.265  0.00  0.00    +0.000 NA
ATOM      4  C   UNL     1      -0.413  10.169  20.769  0.00  0.00    +0.000 A 
ATOM      5  C   UNL     1      -0.693  10.325  19.414  0.00  0.00    +0.000 A 
ATOM      6  C   UNL     1       0.165   9.680  18.511  0.00  0.00    +0.000 A 
ENDROOT
BRANCH   5   7
ATOM      7  N   UNL     1      -1.762  11.095  18.904  0.00  0.00    +0.000 N 
ATOM      8  C   UNL     1      -2.830  10.612  18.155  0.00  0.00    +0.000 C 
ATOM      9  O   UNL     1      -2.972   9.442  17.800  0.00  0.00    +0.000 OA
ATOM     10  H   UNL     1      -1.739  12.099  19.084  0.00  0.00    +0.000 HD
BRANCH   8  11
ATOM     11  C   UNL     1      -3.871  11.643  17.795  0.00  0.00    +0.000 C 
BRANCH  11  12
ATOM     12  N   UNL     1      -4.702  11.943  18.938  0.00  0.00    +0.000 N 
ATOM     13  C   UNL     1      -6.000  11.572  19.109  0.00  0.00    +0.000 A 
ATOM     14  C   UNL     1      -6.406  12.138  20.292  0.00  0.00    +0.000 A 
ATOM     15  C   UNL     1      -5.275  12.836  20.763  0.00  0.00    +0.000 A 
ATOM     16  N   UNL     1      -4.218  12.696  19.955  0.00  0.00    +0.000 NA
BRANCH  15  17
ATOM     17  C   UNL     1      -5.342  13.695  22.015  0.00  0.00    +0.000 C 
ATOM     18  C   UNL     1      -6.519  13.643  22.962  0.00  0.00    +0.000 C 
ATOM     19  C   UNL     1      -5.239  12.991  23.354  0.00  0.00    +0.000 C 
ENDBRANCH  15  17
ENDBRANCH  11  12
ENDBRANCH   8  11
ENDBRANCH   5   7
BRANCH   1  20
ATOM     20  C   UNL     1       2.229   8.320  18.056  0.00  0.00    +0.000 C 
ATOM     21  O   UNL     1       2.700   9.010  17.153  0.00  0.00    +0.000 OA
BRANCH  20  24
ATOM     22  N   UNL     1       2.589   4.761  18.926  0.00  0.00    +0.000 N 
ATOM     23  C   UNL     1       1.942   5.979  18.990  0.00  0.00    +0.000 A 
ATOM     24  C   UNL     1       2.617   6.921  18.239  0.00  0.00    +0.000 A 
ATOM     25  C   UNL     1       3.733   6.246  17.664  0.00  0.00    +0.000 A 
ATOM     26  C   UNL     1       4.763   6.671  16.804  0.00  0.00    +0.000 A 
ATOM     27  N   UNL     1       5.747   5.826  16.422  0.00  0.00    +0.000 NA
ATOM     28  C   UNL     1       5.721   4.561  16.886  0.00  0.00    +0.000 A 
ATOM     29  C   UNL     1       4.751   4.051  17.738  0.00  0.00    +0.000 A 
ATOM     30  F   UNL     1       4.841   2.781  18.142  0.00  0.00    +0.000 F 
ATOM     31  C   UNL     1       3.722   4.916  18.130  0.00  0.00    +0.000 A 
BRANCH  22  33
ATOM     32  C   UNL     1       1.858   2.405  18.531  0.00  0.00    +0.000 C 
ATOM     33  C   UNL     1       2.087   3.516  19.578  0.00  0.00    +0.000 C 
ATOM     34  C   UNL     1       0.787   3.811  20.356  0.00  0.00    +0.000 C 
BRANCH  33  35
ATOM     35  C   UNL     1       3.119   2.949  20.616  0.00  0.00    +0.000 C 
BRANCH  35  36
ATOM     36  O   UNL     1       2.533   2.606  21.870  0.00  0.00    +0.000 OA
ATOM     37  H   UNL     1       2.496   1.635  21.928  0.00  0.00    +0.000 HD
ENDBRANCH  35  36
ENDBRANCH  33  35
ENDBRANCH  22  33
ENDBRANCH  20  24
ENDBRANCH   1  20
TORSDOF 9
ENDMDL
MODEL 9
REMARK VINA RESULT:      -7.5      1.854      2.919
REMARK  Name = 
REMARK  11 active torsions:
REMARK  status: ('A' for Active; 'I' for Inactive)
REMARK    1  A    between atoms: C_1  and  C_2
REMARK    2  A    between atoms: C_2  and  C_3
REMARK    3  A    between atoms: C_2  and  C_4
REMARK    4  A    between atoms: C_2  and  N_6
REMARK    5  A    between atoms: C_4  and  O_5
REMARK    6  A    between atoms: C_8  and  C_9
REMARK    7  A    between atoms: C_9  and  C_11
REMARK    8  A    between atoms: C_15  and  N_16
REMARK    9  A    between atoms: C_17  and  C_19
REMARK   10  A    between atoms: C_19  and  N_20
REMARK   11  A    between atoms: C_23  and  C_24
REMARK                            x       y       z     vdW  Elec       q    Type
REMARK                         _______ _______ _______ _____ _____    ______ ____
ROOT
ATOM      1  C   UNL     1       1.545   8.723  19.209  0.00  0.00    +0.000 A 
ATOM      2  C   UNL     1       1.835   7.933  20.313  0.00  0.00    +0.000 A 
ATOM      3  N   UNL     1       1.214   8.052  21.503  0.00  0.00    +0.000 NA
ATOM      4  C   UNL     1       0.293   9.042  21.614  0.00  0.00    +0.000 A 
ATOM      5  C   UNL     1      -0.051   9.922  20.592  0.00  0.00    +0.000 A 
ATOM      6  C   UNL     1       0.585   9.738  19.356  0.00  0.00    +0.000 A 
ENDROOT
BRANCH   5   7
ATOM      7  N   UNL     1      -0.976  10.982  20.729  0.00  0.00    +0.000 N 
ATOM      8  C   UNL     1      -0.713  12.225  21.295  0.00  0.00    +0.000 C 
ATOM      9  O   UNL     1       0.361  12.562  21.792  0.00  0.00    +0.000 OA
ATOM     10  H   UNL     1      -1.928  10.814  20.401  0.00  0.00    +0.000 HD
BRANCH   8  11
ATOM     11  C   UNL     1      -1.865  13.198  21.251  0.00  0.00    +0.000 C 
BRANCH  11  12
ATOM     12  N   UNL     1      -2.782  12.947  22.339  0.00  0.00    +0.000 N 
ATOM     13  C   UNL     1      -2.551  12.148  23.417  0.00  0.00    +0.000 A 
ATOM     14  C   UNL     1      -3.715  12.143  24.144  0.00  0.00    +0.000 A 
ATOM     15  C   UNL     1      -4.595  12.973  23.419  0.00  0.00    +0.000 A 
ATOM     16  N   UNL     1      -4.021  13.494  22.329  0.00  0.00    +0.000 NA
BRANCH  15  17
ATOM     17  C   UNL     1      -6.044  13.150  23.843  0.00  0.00    +0.000 C 
ATOM     18  C   UNL     1      -7.001  14.036  23.079  0.00  0.00    +0.000 C 
ATOM     19  C   UNL     1      -7.114  12.557  22.946  0.00  0.00    +0.000 C 
ENDBRANCH  15  17
ENDBRANCH  11  12
ENDBRANCH   8  11
ENDBRANCH   5   7
BRANCH   1  20
ATOM     20  C   UNL     1       2.287   8.555  17.933  0.00  0.00    +0.000 C 
ATOM     21  O   UNL     1       2.170   9.425  17.072  0.00  0.00    +0.000 OA
BRANCH  20  24
ATOM     22  N   UNL     1       5.005   6.126  17.424  0.00  0.00    +0.000 N 
ATOM     23  C   UNL     1       4.520   7.411  17.563  0.00  0.00    +0.000 A 
ATOM     24  C   UNL     1       3.151   7.390  17.739  0.00  0.00    +0.000 A 
ATOM     25  C   UNL     1       2.768   6.017  17.725  0.00  0.00    +0.000 A 
ATOM     26  C   UNL     1       1.525   5.374  17.869  0.00  0.00    +0.000 A 
ATOM     27  N   UNL     1       1.420   4.028  17.781  0.00  0.00    +0.000 NA
ATOM     28  C   UNL     1       2.538   3.313  17.549  0.00  0.00    +0.000 A 
ATOM     29  C   UNL     1       3.805   3.856  17.390  0.00  0.00    +0.000 A 
ATOM     30  F   UNL     1       4.838   3.043  17.149  0.00  0.00    +0.000 F 
ATOM     31  C   UNL     1       3.926   5.247  17.492  0.00  0.00    +0.000 A 
BRANCH  22  33
ATOM     32  C   UNL     1       7.325   7.050  17.470  0.00  0.00    +0.000 C 
ATOM     33  C   UNL     1       6.453   5.792  17.277  0.00  0.00    +0.000 C 
ATOM     34  C   UNL     1       6.713   5.153  15.896  0.00  0.00    +0.000 C 
BRANCH  33  35
ATOM     35  C   UNL     1       6.919   4.752  18.355  0.00  0.00    +0.000 C 
BRANCH  35  36
ATOM     36  O   UNL     1       8.062   3.996  17.958  0.00  0.00    +0.000 OA
ATOM     37  H   UNL     1       8.755   4.621  17.685  0.00  0.00    +0.000 HD
ENDBRANCH  35  36
ENDBRANCH  33  35
ENDBRANCH  22  33
ENDBRANCH  20  24
ENDBRANCH   1  20
TORSDOF 9
ENDMDL
