MODEL 1
REMARK VINA RESULT:      -8.2      0.000      0.000
REMARK  Name = 
REMARK  1 active torsions:
REMARK  status: ('A' for Active; 'I' for Inactive)
REMARK    1  A    between atoms: N_8  and  C_9
REMARK                            x       y       z     vdW  Elec       q    Type
REMARK                         _______ _______ _______ _____ _____    ______ ____
ROOT
ATOM      1  O   UNL     1       7.819   5.180  14.404  0.00  0.00    +0.000 OA
ATOM      2  C   UNL     1       7.191   5.191  15.457  0.00  0.00    +0.000 C 
ATOM      3  C   UNL     1       6.365   3.996  15.961  0.00  0.00    +0.000 C 
ATOM      4  O   UNL     1       5.912   3.989  17.312  0.00  0.00    +0.000 OA
ATOM      5  C   UNL     1       5.515   5.289  17.801  0.00  0.00    +0.000 C 
ATOM      6  C   UNL     1       4.246   5.773  17.061  0.00  0.00    +0.000 C 
ATOM      7  C   UNL     1       2.931   5.284  17.670  0.00  0.00    +0.000 C 
ATOM      8  N   UNL     1       2.861   5.363  19.129  0.00  0.00    +0.000 NA
ATOM      9  C   UNL     1       3.961   4.596  19.709  0.00  0.00    +0.000 C 
ATOM     10  C   UNL     1       5.330   5.131  19.325  0.00  0.00    +0.000 C 
ATOM     11  C   UNL     1       6.694   6.271  17.592  0.00  0.00    +0.000 C 
ATOM     12  N   UNL     1       7.133   6.331  16.220  0.00  0.00    +0.000 N 
ATOM     13  H   UNL     1       7.747   7.073  15.914  0.00  0.00    +0.000 HD
ENDROOT
BRANCH   8  14
ATOM     14  C   UNL     1       2.508   6.690  19.699  0.00  0.00    +0.000 C 
ATOM     15  C   UNL     1       1.458   6.731  20.824  0.00  0.00    +0.000 C 
ATOM     16  C   UNL     1       1.388   8.111  21.461  0.00  0.00    +0.000 C 
ATOM     17  C   UNL     1       1.082   9.163  20.443  0.00  0.00    +0.000 A 
ATOM     18  C   UNL     1       0.391  10.316  20.839  0.00  0.00    +0.000 A 
ATOM     19  C   UNL     1       0.079  11.300  19.908  0.00  0.00    +0.000 A 
ATOM     20  C   UNL     1       0.476  11.152  18.581  0.00  0.00    +0.000 A 
ATOM     21  C   UNL     1       1.180  10.018  18.183  0.00  0.00    +0.000 A 
ATOM     22  C   UNL     1       1.488   9.008  19.107  0.00  0.00    +0.000 A 
ATOM     23  C   UNL     1       2.132   7.731  18.607  0.00  0.00    +0.000 C 
ENDBRANCH   8  14
TORSDOF 1
ENDMDL
MODEL 2
REMARK VINA RESULT:      -7.9      3.212      4.864
REMARK  Name = 
REMARK  1 active torsions:
REMARK  status: ('A' for Active; 'I' for Inactive)
REMARK    1  A    between atoms: N_8  and  C_9
REMARK                            x       y       z     vdW  Elec       q    Type
REMARK                         _______ _______ _______ _____ _____    ______ ____
ROOT
ATOM      1  O   UNL     1       7.380   3.335  11.644  0.00  0.00    +0.000 OA
ATOM      2  C   UNL     1       6.959   3.893  12.651  0.00  0.00    +0.000 C 
ATOM      3  C   UNL     1       7.654   5.100  13.301  0.00  0.00    +0.000 C 
ATOM      4  O   UNL     1       6.950   5.856  14.283  0.00  0.00    +0.000 OA
ATOM      5  C   UNL     1       6.119   5.056  15.151  0.00  0.00    +0.000 C 
ATOM      6  C   UNL     1       6.999   4.148  16.044  0.00  0.00    +0.000 C 
ATOM      7  C   UNL     1       7.487   4.811  17.334  0.00  0.00    +0.000 C 
ATOM      8  N   UNL     1       6.475   5.585  18.051  0.00  0.00    +0.000 NA
ATOM      9  C   UNL     1       5.940   6.617  17.168  0.00  0.00    +0.000 C 
ATOM     10  C   UNL     1       5.244   6.053  15.940  0.00  0.00    +0.000 C 
ATOM     11  C   UNL     1       5.160   4.215  14.273  0.00  0.00    +0.000 C 
ATOM     12  N   UNL     1       5.857   3.403  13.307  0.00  0.00    +0.000 N 
ATOM     13  H   UNL     1       5.371   2.664  12.819  0.00  0.00    +0.000 HD
ENDROOT
BRANCH   8  14
ATOM     14  C   UNL     1       5.553   4.812  18.923  0.00  0.00    +0.000 C 
ATOM     15  C   UNL     1       5.241   3.358  18.527  0.00  0.00    +0.000 C 
ATOM     16  C   UNL     1       4.489   2.634  19.634  0.00  0.00    +0.000 C 
ATOM     17  C   UNL     1       3.222   3.347  19.985  0.00  0.00    +0.000 A 
ATOM     18  C   UNL     1       2.137   2.609  20.474  0.00  0.00    +0.000 A 
ATOM     19  C   UNL     1       0.941   3.247  20.790  0.00  0.00    +0.000 A 
ATOM     20  C   UNL     1       0.831   4.627  20.644  0.00  0.00    +0.000 A 
ATOM     21  C   UNL     1       1.912   5.371  20.176  0.00  0.00    +0.000 A 
ATOM     22  C   UNL     1       3.119   4.740  19.838  0.00  0.00    +0.000 A 
ATOM     23  C   UNL     1       4.222   5.564  19.204  0.00  0.00    +0.000 C 
ENDBRANCH   8  14
TORSDOF 1
ENDMDL
MODEL 3
REMARK VINA RESULT:      -7.5      1.493      2.064
REMARK  Name = 
REMARK  1 active torsions:
REMARK  status: ('A' for Active; 'I' for Inactive)
REMARK    1  A    between atoms: N_8  and  C_9
REMARK                            x       y       z     vdW  Elec       q    Type
REMARK                         _______ _______ _______ _____ _____    ______ ____
ROOT
ATOM      1  O   UNL     1       8.502   4.196  17.538  0.00  0.00    +0.000 OA
ATOM      2  C   UNL     1       7.328   4.446  17.788  0.00  0.00    +0.000 C 
ATOM      3  C   UNL     1       6.208   4.384  16.736  0.00  0.00    +0.000 C 
ATOM      4  O   UNL     1       4.851   4.405  17.169  0.00  0.00    +0.000 OA
ATOM      5  C   UNL     1       4.613   5.267  18.302  0.00  0.00    +0.000 C 
ATOM      6  C   UNL     1       4.823   6.747  17.901  0.00  0.00    +0.000 C 
ATOM      7  C   UNL     1       3.591   7.419  17.292  0.00  0.00    +0.000 C 
ATOM      8  N   UNL     1       2.333   7.142  17.984  0.00  0.00    +0.000 NA
ATOM      9  C   UNL     1       2.109   5.699  18.022  0.00  0.00    +0.000 C 
ATOM     10  C   UNL     1       3.184   4.947  18.788  0.00  0.00    +0.000 C 
ATOM     11  C   UNL     1       5.577   4.856  19.443  0.00  0.00    +0.000 C 
ATOM     12  N   UNL     1       6.961   4.879  19.038  0.00  0.00    +0.000 N 
ATOM     13  H   UNL     1       7.694   4.833  19.731  0.00  0.00    +0.000 HD
ENDROOT
BRANCH   8  14
ATOM     14  C   UNL     1       2.052   7.961  19.191  0.00  0.00    +0.000 C 
ATOM     15  C   UNL     1       1.536   7.236  20.447  0.00  0.00    +0.000 C 
ATOM     16  C   UNL     1       1.531   8.161  21.655  0.00  0.00    +0.000 C 
ATOM     17  C   UNL     1       0.705   9.382  21.399  0.00  0.00    +0.000 A 
ATOM     18  C   UNL     1       0.073  10.016  22.476  0.00  0.00    +0.000 A 
ATOM     19  C   UNL     1      -0.715  11.142  22.263  0.00  0.00    +0.000 A 
ATOM     20  C   UNL     1      -0.857  11.656  20.976  0.00  0.00    +0.000 A 
ATOM     21  C   UNL     1      -0.216  11.042  19.902  0.00  0.00    +0.000 A 
ATOM     22  C   UNL     1       0.569   9.896  20.099  0.00  0.00    +0.000 A 
ATOM     23  C   UNL     1       1.135   9.180  18.890  0.00  0.00    +0.000 C 
ENDBRANCH   8  14
TORSDOF 1
ENDMDL
MODEL 4
REMARK VINA RESULT:      -7.4      1.125      1.245
REMARK  Name = 
REMARK  1 active torsions:
REMARK  status: ('A' for Active; 'I' for Inactive)
REMARK    1  A    between atoms: N_8  and  C_9
REMARK                            x       y       z     vdW  Elec       q    Type
REMARK                         _______ _______ _______ _____ _____    ______ ____
ROOT
ATOM      1  O   UNL     1       7.075   4.618  13.022  0.00  0.00    +0.000 OA
ATOM      2  C   UNL     1       6.747   4.640  14.203  0.00  0.00    +0.000 C 
ATOM      3  C   UNL     1       6.348   3.382  14.993  0.00  0.00    +0.000 C 
ATOM      4  O   UNL     1       6.263   3.456  16.413  0.00  0.00    +0.000 OA
ATOM      5  C   UNL     1       5.736   4.708  16.902  0.00  0.00    +0.000 C 
ATOM      6  C   UNL     1       4.248   4.853  16.504  0.00  0.00    +0.000 C 
ATOM      7  C   UNL     1       3.265   4.204  17.480  0.00  0.00    +0.000 C 
ATOM      8  N   UNL     1       3.549   4.447  18.894  0.00  0.00    +0.000 NA
ATOM      9  C   UNL     1       4.897   3.976  19.203  0.00  0.00    +0.000 C 
ATOM     10  C   UNL     1       5.979   4.706  18.426  0.00  0.00    +0.000 C 
ATOM     11  C   UNL     1       6.586   5.861  16.314  0.00  0.00    +0.000 C 
ATOM     12  N   UNL     1       6.641   5.834  14.873  0.00  0.00    +0.000 N 
ATOM     13  H   UNL     1       6.986   6.634  14.362  0.00  0.00    +0.000 HD
ENDROOT
BRANCH   8  14
ATOM     14  C   UNL     1       3.078   5.743  19.446  0.00  0.00    +0.000 C 
ATOM     15  C   UNL     1       1.801   5.735  20.307  0.00  0.00    +0.000 C 
ATOM     16  C   UNL     1       1.590   7.077  20.992  0.00  0.00    +0.000 C 
ATOM     17  C   UNL     1       1.522   8.190  19.994  0.00  0.00    +0.000 A 
ATOM     18  C   UNL     1       0.761   9.327  20.291  0.00  0.00    +0.000 A 
ATOM     19  C   UNL     1       0.667  10.368  19.373  0.00  0.00    +0.000 A 
ATOM     20  C   UNL     1       1.352  10.290  18.163  0.00  0.00    +0.000 A 
ATOM     21  C   UNL     1       2.128   9.170  17.868  0.00  0.00    +0.000 A 
ATOM     22  C   UNL     1       2.219   8.106  18.778  0.00  0.00    +0.000 A 
ATOM     23  C   UNL     1       2.958   6.850  18.361  0.00  0.00    +0.000 C 
ENDBRANCH   8  14
TORSDOF 1
ENDMDL
MODEL 5
REMARK VINA RESULT:      -7.3      1.073      1.901
REMARK  Name = 
REMARK  1 active torsions:
REMARK  status: ('A' for Active; 'I' for Inactive)
REMARK    1  A    between atoms: N_8  and  C_9
REMARK                            x       y       z     vdW  Elec       q    Type
REMARK                         _______ _______ _______ _____ _____    ______ ____
ROOT
ATOM      1  O   UNL     1       6.703   4.025  13.488  0.00  0.00    +0.000 OA
ATOM      2  C   UNL     1       6.319   4.435  14.577  0.00  0.00    +0.000 C 
ATOM      3  C   UNL     1       6.254   3.555  15.836  0.00  0.00    +0.000 C 
ATOM      4  O   UNL     1       6.074   4.177  17.106  0.00  0.00    +0.000 OA
ATOM      5  C   UNL     1       5.186   5.315  17.078  0.00  0.00    +0.000 C 
ATOM      6  C   UNL     1       3.742   4.857  16.760  0.00  0.00    +0.000 C 
ATOM      7  C   UNL     1       2.934   4.417  17.982  0.00  0.00    +0.000 C 
ATOM      8  N   UNL     1       3.061   5.287  19.151  0.00  0.00    +0.000 NA
ATOM      9  C   UNL     1       4.468   5.386  19.530  0.00  0.00    +0.000 C 
ATOM     10  C   UNL     1       5.337   6.007  18.449  0.00  0.00    +0.000 C 
ATOM     11  C   UNL     1       5.702   6.314  16.013  0.00  0.00    +0.000 C 
ATOM     12  N   UNL     1       5.841   5.715  14.708  0.00  0.00    +0.000 N 
ATOM     13  H   UNL     1       5.969   6.298  13.893  0.00  0.00    +0.000 HD
ENDROOT
BRANCH   8  14
ATOM     14  C   UNL     1       2.209   6.505  19.159  0.00  0.00    +0.000 C 
ATOM     15  C   UNL     1       2.692   7.723  18.351  0.00  0.00    +0.000 C 
ATOM     16  C   UNL     1       1.610   8.788  18.260  0.00  0.00    +0.000 C 
ATOM     17  C   UNL     1       1.163   9.225  19.619  0.00  0.00    +0.000 A 
ATOM     18  C   UNL     1       0.685  10.530  19.793  0.00  0.00    +0.000 A 
ATOM     19  C   UNL     1       0.281  10.967  21.050  0.00  0.00    +0.000 A 
ATOM     20  C   UNL     1       0.328  10.096  22.136  0.00  0.00    +0.000 A 
ATOM     21  C   UNL     1       0.784   8.790  21.967  0.00  0.00    +0.000 A 
ATOM     22  C   UNL     1       1.211   8.340  20.708  0.00  0.00    +0.000 A 
ATOM     23  C   UNL     1       1.827   6.961  20.596  0.00  0.00    +0.000 C 
ENDBRANCH   8  14
TORSDOF 1
ENDMDL
MODEL 6
REMARK VINA RESULT:      -7.3      3.217      5.124
REMARK  Name = 
REMARK  1 active torsions:
REMARK  status: ('A' for Active; 'I' for Inactive)
REMARK    1  A    between atoms: N_8  and  C_9
REMARK                            x       y       z     vdW  Elec       q    Type
REMARK                         _______ _______ _______ _____ _____    ______ ____
ROOT
ATOM      1  O   UNL     1       7.556   2.860  11.344  0.00  0.00    +0.000 OA
ATOM      2  C   UNL     1       7.061   3.541  12.235  0.00  0.00    +0.000 C 
ATOM      3  C   UNL     1       7.868   4.538  13.084  0.00  0.00    +0.000 C 
ATOM      4  O   UNL     1       7.170   5.485  13.888  0.00  0.00    +0.000 OA
ATOM      5  C   UNL     1       5.967   4.964  14.492  0.00  0.00    +0.000 C 
ATOM      6  C   UNL     1       6.320   3.882  15.540  0.00  0.00    +0.000 C 
ATOM      7  C   UNL     1       6.630   4.428  16.934  0.00  0.00    +0.000 C 
ATOM      8  N   UNL     1       5.716   5.467  17.407  0.00  0.00    +0.000 NA
ATOM      9  C   UNL     1       5.714   6.578  16.458  0.00  0.00    +0.000 C 
ATOM     10  C   UNL     1       5.221   6.182  15.076  0.00  0.00    +0.000 C 
ATOM     11  C   UNL     1       5.068   4.384  13.371  0.00  0.00    +0.000 C 
ATOM     12  N   UNL     1       5.741   3.385  12.578  0.00  0.00    +0.000 N 
ATOM     13  H   UNL     1       5.213   2.789  11.957  0.00  0.00    +0.000 HD
ENDROOT
BRANCH   8  14
ATOM     14  C   UNL     1       4.434   4.997  17.992  0.00  0.00    +0.000 C 
ATOM     15  C   UNL     1       3.479   6.056  18.572  0.00  0.00    +0.000 C 
ATOM     16  C   UNL     1       2.123   5.452  18.905  0.00  0.00    +0.000 C 
ATOM     17  C   UNL     1       2.258   4.312  19.865  0.00  0.00    +0.000 A 
ATOM     18  C   UNL     1       1.205   4.032  20.744  0.00  0.00    +0.000 A 
ATOM     19  C   UNL     1       1.314   2.989  21.658  0.00  0.00    +0.000 A 
ATOM     20  C   UNL     1       2.464   2.204  21.683  0.00  0.00    +0.000 A 
ATOM     21  C   UNL     1       3.509   2.465  20.797  0.00  0.00    +0.000 A 
ATOM     22  C   UNL     1       3.420   3.524  19.881  0.00  0.00    +0.000 A 
ATOM     23  C   UNL     1       4.630   3.859  19.034  0.00  0.00    +0.000 C 
ENDBRANCH   8  14
TORSDOF 1
ENDMDL
MODEL 7
REMARK VINA RESULT:      -7.2      3.850      5.297
REMARK  Name = 
REMARK  1 active torsions:
REMARK  status: ('A' for Active; 'I' for Inactive)
REMARK    1  A    between atoms: N_8  and  C_9
REMARK                            x       y       z     vdW  Elec       q    Type
REMARK                         _______ _______ _______ _____ _____    ______ ____
ROOT
ATOM      1  O   UNL     1       9.077   9.442  19.016  0.00  0.00    +0.000 OA
ATOM      2  C   UNL     1       8.568   8.439  18.530  0.00  0.00    +0.000 C 
ATOM      3  C   UNL     1       8.157   8.331  17.052  0.00  0.00    +0.000 C 
ATOM      4  O   UNL     1       7.846   7.050  16.512  0.00  0.00    +0.000 OA
ATOM      5  C   UNL     1       7.148   6.183  17.432  0.00  0.00    +0.000 C 
ATOM      6  C   UNL     1       5.733   6.739  17.719  0.00  0.00    +0.000 C 
ATOM      7  C   UNL     1       4.667   6.314  16.708  0.00  0.00    +0.000 C 
ATOM      8  N   UNL     1       4.707   4.903  16.327  0.00  0.00    +0.000 NA
ATOM      9  C   UNL     1       6.025   4.587  15.781  0.00  0.00    +0.000 C 
ATOM     10  C   UNL     1       7.150   4.783  16.782  0.00  0.00    +0.000 C 
ATOM     11  C   UNL     1       7.981   6.076  18.733  0.00  0.00    +0.000 C 
ATOM     12  N   UNL     1       8.262   7.361  19.323  0.00  0.00    +0.000 N 
ATOM     13  H   UNL     1       8.614   7.421  20.267  0.00  0.00    +0.000 HD
ENDROOT
BRANCH   8  14
ATOM     14  C   UNL     1       4.050   3.951  17.260  0.00  0.00    +0.000 C 
ATOM     15  C   UNL     1       2.688   3.366  16.846  0.00  0.00    +0.000 C 
ATOM     16  C   UNL     1       2.267   2.238  17.776  0.00  0.00    +0.000 C 
ATOM     17  C   UNL     1       2.210   2.700  19.198  0.00  0.00    +0.000 A 
ATOM     18  C   UNL     1       1.312   2.086  20.079  0.00  0.00    +0.000 A 
ATOM     19  C   UNL     1       1.226   2.510  21.401  0.00  0.00    +0.000 A 
ATOM     20  C   UNL     1       2.054   3.533  21.857  0.00  0.00    +0.000 A 
ATOM     21  C   UNL     1       2.965   4.136  20.991  0.00  0.00    +0.000 A 
ATOM     22  C   UNL     1       3.051   3.730  19.651  0.00  0.00    +0.000 A 
ATOM     23  C   UNL     1       3.952   4.503  18.710  0.00  0.00    +0.000 C 
ENDBRANCH   8  14
TORSDOF 1
ENDMDL
MODEL 8
REMARK VINA RESULT:      -7.2      2.945      7.318
REMARK  Name = 
REMARK  1 active torsions:
REMARK  status: ('A' for Active; 'I' for Inactive)
REMARK    1  A    between atoms: N_8  and  C_9
REMARK                            x       y       z     vdW  Elec       q    Type
REMARK                         _______ _______ _______ _____ _____    ______ ____
ROOT
ATOM      1  O   UNL     1       1.308   8.409  21.295  0.00  0.00    +0.000 OA
ATOM      2  C   UNL     1       1.676   7.562  20.489  0.00  0.00    +0.000 C 
ATOM      3  C   UNL     1       1.538   6.049  20.730  0.00  0.00    +0.000 C 
ATOM      4  O   UNL     1       1.721   5.155  19.636  0.00  0.00    +0.000 OA
ATOM      5  C   UNL     1       2.757   5.561  18.717  0.00  0.00    +0.000 C 
ATOM      6  C   UNL     1       4.141   5.481  19.404  0.00  0.00    +0.000 C 
ATOM      7  C   UNL     1       4.802   4.103  19.340  0.00  0.00    +0.000 C 
ATOM      8  N   UNL     1       4.722   3.440  18.039  0.00  0.00    +0.000 NA
ATOM      9  C   UNL     1       3.320   3.307  17.649  0.00  0.00    +0.000 C 
ATOM     10  C   UNL     1       2.616   4.643  17.484  0.00  0.00    +0.000 C 
ATOM     11  C   UNL     1       2.452   7.002  18.240  0.00  0.00    +0.000 C 
ATOM     12  N   UNL     1       2.316   7.933  19.332  0.00  0.00    +0.000 N 
ATOM     13  H   UNL     1       2.321   8.928  19.156  0.00  0.00    +0.000 HD
ENDROOT
BRANCH   8  14
ATOM     14  C   UNL     1       5.730   3.852  17.029  0.00  0.00    +0.000 C 
ATOM     15  C   UNL     1       6.040   5.354  16.895  0.00  0.00    +0.000 C 
ATOM     16  C   UNL     1       7.251   5.591  16.006  0.00  0.00    +0.000 C 
ATOM     17  C   UNL     1       7.053   4.991  14.649  0.00  0.00    +0.000 A 
ATOM     18  C   UNL     1       7.691   5.573  13.547  0.00  0.00    +0.000 A 
ATOM     19  C   UNL     1       7.509   5.045  12.273  0.00  0.00    +0.000 A 
ATOM     20  C   UNL     1       6.709   3.919  12.096  0.00  0.00    +0.000 A 
ATOM     21  C   UNL     1       6.086   3.322  13.191  0.00  0.00    +0.000 A 
ATOM     22  C   UNL     1       6.248   3.853  14.479  0.00  0.00    +0.000 A 
ATOM     23  C   UNL     1       5.445   3.260  15.619  0.00  0.00    +0.000 C 
ENDBRANCH   8  14
TORSDOF 1
ENDMDL
MODEL 9
REMARK VINA RESULT:      -7.0      3.945      5.105
REMARK  Name = 
REMARK  1 active torsions:
REMARK  status: ('A' for Active; 'I' for Inactive)
REMARK    1  A    between atoms: N_8  and  C_9
REMARK                            x       y       z     vdW  Elec       q    Type
REMARK                         _______ _______ _______ _____ _____    ______ ____
ROOT
ATOM      1  O   UNL     1       7.432   2.992  11.480  0.00  0.00    +0.000 OA
ATOM      2  C   UNL     1       6.998   3.639  12.427  0.00  0.00    +0.000 C 
ATOM      3  C   UNL     1       7.772   4.792  13.087  0.00  0.00    +0.000 C 
ATOM      4  O   UNL     1       7.084   5.666  13.978  0.00  0.00    +0.000 OA
ATOM      5  C   UNL     1       6.103   5.003  14.804  0.00  0.00    +0.000 C 
ATOM      6  C   UNL     1       6.802   4.047  15.800  0.00  0.00    +0.000 C 
ATOM      7  C   UNL     1       7.260   4.712  17.099  0.00  0.00    +0.000 C 
ATOM      8  N   UNL     1       6.289   5.625  17.701  0.00  0.00    +0.000 NA
ATOM      9  C   UNL     1       5.944   6.667  16.738  0.00  0.00    +0.000 C 
ATOM     10  C   UNL     1       5.287   6.125  15.479  0.00  0.00    +0.000 C 
ATOM     11  C   UNL     1       5.127   4.231  13.882  0.00  0.00    +0.000 C 
ATOM     12  N   UNL     1       5.801   3.303  13.008  0.00  0.00    +0.000 N 
ATOM     13  H   UNL     1       5.274   2.600  12.510  0.00  0.00    +0.000 HD
ENDROOT
BRANCH   8  14
ATOM     14  C   UNL     1       5.221   4.999  18.522  0.00  0.00    +0.000 C 
ATOM     15  C   UNL     1       5.482   3.592  19.090  0.00  0.00    +0.000 C 
ATOM     16  C   UNL     1       4.413   3.196  20.097  0.00  0.00    +0.000 C 
ATOM     17  C   UNL     1       3.047   3.252  19.487  0.00  0.00    +0.000 A 
ATOM     18  C   UNL     1       2.050   2.394  19.968  0.00  0.00    +0.000 A 
ATOM     19  C   UNL     1       0.778   2.413  19.406  0.00  0.00    +0.000 A 
ATOM     20  C   UNL     1       0.487   3.306  18.378  0.00  0.00    +0.000 A 
ATOM     21  C   UNL     1       1.468   4.176  17.906  0.00  0.00    +0.000 A 
ATOM     22  C   UNL     1       2.761   4.157  18.452  0.00  0.00    +0.000 A 
ATOM     23  C   UNL     1       3.834   5.019  17.820  0.00  0.00    +0.000 C 
ENDBRANCH   8  14
TORSDOF 1
ENDMDL
