MODEL 1
REMARK VINA RESULT:      -8.5      0.000      0.000
REMARK  Name = 
REMARK  5 active torsions:
REMARK  status: ('A' for Active; 'I' for Inactive)
REMARK    1  A    between atoms: C_1  and  C_2
REMARK    2  A    between atoms: C_8  and  C_9
REMARK    3  A    between atoms: C_9  and  O_10
REMARK    4  A    between atoms: C_11  and  O_12
REMARK    5  A    between atoms: C_21  and  O_22
REMARK                            x       y       z     vdW  Elec       q    Type
REMARK                         _______ _______ _______ _____ _____    ______ ____
ROOT
ATOM      1  C   UNL     1       1.329   3.413  18.363  0.00  0.00    +0.000 C 
ATOM      2  C   UNL     1       2.755   3.737  18.879  0.00  0.00    +0.000 C 
ATOM      3  C   UNL     1       2.702   4.015  20.385  0.00  0.00    +0.000 C 
ATOM      4  C   UNL     1       1.947   5.319  20.692  0.00  0.00    +0.000 C 
ATOM      5  C   UNL     1       2.468   6.545  19.895  0.00  0.00    +0.000 C 
ATOM      6  C   UNL     1       1.669   7.830  20.104  0.00  0.00    +0.000 A 
ATOM      7  C   UNL     1       0.953   8.073  21.293  0.00  0.00    +0.000 A 
ATOM      8  C   UNL     1       0.197   9.246  21.491  0.00  0.00    +0.000 A 
ATOM      9  C   UNL     1       0.189  10.191  20.467  0.00  0.00    +0.000 A 
ATOM     10  C   UNL     1       0.934  10.006  19.309  0.00  0.00    +0.000 A 
ATOM     11  C   UNL     1       1.682   8.835  19.116  0.00  0.00    +0.000 A 
ATOM     12  C   UNL     1       2.411   8.678  17.802  0.00  0.00    +0.000 C 
ATOM     13  C   UNL     1       3.286   7.434  17.696  0.00  0.00    +0.000 C 
ATOM     14  C   UNL     1       2.615   6.234  18.373  0.00  0.00    +0.000 C 
ATOM     15  C   UNL     1       3.422   4.947  18.195  0.00  0.00    +0.000 C 
ATOM     16  C   UNL     1       3.714   4.434  16.786  0.00  0.00    +0.000 C 
ATOM     17  C   UNL     1       4.081   2.952  16.998  0.00  0.00    +0.000 C 
ATOM     18  C   UNL     1       3.753   2.636  18.470  0.00  0.00    +0.000 C 
ENDROOT
BRANCH   9  19
ATOM     19  O   UNL     1      -0.555  11.337  20.527  0.00  0.00    +0.000 OA
ATOM     20  H   UNL     1      -1.059  11.298  21.368  0.00  0.00    +0.000 HD
ENDBRANCH   9  19
BRANCH  18  21
ATOM     21  O   UNL     1       3.267   1.319  18.645  0.00  0.00    +0.000 OA
ATOM     22  H   UNL     1       3.783   0.719  18.080  0.00  0.00    +0.000 HD
ENDBRANCH  18  21
BRANCH   8  23
ATOM     23  C   UNL     1      -0.542   9.398  22.797  0.00  0.00    +0.000 C 
BRANCH  23  24
ATOM     24  O   UNL     1      -0.365  10.697  23.361  0.00  0.00    +0.000 OA
ATOM     25  H   UNL     1      -0.760  11.317  22.714  0.00  0.00    +0.000 HD
ENDBRANCH  23  24
ENDBRANCH   8  23
TORSDOF 4
ENDMDL
MODEL 2
REMARK VINA RESULT:      -7.4      1.642      7.273
REMARK  Name = 
REMARK  5 active torsions:
REMARK  status: ('A' for Active; 'I' for Inactive)
REMARK    1  A    between atoms: C_1  and  C_2
REMARK    2  A    between atoms: C_8  and  C_9
REMARK    3  A    between atoms: C_9  and  O_10
REMARK    4  A    between atoms: C_11  and  O_12
REMARK    5  A    between atoms: C_21  and  O_22
REMARK                            x       y       z     vdW  Elec       q    Type
REMARK                         _______ _______ _______ _____ _____    ______ ____
ROOT
ATOM      1  C   UNL     1      -0.349   9.508  17.741  0.00  0.00    +0.000 C 
ATOM      2  C   UNL     1       0.781  10.052  18.653  0.00  0.00    +0.000 C 
ATOM      3  C   UNL     1       2.104  10.057  17.880  0.00  0.00    +0.000 C 
ATOM      4  C   UNL     1       2.591   8.629  17.585  0.00  0.00    +0.000 C 
ATOM      5  C   UNL     1       2.659   7.720  18.841  0.00  0.00    +0.000 C 
ATOM      6  C   UNL     1       3.040   6.268  18.560  0.00  0.00    +0.000 A 
ATOM      7  C   UNL     1       3.823   5.910  17.444  0.00  0.00    +0.000 A 
ATOM      8  C   UNL     1       4.167   4.572  17.164  0.00  0.00    +0.000 A 
ATOM      9  C   UNL     1       3.720   3.591  18.046  0.00  0.00    +0.000 A 
ATOM     10  C   UNL     1       2.999   3.920  19.186  0.00  0.00    +0.000 A 
ATOM     11  C   UNL     1       2.656   5.253  19.459  0.00  0.00    +0.000 A 
ATOM     12  C   UNL     1       1.812   5.523  20.682  0.00  0.00    +0.000 C 
ATOM     13  C   UNL     1       1.562   6.998  20.979  0.00  0.00    +0.000 C 
ATOM     14  C   UNL     1       1.347   7.787  19.683  0.00  0.00    +0.000 C 
ATOM     15  C   UNL     1       0.992   9.251  19.953  0.00  0.00    +0.000 C 
ATOM     16  C   UNL     1      -0.253   9.582  20.774  0.00  0.00    +0.000 C 
ATOM     17  C   UNL     1      -0.547  11.054  20.428  0.00  0.00    +0.000 C 
ATOM     18  C   UNL     1       0.392  11.415  19.260  0.00  0.00    +0.000 C 
ENDROOT
BRANCH   9  19
ATOM     19  O   UNL     1       3.945   2.257  17.840  0.00  0.00    +0.000 OA
ATOM     20  H   UNL     1       3.316   1.776  18.418  0.00  0.00    +0.000 HD
ENDBRANCH   9  19
BRANCH  18  21
ATOM     21  O   UNL     1      -0.207  12.308  18.341  0.00  0.00    +0.000 OA
ATOM     22  H   UNL     1       0.397  13.055  18.193  0.00  0.00    +0.000 HD
ENDBRANCH  18  21
BRANCH   8  23
ATOM     23  C   UNL     1       4.998   4.300  15.935  0.00  0.00    +0.000 C 
BRANCH  23  24
ATOM     24  O   UNL     1       6.000   3.313  16.178  0.00  0.00    +0.000 OA
ATOM     25  H   UNL     1       5.936   3.109  17.134  0.00  0.00    +0.000 HD
ENDBRANCH  23  24
ENDBRANCH   8  23
TORSDOF 4
ENDMDL
MODEL 3
REMARK VINA RESULT:      -6.9      3.900      7.281
REMARK  Name = 
REMARK  5 active torsions:
REMARK  status: ('A' for Active; 'I' for Inactive)
REMARK    1  A    between atoms: C_1  and  C_2
REMARK    2  A    between atoms: C_8  and  C_9
REMARK    3  A    between atoms: C_9  and  O_10
REMARK    4  A    between atoms: C_11  and  O_12
REMARK    5  A    between atoms: C_21  and  O_22
REMARK                            x       y       z     vdW  Elec       q    Type
REMARK                         _______ _______ _______ _____ _____    ______ ____
ROOT
ATOM      1  C   UNL     1       3.408   2.509  19.677  0.00  0.00    +0.000 C 
ATOM      2  C   UNL     1       2.349   3.491  19.112  0.00  0.00    +0.000 C 
ATOM      3  C   UNL     1       1.957   3.058  17.695  0.00  0.00    +0.000 C 
ATOM      4  C   UNL     1       3.120   3.239  16.707  0.00  0.00    +0.000 C 
ATOM      5  C   UNL     1       3.740   4.662  16.726  0.00  0.00    +0.000 C 
ATOM      6  C   UNL     1       4.963   4.839  15.828  0.00  0.00    +0.000 A 
ATOM      7  C   UNL     1       5.158   4.050  14.676  0.00  0.00    +0.000 A 
ATOM      8  C   UNL     1       6.291   4.191  13.850  0.00  0.00    +0.000 A 
ATOM      9  C   UNL     1       7.227   5.162  14.197  0.00  0.00    +0.000 A 
ATOM     10  C   UNL     1       7.032   5.995  15.291  0.00  0.00    +0.000 A 
ATOM     11  C   UNL     1       5.905   5.848  16.112  0.00  0.00    +0.000 A 
ATOM     12  C   UNL     1       5.798   6.746  17.322  0.00  0.00    +0.000 C 
ATOM     13  C   UNL     1       4.502   6.608  18.114  0.00  0.00    +0.000 C 
ATOM     14  C   UNL     1       4.053   5.144  18.177  0.00  0.00    +0.000 C 
ATOM     15  C   UNL     1       2.811   4.960  19.050  0.00  0.00    +0.000 C 
ATOM     16  C   UNL     1       2.859   5.373  20.520  0.00  0.00    +0.000 C 
ATOM     17  C   UNL     1       1.676   4.620  21.158  0.00  0.00    +0.000 C 
ATOM     18  C   UNL     1       1.163   3.641  20.084  0.00  0.00    +0.000 C 
ENDROOT
BRANCH   9  19
ATOM     19  O   UNL     1       8.391   5.346  13.500  0.00  0.00    +0.000 OA
ATOM     20  H   UNL     1       8.724   6.236  13.743  0.00  0.00    +0.000 HD
ENDBRANCH   9  19
BRANCH  18  21
ATOM     21  O   UNL     1       0.709   2.421  20.638  0.00  0.00    +0.000 OA
ATOM     22  H   UNL     1       1.478   1.908  20.935  0.00  0.00    +0.000 HD
ENDBRANCH  18  21
BRANCH   8  23
ATOM     23  C   UNL     1       6.405   3.286  12.649  0.00  0.00    +0.000 C 
BRANCH  23  24
ATOM     24  O   UNL     1       5.188   3.232  11.906  0.00  0.00    +0.000 OA
ATOM     25  H   UNL     1       5.101   2.299  11.618  0.00  0.00    +0.000 HD
ENDBRANCH  23  24
ENDBRANCH   8  23
TORSDOF 4
ENDMDL
MODEL 4
REMARK VINA RESULT:      -6.8      2.157      3.588
REMARK  Name = 
REMARK  5 active torsions:
REMARK  status: ('A' for Active; 'I' for Inactive)
REMARK    1  A    between atoms: C_1  and  C_2
REMARK    2  A    between atoms: C_8  and  C_9
REMARK    3  A    between atoms: C_9  and  O_10
REMARK    4  A    between atoms: C_11  and  O_12
REMARK    5  A    between atoms: C_21  and  O_22
REMARK                            x       y       z     vdW  Elec       q    Type
REMARK                         _______ _______ _______ _____ _____    ______ ____
ROOT
ATOM      1  C   UNL     1       6.540   6.601  17.519  0.00  0.00    +0.000 C 
ATOM      2  C   UNL     1       5.435   6.057  16.576  0.00  0.00    +0.000 C 
ATOM      3  C   UNL     1       4.603   7.226  16.038  0.00  0.00    +0.000 C 
ATOM      4  C   UNL     1       3.776   7.890  17.151  0.00  0.00    +0.000 C 
ATOM      5  C   UNL     1       2.911   6.892  17.966  0.00  0.00    +0.000 C 
ATOM      6  C   UNL     1       2.159   7.510  19.143  0.00  0.00    +0.000 A 
ATOM      7  C   UNL     1       1.782   8.869  19.151  0.00  0.00    +0.000 A 
ATOM      8  C   UNL     1       1.104   9.456  20.239  0.00  0.00    +0.000 A 
ATOM      9  C   UNL     1       0.793   8.639  21.323  0.00  0.00    +0.000 A 
ATOM     10  C   UNL     1       1.097   7.284  21.318  0.00  0.00    +0.000 A 
ATOM     11  C   UNL     1       1.775   6.705  20.234  0.00  0.00    +0.000 A 
ATOM     12  C   UNL     1       2.131   5.241  20.332  0.00  0.00    +0.000 C 
ATOM     13  C   UNL     1       2.773   4.649  19.082  0.00  0.00    +0.000 C 
ATOM     14  C   UNL     1       3.734   5.652  18.435  0.00  0.00    +0.000 C 
ATOM     15  C   UNL     1       4.472   5.052  17.236  0.00  0.00    +0.000 C 
ATOM     16  C   UNL     1       5.343   3.812  17.435  0.00  0.00    +0.000 C 
ATOM     17  C   UNL     1       6.263   3.802  16.199  0.00  0.00    +0.000 C 
ATOM     18  C   UNL     1       6.038   5.149  15.486  0.00  0.00    +0.000 C 
ENDROOT
BRANCH   9  19
ATOM     19  O   UNL     1       0.189   9.116  22.455  0.00  0.00    +0.000 OA
ATOM     20  H   UNL     1      -0.583   9.644  22.158  0.00  0.00    +0.000 HD
ENDBRANCH   9  19
BRANCH  18  21
ATOM     21  O   UNL     1       7.221   5.655  14.899  0.00  0.00    +0.000 OA
ATOM     22  H   UNL     1       6.986   6.140  14.091  0.00  0.00    +0.000 HD
ENDBRANCH  18  21
BRANCH   8  23
ATOM     23  C   UNL     1       0.761  10.921  20.148  0.00  0.00    +0.000 C 
BRANCH  23  24
ATOM     24  O   UNL     1       1.080  11.618  21.352  0.00  0.00    +0.000 OA
ATOM     25  H   UNL     1       1.470  10.944  21.946  0.00  0.00    +0.000 HD
ENDBRANCH  23  24
ENDBRANCH   8  23
TORSDOF 4
ENDMDL
MODEL 5
REMARK VINA RESULT:      -6.7      1.894      7.290
REMARK  Name = 
REMARK  5 active torsions:
REMARK  status: ('A' for Active; 'I' for Inactive)
REMARK    1  A    between atoms: C_1  and  C_2
REMARK    2  A    between atoms: C_8  and  C_9
REMARK    3  A    between atoms: C_9  and  O_10
REMARK    4  A    between atoms: C_11  and  O_12
REMARK    5  A    between atoms: C_21  and  O_22
REMARK                            x       y       z     vdW  Elec       q    Type
REMARK                         _______ _______ _______ _____ _____    ______ ____
ROOT
ATOM      1  C   UNL     1      -1.002  10.192  17.721  0.00  0.00    +0.000 C 
ATOM      2  C   UNL     1       0.146  10.907  18.481  0.00  0.00    +0.000 C 
ATOM      3  C   UNL     1       1.455  10.737  17.704  0.00  0.00    +0.000 C 
ATOM      4  C   UNL     1       1.930   9.275  17.709  0.00  0.00    +0.000 C 
ATOM      5  C   UNL     1       2.015   8.651  19.128  0.00  0.00    +0.000 C 
ATOM      6  C   UNL     1       2.384   7.169  19.154  0.00  0.00    +0.000 A 
ATOM      7  C   UNL     1       3.146   6.577  18.127  0.00  0.00    +0.000 A 
ATOM      8  C   UNL     1       3.479   5.207  18.130  0.00  0.00    +0.000 A 
ATOM      9  C   UNL     1       3.041   4.438  19.207  0.00  0.00    +0.000 A 
ATOM     10  C   UNL     1       2.341   5.007  20.263  0.00  0.00    +0.000 A 
ATOM     11  C   UNL     1       2.010   6.370  20.253  0.00  0.00    +0.000 A 
ATOM     12  C   UNL     1       1.188   6.899  21.405  0.00  0.00    +0.000 C 
ATOM     13  C   UNL     1       0.950   8.406  21.387  0.00  0.00    +0.000 C 
ATOM     14  C   UNL     1       0.717   8.905  19.957  0.00  0.00    +0.000 C 
ATOM     15  C   UNL     1       0.375  10.396  19.917  0.00  0.00    +0.000 C 
ATOM     16  C   UNL     1      -0.855  10.904  20.669  0.00  0.00    +0.000 C 
ATOM     17  C   UNL     1      -1.146  12.272  20.024  0.00  0.00    +0.000 C 
ATOM     18  C   UNL     1      -0.226  12.370  18.792  0.00  0.00    +0.000 C 
ENDROOT
BRANCH   9  19
ATOM     19  O   UNL     1       3.256   3.089  19.284  0.00  0.00    +0.000 OA
ATOM     20  H   UNL     1       2.816   2.692  18.502  0.00  0.00    +0.000 HD
ENDBRANCH   9  19
BRANCH  18  21
ATOM     21  O   UNL     1      -0.836  13.054  17.714  0.00  0.00    +0.000 OA
ATOM     22  H   UNL     1      -0.184  13.157  17.001  0.00  0.00    +0.000 HD
ENDBRANCH  18  21
BRANCH   8  23
ATOM     23  C   UNL     1       4.287   4.674  16.974  0.00  0.00    +0.000 C 
BRANCH  23  24
ATOM     24  O   UNL     1       5.245   3.704  17.397  0.00  0.00    +0.000 OA
ATOM     25  H   UNL     1       4.754   3.096  17.988  0.00  0.00    +0.000 HD
ENDBRANCH  23  24
ENDBRANCH   8  23
TORSDOF 4
ENDMDL
MODEL 6
REMARK VINA RESULT:      -6.7      9.793     11.989
REMARK  Name = 
REMARK  5 active torsions:
REMARK  status: ('A' for Active; 'I' for Inactive)
REMARK    1  A    between atoms: C_1  and  C_2
REMARK    2  A    between atoms: C_8  and  C_9
REMARK    3  A    between atoms: C_9  and  O_10
REMARK    4  A    between atoms: C_11  and  O_12
REMARK    5  A    between atoms: C_21  and  O_22
REMARK                            x       y       z     vdW  Elec       q    Type
REMARK                         _______ _______ _______ _____ _____    ______ ____
ROOT
ATOM      1  C   UNL     1       6.887  14.407  22.586  0.00  0.00    +0.000 C 
ATOM      2  C   UNL     1       8.155  13.937  23.347  0.00  0.00    +0.000 C 
ATOM      3  C   UNL     1       9.277  14.962  23.149  0.00  0.00    +0.000 C 
ATOM      4  C   UNL     1       9.769  14.988  21.693  0.00  0.00    +0.000 C 
ATOM      5  C   UNL     1      10.158  13.591  21.140  0.00  0.00    +0.000 C 
ATOM      6  C   UNL     1      10.552  13.574  19.665  0.00  0.00    +0.000 A 
ATOM      7  C   UNL     1      11.093  14.709  19.028  0.00  0.00    +0.000 A 
ATOM      8  C   UNL     1      11.444  14.712  17.663  0.00  0.00    +0.000 A 
ATOM      9  C   UNL     1      11.254  13.534  16.945  0.00  0.00    +0.000 A 
ATOM     10  C   UNL     1      10.779  12.382  17.559  0.00  0.00    +0.000 A 
ATOM     11  C   UNL     1      10.429  12.386  18.917  0.00  0.00    +0.000 A 
ATOM     12  C   UNL     1       9.856  11.113  19.495  0.00  0.00    +0.000 C 
ATOM     13  C   UNL     1       9.592  11.151  20.998  0.00  0.00    +0.000 C 
ATOM     14  C   UNL     1       9.058  12.522  21.425  0.00  0.00    +0.000 C 
ATOM     15  C   UNL     1       8.687  12.559  22.908  0.00  0.00    +0.000 C 
ATOM     16  C   UNL     1       7.633  11.591  23.443  0.00  0.00    +0.000 C 
ATOM     17  C   UNL     1       7.188  12.223  24.776  0.00  0.00    +0.000 C 
ATOM     18  C   UNL     1       7.829  13.624  24.820  0.00  0.00    +0.000 C 
ENDROOT
BRANCH   9  19
ATOM     19  O   UNL     1      11.505  13.441  15.602  0.00  0.00    +0.000 OA
ATOM     20  H   UNL     1      11.010  12.657  15.280  0.00  0.00    +0.000 HD
ENDBRANCH   9  19
BRANCH  18  21
ATOM     21  O   UNL     1       6.996  14.580  25.446  0.00  0.00    +0.000 OA
ATOM     22  H   UNL     1       6.213  14.128  25.800  0.00  0.00    +0.000 HD
ENDBRANCH  18  21
BRANCH   8  23
ATOM     23  C   UNL     1      12.003  15.986  17.081  0.00  0.00    +0.000 C 
BRANCH  23  24
ATOM     24  O   UNL     1      10.971  16.865  16.635  0.00  0.00    +0.000 OA
ATOM     25  H   UNL     1      10.364  16.306  16.107  0.00  0.00    +0.000 HD
ENDBRANCH  23  24
ENDBRANCH   8  23
TORSDOF 4
ENDMDL
MODEL 7
REMARK VINA RESULT:      -6.7      1.747      3.317
REMARK  Name = 
REMARK  5 active torsions:
REMARK  status: ('A' for Active; 'I' for Inactive)
REMARK    1  A    between atoms: C_1  and  C_2
REMARK    2  A    between atoms: C_8  and  C_9
REMARK    3  A    between atoms: C_9  and  O_10
REMARK    4  A    between atoms: C_11  and  O_12
REMARK    5  A    between atoms: C_21  and  O_22
REMARK                            x       y       z     vdW  Elec       q    Type
REMARK                         _______ _______ _______ _____ _____    ______ ____
ROOT
ATOM      1  C   UNL     1       5.633   5.848  18.793  0.00  0.00    +0.000 C 
ATOM      2  C   UNL     1       4.395   5.295  18.041  0.00  0.00    +0.000 C 
ATOM      3  C   UNL     1       3.981   6.281  16.944  0.00  0.00    +0.000 C 
ATOM      4  C   UNL     1       3.435   7.590  17.538  0.00  0.00    +0.000 C 
ATOM      5  C   UNL     1       2.305   7.379  18.582  0.00  0.00    +0.000 C 
ATOM      6  C   UNL     1       1.817   8.655  19.264  0.00  0.00    +0.000 A 
ATOM      7  C   UNL     1       1.905   9.913  18.632  0.00  0.00    +0.000 A 
ATOM      8  C   UNL     1       1.474  11.101  19.257  0.00  0.00    +0.000 A 
ATOM      9  C   UNL     1       0.931  10.998  20.536  0.00  0.00    +0.000 A 
ATOM     10  C   UNL     1       0.777   9.766  21.158  0.00  0.00    +0.000 A 
ATOM     11  C   UNL     1       1.210   8.587  20.533  0.00  0.00    +0.000 A 
ATOM     12  C   UNL     1       1.070   7.295  21.303  0.00  0.00    +0.000 C 
ATOM     13  C   UNL     1       1.462   6.040  20.530  0.00  0.00    +0.000 C 
ATOM     14  C   UNL     1       2.687   6.303  19.647  0.00  0.00    +0.000 C 
ATOM     15  C   UNL     1       3.167   5.036  18.936  0.00  0.00    +0.000 C 
ATOM     16  C   UNL     1       3.589   3.825  19.767  0.00  0.00    +0.000 C 
ATOM     17  C   UNL     1       4.435   2.982  18.792  0.00  0.00    +0.000 C 
ATOM     18  C   UNL     1       4.649   3.858  17.543  0.00  0.00    +0.000 C 
ENDROOT
BRANCH   9  19
ATOM     19  O   UNL     1       0.536  12.091  21.258  0.00  0.00    +0.000 OA
ATOM     20  H   UNL     1       0.837  11.941  22.180  0.00  0.00    +0.000 HD
ENDBRANCH   9  19
BRANCH  18  21
ATOM     21  O   UNL     1       5.923   3.664  16.959  0.00  0.00    +0.000 OA
ATOM     22  H   UNL     1       5.817   3.599  15.995  0.00  0.00    +0.000 HD
ENDBRANCH  18  21
BRANCH   8  23
ATOM     23  C   UNL     1       1.626  12.393  18.496  0.00  0.00    +0.000 C 
BRANCH  23  24
ATOM     24  O   UNL     1       2.574  12.278  17.435  0.00  0.00    +0.000 OA
ATOM     25  H   UNL     1       2.824  11.331  17.413  0.00  0.00    +0.000 HD
ENDBRANCH  23  24
ENDBRANCH   8  23
TORSDOF 4
ENDMDL
MODEL 8
REMARK VINA RESULT:      -6.6      1.372      6.774
REMARK  Name = 
REMARK  5 active torsions:
REMARK  status: ('A' for Active; 'I' for Inactive)
REMARK    1  A    between atoms: C_1  and  C_2
REMARK    2  A    between atoms: C_8  and  C_9
REMARK    3  A    between atoms: C_9  and  O_10
REMARK    4  A    between atoms: C_11  and  O_12
REMARK    5  A    between atoms: C_21  and  O_22
REMARK                            x       y       z     vdW  Elec       q    Type
REMARK                         _______ _______ _______ _____ _____    ______ ____
ROOT
ATOM      1  C   UNL     1       1.824   9.631  22.392  0.00  0.00    +0.000 C 
ATOM      2  C   UNL     1       0.571   9.367  21.518  0.00  0.00    +0.000 C 
ATOM      3  C   UNL     1       0.085   7.932  21.743  0.00  0.00    +0.000 C 
ATOM      4  C   UNL     1       1.084   6.903  21.189  0.00  0.00    +0.000 C 
ATOM      5  C   UNL     1       1.482   7.153  19.710  0.00  0.00    +0.000 C 
ATOM      6  C   UNL     1       2.552   6.208  19.167  0.00  0.00    +0.000 A 
ATOM      7  C   UNL     1       2.726   4.909  19.686  0.00  0.00    +0.000 A 
ATOM      8  C   UNL     1       3.721   4.033  19.206  0.00  0.00    +0.000 A 
ATOM      9  C   UNL     1       4.535   4.486  18.170  0.00  0.00    +0.000 A 
ATOM     10  C   UNL     1       4.348   5.737  17.598  0.00  0.00    +0.000 A 
ATOM     11  C   UNL     1       3.358   6.606  18.082  0.00  0.00    +0.000 A 
ATOM     12  C   UNL     1       3.261   7.976  17.452  0.00  0.00    +0.000 C 
ATOM     13  C   UNL     1       2.101   8.832  17.951  0.00  0.00    +0.000 C 
ATOM     14  C   UNL     1       1.887   8.639  19.456  0.00  0.00    +0.000 C 
ATOM     15  C   UNL     1       0.797   9.561  20.005  0.00  0.00    +0.000 C 
ATOM     16  C   UNL     1       0.955  11.075  19.867  0.00  0.00    +0.000 C 
ATOM     17  C   UNL     1      -0.020  11.648  20.914  0.00  0.00    +0.000 C 
ATOM     18  C   UNL     1      -0.503  10.448  21.751  0.00  0.00    +0.000 C 
ENDROOT
BRANCH   9  19
ATOM     19  O   UNL     1       5.569   3.743  17.667  0.00  0.00    +0.000 OA
ATOM     20  H   UNL     1       5.330   3.523  16.742  0.00  0.00    +0.000 HD
ENDBRANCH   9  19
BRANCH  18  21
ATOM     21  O   UNL     1      -0.701  10.783  23.111  0.00  0.00    +0.000 OA
ATOM     22  H   UNL     1      -0.620  11.746  23.210  0.00  0.00    +0.000 HD
ENDBRANCH  18  21
BRANCH   8  23
ATOM     23  C   UNL     1       3.828   2.670  19.842  0.00  0.00    +0.000 C 
BRANCH  23  24
ATOM     24  O   UNL     1       5.182   2.224  19.919  0.00  0.00    +0.000 OA
ATOM     25  H   UNL     1       5.166   1.294  19.612  0.00  0.00    +0.000 HD
ENDBRANCH  23  24
ENDBRANCH   8  23
TORSDOF 4
ENDMDL
MODEL 9
REMARK VINA RESULT:      -6.5      9.179     10.410
REMARK  Name = 
REMARK  5 active torsions:
REMARK  status: ('A' for Active; 'I' for Inactive)
REMARK    1  A    between atoms: C_1  and  C_2
REMARK    2  A    between atoms: C_8  and  C_9
REMARK    3  A    between atoms: C_9  and  O_10
REMARK    4  A    between atoms: C_11  and  O_12
REMARK    5  A    between atoms: C_21  and  O_22
REMARK                            x       y       z     vdW  Elec       q    Type
REMARK                         _______ _______ _______ _____ _____    ______ ____
ROOT
ATOM      1  C   UNL     1       9.495  12.816  18.266  0.00  0.00    +0.000 C 
ATOM      2  C   UNL     1      10.712  12.554  19.189  0.00  0.00    +0.000 C 
ATOM      3  C   UNL     1      10.480  11.266  19.987  0.00  0.00    +0.000 C 
ATOM      4  C   UNL     1       9.337  11.430  21.003  0.00  0.00    +0.000 C 
ATOM      5  C   UNL     1       9.498  12.663  21.931  0.00  0.00    +0.000 C 
ATOM      6  C   UNL     1       8.325  12.908  22.879  0.00  0.00    +0.000 A 
ATOM      7  C   UNL     1       7.495  11.856  23.318  0.00  0.00    +0.000 A 
ATOM      8  C   UNL     1       6.399  12.071  24.178  0.00  0.00    +0.000 A 
ATOM      9  C   UNL     1       6.162  13.374  24.609  0.00  0.00    +0.000 A 
ATOM     10  C   UNL     1       6.998  14.420  24.242  0.00  0.00    +0.000 A 
ATOM     11  C   UNL     1       8.085  14.201  23.383  0.00  0.00    +0.000 A 
ATOM     12  C   UNL     1       8.908  15.401  22.975  0.00  0.00    +0.000 C 
ATOM     13  C   UNL     1      10.134  15.083  22.125  0.00  0.00    +0.000 C 
ATOM     14  C   UNL     1       9.830  13.960  21.128  0.00  0.00    +0.000 C 
ATOM     15  C   UNL     1      11.008  13.687  20.191  0.00  0.00    +0.000 C 
ATOM     16  C   UNL     1      11.535  14.812  19.301  0.00  0.00    +0.000 C 
ATOM     17  C   UNL     1      12.333  14.078  18.206  0.00  0.00    +0.000 C 
ATOM     18  C   UNL     1      12.028  12.578  18.387  0.00  0.00    +0.000 C 
ENDROOT
BRANCH   9  19
ATOM     19  O   UNL     1       5.093  13.705  25.397  0.00  0.00    +0.000 OA
ATOM     20  H   UNL     1       4.933  14.664  25.261  0.00  0.00    +0.000 HD
ENDBRANCH   9  19
BRANCH  18  21
ATOM     21  O   UNL     1      11.969  11.886  17.155  0.00  0.00    +0.000 OA
ATOM     22  H   UNL     1      11.081  11.999  16.776  0.00  0.00    +0.000 HD
ENDBRANCH  18  21
BRANCH   8  23
ATOM     23  C   UNL     1       5.569  10.876  24.575  0.00  0.00    +0.000 C 
BRANCH  23  24
ATOM     24  O   UNL     1       5.523  10.707  25.991  0.00  0.00    +0.000 OA
ATOM     25  H   UNL     1       5.856   9.800  26.155  0.00  0.00    +0.000 HD
ENDBRANCH  23  24
ENDBRANCH   8  23
TORSDOF 4
ENDMDL
