MODEL 1
REMARK VINA RESULT:      -8.6      0.000      0.000
REMARK  Name = 
REMARK  5 active torsions:
REMARK  status: ('A' for Active; 'I' for Inactive)
REMARK    1  A    between atoms: C_5  and  C_6
REMARK    2  A    between atoms: C_6  and  C_7
REMARK    3  A    between atoms: C_6  and  N_19
REMARK    4  A    between atoms: N_11  and  C_12
REMARK    5  A    between atoms: C_12  and  C_13
REMARK                            x       y       z     vdW  Elec       q    Type
REMARK                         _______ _______ _______ _____ _____    ______ ____
ROOT
ATOM      1  C   UNL     1       3.866   5.958  17.424  0.00  0.00    +0.000 C 
ENDROOT
BRANCH   1   6
ATOM      2  F   UNL     1       0.443   9.658  20.049  0.00  0.00    +0.000 F 
ATOM      3  C   UNL     1       1.344   8.862  19.455  0.00  0.00    +0.000 A 
ATOM      4  C   UNL     1       1.831   7.757  20.136  0.00  0.00    +0.000 A 
ATOM      5  C   UNL     1       2.719   6.888  19.492  0.00  0.00    +0.000 A 
ATOM      6  C   UNL     1       3.128   7.102  18.155  0.00  0.00    +0.000 A 
ATOM      7  C   UNL     1       2.642   8.251  17.503  0.00  0.00    +0.000 A 
ATOM      8  C   UNL     1       1.751   9.122  18.152  0.00  0.00    +0.000 A 
ENDBRANCH   1   6
BRANCH   1   9
ATOM      9  N   UNL     1       3.693   4.560  17.900  0.00  0.00    +0.000 NA
ATOM     10  C   UNL     1       2.444   3.902  17.517  0.00  0.00    +0.000 C 
ATOM     11  C   UNL     1       2.279   2.420  17.887  0.00  0.00    +0.000 C 
ATOM     12  S   UNL     1       2.481   2.171  19.665  0.00  0.00    +0.000 S 
ATOM     13  C   UNL     1       4.194   2.744  19.728  0.00  0.00    +0.000 C 
ATOM     14  C   UNL     1       4.422   4.134  19.099  0.00  0.00    +0.000 C 
ENDBRANCH   1   9
BRANCH   1  15
ATOM     15  C   UNL     1       5.307   6.374  17.242  0.00  0.00    +0.000 A 
ATOM     16  N   UNL     1       5.895   7.431  17.780  0.00  0.00    +0.000 NA
ATOM     17  N   UNL     1       7.175   7.455  17.305  0.00  0.00    +0.000 NA
ATOM     18  N   UNL     1       7.393   6.446  16.482  0.00  0.00    +0.000 NA
ATOM     19  N   UNL     1       6.234   5.757  16.438  0.00  0.00    +0.000 N 
BRANCH  19  20
ATOM     20  C   UNL     1       6.216   4.439  15.831  0.00  0.00    +0.000 C 
BRANCH  20  21
ATOM     21  C   UNL     1       6.506   4.357  14.349  0.00  0.00    +0.000 A 
ATOM     22  C   UNL     1       7.504   5.085  13.678  0.00  0.00    +0.000 A 
ATOM     23  C   UNL     1       7.700   4.918  12.296  0.00  0.00    +0.000 A 
ATOM     24  C   UNL     1       6.905   4.033  11.570  0.00  0.00    +0.000 A 
ATOM     25  C   UNL     1       5.919   3.298  12.221  0.00  0.00    +0.000 A 
ATOM     26  C   UNL     1       5.722   3.458  13.595  0.00  0.00    +0.000 A 
ENDBRANCH  20  21
ENDBRANCH  19  20
ENDBRANCH   1  15
TORSDOF 5
ENDMDL
MODEL 2
REMARK VINA RESULT:      -8.5      0.455      1.119
REMARK  Name = 
REMARK  5 active torsions:
REMARK  status: ('A' for Active; 'I' for Inactive)
REMARK    1  A    between atoms: C_5  and  C_6
REMARK    2  A    between atoms: C_6  and  C_7
REMARK    3  A    between atoms: C_6  and  N_19
REMARK    4  A    between atoms: N_11  and  C_12
REMARK    5  A    between atoms: C_12  and  C_13
REMARK                            x       y       z     vdW  Elec       q    Type
REMARK                         _______ _______ _______ _____ _____    ______ ____
ROOT
ATOM      1  C   UNL     1       3.622   5.933  17.578  0.00  0.00    +0.000 C 
ENDROOT
BRANCH   1   6
ATOM      2  F   UNL     1       0.475  10.029  19.947  0.00  0.00    +0.000 F 
ATOM      3  C   UNL     1       1.316   9.133  19.412  0.00  0.00    +0.000 A 
ATOM      4  C   UNL     1       1.696   8.026  20.155  0.00  0.00    +0.000 A 
ATOM      5  C   UNL     1       2.519   7.055  19.573  0.00  0.00    +0.000 A 
ATOM      6  C   UNL     1       2.969   7.169  18.236  0.00  0.00    +0.000 A 
ATOM      7  C   UNL     1       2.594   8.321  17.521  0.00  0.00    +0.000 A 
ATOM      8  C   UNL     1       1.768   9.294  18.108  0.00  0.00    +0.000 A 
ENDBRANCH   1   6
BRANCH   1   9
ATOM      9  N   UNL     1       3.398   4.588  18.171  0.00  0.00    +0.000 NA
ATOM     10  C   UNL     1       4.467   4.081  19.030  0.00  0.00    +0.000 C 
ATOM     11  C   UNL     1       4.223   2.748  19.755  0.00  0.00    +0.000 C 
ATOM     12  S   UNL     1       3.823   1.435  18.581  0.00  0.00    +0.000 S 
ATOM     13  C   UNL     1       2.311   2.208  17.963  0.00  0.00    +0.000 C 
ATOM     14  C   UNL     1       2.492   3.663  17.482  0.00  0.00    +0.000 C 
ENDBRANCH   1   9
BRANCH   1  15
ATOM     15  C   UNL     1       5.074   6.258  17.314  0.00  0.00    +0.000 A 
ATOM     16  N   UNL     1       5.779   7.225  17.879  0.00  0.00    +0.000 NA
ATOM     17  N   UNL     1       7.020   7.193  17.309  0.00  0.00    +0.000 NA
ATOM     18  N   UNL     1       7.099   6.237  16.401  0.00  0.00    +0.000 NA
ATOM     19  N   UNL     1       5.890   5.639  16.399  0.00  0.00    +0.000 N 
BRANCH  19  20
ATOM     20  C   UNL     1       5.726   4.376  15.702  0.00  0.00    +0.000 C 
BRANCH  20  21
ATOM     21  C   UNL     1       6.219   4.305  14.274  0.00  0.00    +0.000 A 
ATOM     22  C   UNL     1       7.318   5.016  13.762  0.00  0.00    +0.000 A 
ATOM     23  C   UNL     1       7.702   4.862  12.418  0.00  0.00    +0.000 A 
ATOM     24  C   UNL     1       6.996   4.006  11.574  0.00  0.00    +0.000 A 
ATOM     25  C   UNL     1       5.912   3.288  12.069  0.00  0.00    +0.000 A 
ATOM     26  C   UNL     1       5.527   3.436  13.404  0.00  0.00    +0.000 A 
ENDBRANCH  20  21
ENDBRANCH  19  20
ENDBRANCH   1  15
TORSDOF 5
ENDMDL
MODEL 3
REMARK VINA RESULT:      -8.3      0.709      1.163
REMARK  Name = 
REMARK  5 active torsions:
REMARK  status: ('A' for Active; 'I' for Inactive)
REMARK    1  A    between atoms: C_5  and  C_6
REMARK    2  A    between atoms: C_6  and  C_7
REMARK    3  A    between atoms: C_6  and  N_19
REMARK    4  A    between atoms: N_11  and  C_12
REMARK    5  A    between atoms: C_12  and  C_13
REMARK                            x       y       z     vdW  Elec       q    Type
REMARK                         _______ _______ _______ _____ _____    ______ ____
ROOT
ATOM      1  C   UNL     1       3.753   5.509  17.654  0.00  0.00    +0.000 C 
ENDROOT
BRANCH   1   6
ATOM      2  F   UNL     1       0.789   9.968  19.556  0.00  0.00    +0.000 F 
ATOM      3  C   UNL     1       1.591   8.982  19.129  0.00  0.00    +0.000 A 
ATOM      4  C   UNL     1       1.877   7.921  19.974  0.00  0.00    +0.000 A 
ATOM      5  C   UNL     1       2.657   6.858  19.506  0.00  0.00    +0.000 A 
ATOM      6  C   UNL     1       3.157   6.832  18.183  0.00  0.00    +0.000 A 
ATOM      7  C   UNL     1       2.877   7.939  17.361  0.00  0.00    +0.000 A 
ATOM      8  C   UNL     1       2.093   9.005  17.834  0.00  0.00    +0.000 A 
ENDBRANCH   1   6
BRANCH   1   9
ATOM      9  N   UNL     1       3.287   4.219  18.228  0.00  0.00    +0.000 NA
ATOM     10  C   UNL     1       1.878   3.893  18.013  0.00  0.00    +0.000 C 
ATOM     11  C   UNL     1       1.386   2.517  18.488  0.00  0.00    +0.000 C 
ATOM     12  S   UNL     1       1.718   2.283  20.249  0.00  0.00    +0.000 S 
ATOM     13  C   UNL     1       3.515   2.396  20.104  0.00  0.00    +0.000 C 
ATOM     14  C   UNL     1       4.015   3.660  19.372  0.00  0.00    +0.000 C 
ENDBRANCH   1   9
BRANCH   1  15
ATOM     15  C   UNL     1       5.257   5.658  17.611  0.00  0.00    +0.000 A 
ATOM     16  N   UNL     1       5.990   6.447  18.380  0.00  0.00    +0.000 NA
ATOM     17  N   UNL     1       7.284   6.311  17.964  0.00  0.00    +0.000 NA
ATOM     18  N   UNL     1       7.370   5.465  16.953  0.00  0.00    +0.000 NA
ATOM     19  N   UNL     1       6.108   5.043  16.727  0.00  0.00    +0.000 N 
BRANCH  19  20
ATOM     20  C   UNL     1       5.888   3.904  15.855  0.00  0.00    +0.000 C 
BRANCH  20  21
ATOM     21  C   UNL     1       6.323   4.043  14.413  0.00  0.00    +0.000 A 
ATOM     22  C   UNL     1       5.801   3.306  13.336  0.00  0.00    +0.000 A 
ATOM     23  C   UNL     1       6.267   3.528  12.028  0.00  0.00    +0.000 A 
ATOM     24  C   UNL     1       7.257   4.479  11.782  0.00  0.00    +0.000 A 
ATOM     25  C   UNL     1       7.776   5.224  12.836  0.00  0.00    +0.000 A 
ATOM     26  C   UNL     1       7.315   5.008  14.137  0.00  0.00    +0.000 A 
ENDBRANCH  20  21
ENDBRANCH  19  20
ENDBRANCH   1  15
TORSDOF 5
ENDMDL
MODEL 4
REMARK VINA RESULT:      -8.1      0.334      1.000
REMARK  Name = 
REMARK  5 active torsions:
REMARK  status: ('A' for Active; 'I' for Inactive)
REMARK    1  A    between atoms: C_5  and  C_6
REMARK    2  A    between atoms: C_6  and  C_7
REMARK    3  A    between atoms: C_6  and  N_19
REMARK    4  A    between atoms: N_11  and  C_12
REMARK    5  A    between atoms: C_12  and  C_13
REMARK                            x       y       z     vdW  Elec       q    Type
REMARK                         _______ _______ _______ _____ _____    ______ ____
ROOT
ATOM      1  C   UNL     1       3.847   5.748  17.359  0.00  0.00    +0.000 C 
ENDROOT
BRANCH   1   6
ATOM      2  F   UNL     1       1.215  10.112  19.873  0.00  0.00    +0.000 F 
ATOM      3  C   UNL     1       1.724   9.031  19.264  0.00  0.00    +0.000 A 
ATOM      4  C   UNL     1       2.076   9.105  17.925  0.00  0.00    +0.000 A 
ATOM      5  C   UNL     1       2.671   8.000  17.308  0.00  0.00    +0.000 A 
ATOM      6  C   UNL     1       2.933   6.805  18.019  0.00  0.00    +0.000 A 
ATOM      7  C   UNL     1       2.533   6.750  19.366  0.00  0.00    +0.000 A 
ATOM      8  C   UNL     1       1.935   7.862  19.984  0.00  0.00    +0.000 A 
ENDBRANCH   1   6
BRANCH   1   9
ATOM      9  N   UNL     1       3.812   4.345  17.852  0.00  0.00    +0.000 NA
ATOM     10  C   UNL     1       2.680   3.536  17.403  0.00  0.00    +0.000 C 
ATOM     11  C   UNL     1       2.670   2.050  17.794  0.00  0.00    +0.000 C 
ATOM     12  S   UNL     1       2.781   1.851  19.586  0.00  0.00    +0.000 S 
ATOM     13  C   UNL     1       4.405   2.629  19.747  0.00  0.00    +0.000 C 
ATOM     14  C   UNL     1       4.505   4.028  19.105  0.00  0.00    +0.000 C 
ENDBRANCH   1   9
BRANCH   1  15
ATOM     15  C   UNL     1       5.237   6.332  17.256  0.00  0.00    +0.000 A 
ATOM     16  N   UNL     1       5.660   7.458  17.808  0.00  0.00    +0.000 NA
ATOM     17  N   UNL     1       6.956   7.630  17.411  0.00  0.00    +0.000 NA
ATOM     18  N   UNL     1       7.343   6.644  16.622  0.00  0.00    +0.000 NA
ATOM     19  N   UNL     1       6.279   5.820  16.522  0.00  0.00    +0.000 N 
BRANCH  19  20
ATOM     20  C   UNL     1       6.456   4.503  15.941  0.00  0.00    +0.000 C 
BRANCH  20  21
ATOM     21  C   UNL     1       6.662   4.429  14.444  0.00  0.00    +0.000 A 
ATOM     22  C   UNL     1       7.598   5.186  13.718  0.00  0.00    +0.000 A 
ATOM     23  C   UNL     1       7.718   5.025  12.327  0.00  0.00    +0.000 A 
ATOM     24  C   UNL     1       6.907   4.118  11.647  0.00  0.00    +0.000 A 
ATOM     25  C   UNL     1       5.982   3.354  12.352  0.00  0.00    +0.000 A 
ATOM     26  C   UNL     1       5.861   3.509  13.735  0.00  0.00    +0.000 A 
ENDBRANCH  20  21
ENDBRANCH  19  20
ENDBRANCH   1  15
TORSDOF 5
ENDMDL
MODEL 5
REMARK VINA RESULT:      -8.1      1.243      1.317
REMARK  Name = 
REMARK  5 active torsions:
REMARK  status: ('A' for Active; 'I' for Inactive)
REMARK    1  A    between atoms: C_5  and  C_6
REMARK    2  A    between atoms: C_6  and  C_7
REMARK    3  A    between atoms: C_6  and  N_19
REMARK    4  A    between atoms: N_11  and  C_12
REMARK    5  A    between atoms: C_12  and  C_13
REMARK                            x       y       z     vdW  Elec       q    Type
REMARK                         _______ _______ _______ _____ _____    ______ ____
ROOT
ATOM      1  C   UNL     1       3.822   4.985  18.041  0.00  0.00    +0.000 C 
ENDROOT
BRANCH   1   6
ATOM      2  F   UNL     1       1.310  10.010  18.893  0.00  0.00    +0.000 F 
ATOM      3  C   UNL     1       2.009   8.879  18.726  0.00  0.00    +0.000 A 
ATOM      4  C   UNL     1       1.974   7.904  19.712  0.00  0.00    +0.000 A 
ATOM      5  C   UNL     1       2.647   6.694  19.508  0.00  0.00    +0.000 A 
ATOM      6  C   UNL     1       3.358   6.433  18.313  0.00  0.00    +0.000 A 
ATOM      7  C   UNL     1       3.402   7.455  17.347  0.00  0.00    +0.000 A 
ATOM      8  C   UNL     1       2.726   8.669  17.555  0.00  0.00    +0.000 A 
ENDBRANCH   1   6
BRANCH   1   9
ATOM      9  N   UNL     1       3.213   3.868  18.811  0.00  0.00    +0.000 NA
ATOM     10  C   UNL     1       1.797   3.612  18.557  0.00  0.00    +0.000 C 
ATOM     11  C   UNL     1       1.161   2.393  19.245  0.00  0.00    +0.000 C 
ATOM     12  S   UNL     1       1.367   2.481  21.038  0.00  0.00    +0.000 S 
ATOM     13  C   UNL     1       3.173   2.432  21.008  0.00  0.00    +0.000 C 
ATOM     14  C   UNL     1       3.822   3.490  20.091  0.00  0.00    +0.000 C 
ENDBRANCH   1   9
BRANCH   1  15
ATOM     15  C   UNL     1       5.333   4.974  18.026  0.00  0.00    +0.000 A 
ATOM     16  N   UNL     1       6.132   5.445  18.971  0.00  0.00    +0.000 NA
ATOM     17  N   UNL     1       7.412   5.283  18.522  0.00  0.00    +0.000 NA
ATOM     18  N   UNL     1       7.426   4.731  17.322  0.00  0.00    +0.000 NA
ATOM     19  N   UNL     1       6.131   4.526  17.003  0.00  0.00    +0.000 N 
BRANCH  19  20
ATOM     20  C   UNL     1       5.807   3.691  15.861  0.00  0.00    +0.000 C 
BRANCH  20  21
ATOM     21  C   UNL     1       6.388   4.093  14.523  0.00  0.00    +0.000 A 
ATOM     22  C   UNL     1       7.332   5.116  14.326  0.00  0.00    +0.000 A 
ATOM     23  C   UNL     1       7.819   5.396  13.037  0.00  0.00    +0.000 A 
ATOM     24  C   UNL     1       7.371   4.666  11.937  0.00  0.00    +0.000 A 
ATOM     25  C   UNL     1       6.445   3.644  12.117  0.00  0.00    +0.000 A 
ATOM     26  C   UNL     1       5.958   3.361  13.396  0.00  0.00    +0.000 A 
ENDBRANCH  20  21
ENDBRANCH  19  20
ENDBRANCH   1  15
TORSDOF 5
ENDMDL
MODEL 6
REMARK VINA RESULT:      -7.8      0.702      1.808
REMARK  Name = 
REMARK  5 active torsions:
REMARK  status: ('A' for Active; 'I' for Inactive)
REMARK    1  A    between atoms: C_5  and  C_6
REMARK    2  A    between atoms: C_6  and  C_7
REMARK    3  A    between atoms: C_6  and  N_19
REMARK    4  A    between atoms: N_11  and  C_12
REMARK    5  A    between atoms: C_12  and  C_13
REMARK                            x       y       z     vdW  Elec       q    Type
REMARK                         _______ _______ _______ _____ _____    ______ ____
ROOT
ATOM      1  C   UNL     1       3.214   5.719  17.623  0.00  0.00    +0.000 C 
ENDROOT
BRANCH   1   6
ATOM      2  F   UNL     1       1.187  10.467  19.996  0.00  0.00    +0.000 F 
ATOM      3  C   UNL     1       1.549   9.303  19.439  0.00  0.00    +0.000 A 
ATOM      4  C   UNL     1       1.737   9.233  18.067  0.00  0.00    +0.000 A 
ATOM      5  C   UNL     1       2.182   8.037  17.493  0.00  0.00    +0.000 A 
ATOM      6  C   UNL     1       2.456   6.894  18.280  0.00  0.00    +0.000 A 
ATOM      7  C   UNL     1       2.223   6.987  19.664  0.00  0.00    +0.000 A 
ATOM      8  C   UNL     1       1.776   8.189  20.238  0.00  0.00    +0.000 A 
ENDBRANCH   1   6
BRANCH   1   9
ATOM      9  N   UNL     1       3.158   4.373  18.251  0.00  0.00    +0.000 NA
ATOM     10  C   UNL     1       4.303   4.005  19.083  0.00  0.00    +0.000 C 
ATOM     11  C   UNL     1       4.230   2.672  19.844  0.00  0.00    +0.000 C 
ATOM     12  S   UNL     1       3.938   1.295  18.711  0.00  0.00    +0.000 S 
ATOM     13  C   UNL     1       2.331   1.884  18.131  0.00  0.00    +0.000 C 
ATOM     14  C   UNL     1       2.337   3.338  17.614  0.00  0.00    +0.000 C 
ENDBRANCH   1   9
BRANCH   1  15
ATOM     15  C   UNL     1       4.613   6.191  17.297  0.00  0.00    +0.000 A 
ATOM     16  N   UNL     1       5.216   7.262  17.788  0.00  0.00    +0.000 NA
ATOM     17  N   UNL     1       6.438   7.339  17.182  0.00  0.00    +0.000 NA
ATOM     18  N   UNL     1       6.604   6.348  16.325  0.00  0.00    +0.000 NA
ATOM     19  N   UNL     1       5.472   5.617  16.392  0.00  0.00    +0.000 N 
BRANCH  19  20
ATOM     20  C   UNL     1       5.437   4.307  15.769  0.00  0.00    +0.000 C 
BRANCH  20  21
ATOM     21  C   UNL     1       5.961   4.199  14.355  0.00  0.00    +0.000 A 
ATOM     22  C   UNL     1       5.353   3.466  13.321  0.00  0.00    +0.000 A 
ATOM     23  C   UNL     1       5.918   3.448  12.033  0.00  0.00    +0.000 A 
ATOM     24  C   UNL     1       7.091   4.151  11.765  0.00  0.00    +0.000 A 
ATOM     25  C   UNL     1       7.699   4.890  12.776  0.00  0.00    +0.000 A 
ATOM     26  C   UNL     1       7.141   4.913  14.056  0.00  0.00    +0.000 A 
ENDBRANCH  20  21
ENDBRANCH  19  20
ENDBRANCH   1  15
TORSDOF 5
ENDMDL
MODEL 7
REMARK VINA RESULT:      -7.7      1.471      2.017
REMARK  Name = 
REMARK  5 active torsions:
REMARK  status: ('A' for Active; 'I' for Inactive)
REMARK    1  A    between atoms: C_5  and  C_6
REMARK    2  A    between atoms: C_6  and  C_7
REMARK    3  A    between atoms: C_6  and  N_19
REMARK    4  A    between atoms: N_11  and  C_12
REMARK    5  A    between atoms: C_12  and  C_13
REMARK                            x       y       z     vdW  Elec       q    Type
REMARK                         _______ _______ _______ _____ _____    ______ ____
ROOT
ATOM      1  C   UNL     1       3.691   5.464  18.336  0.00  0.00    +0.000 C 
ENDROOT
BRANCH   1   6
ATOM      2  F   UNL     1       0.682  10.189  19.290  0.00  0.00    +0.000 F 
ATOM      3  C   UNL     1       1.493   9.142  19.085  0.00  0.00    +0.000 A 
ATOM      4  C   UNL     1       1.691   8.222  20.103  0.00  0.00    +0.000 A 
ATOM      5  C   UNL     1       2.482   7.093  19.866  0.00  0.00    +0.000 A 
ATOM      6  C   UNL     1       3.083   6.858  18.607  0.00  0.00    +0.000 A 
ATOM      7  C   UNL     1       2.892   7.828  17.606  0.00  0.00    +0.000 A 
ATOM      8  C   UNL     1       2.096   8.961  17.846  0.00  0.00    +0.000 A 
ENDBRANCH   1   6
BRANCH   1   9
ATOM      9  N   UNL     1       2.985   4.253  18.833  0.00  0.00    +0.000 NA
ATOM     10  C   UNL     1       3.140   3.044  18.025  0.00  0.00    +0.000 C 
ATOM     11  C   UNL     1       2.525   1.744  18.566  0.00  0.00    +0.000 C 
ATOM     12  S   UNL     1       0.757   1.945  18.878  0.00  0.00    +0.000 S 
ATOM     13  C   UNL     1       0.947   3.231  20.133  0.00  0.00    +0.000 C 
ATOM     14  C   UNL     1       1.807   4.432  19.687  0.00  0.00    +0.000 C 
ENDBRANCH   1   9
BRANCH   1  15
ATOM     15  C   UNL     1       5.157   5.516  18.697  0.00  0.00    +0.000 A 
ATOM     16  N   UNL     1       5.719   5.005  19.781  0.00  0.00    +0.000 NA
ATOM     17  N   UNL     1       7.044   5.332  19.730  0.00  0.00    +0.000 NA
ATOM     18  N   UNL     1       7.316   6.038  18.647  0.00  0.00    +0.000 NA
ATOM     19  N   UNL     1       6.145   6.155  17.988  0.00  0.00    +0.000 N 
BRANCH  19  20
ATOM     20  C   UNL     1       6.147   6.648  16.623  0.00  0.00    +0.000 C 
BRANCH  20  21
ATOM     21  C   UNL     1       6.134   5.618  15.515  0.00  0.00    +0.000 A 
ATOM     22  C   UNL     1       5.082   4.722  15.256  0.00  0.00    +0.000 A 
ATOM     23  C   UNL     1       5.168   3.814  14.186  0.00  0.00    +0.000 A 
ATOM     24  C   UNL     1       6.299   3.786  13.370  0.00  0.00    +0.000 A 
ATOM     25  C   UNL     1       7.344   4.673  13.608  0.00  0.00    +0.000 A 
ATOM     26  C   UNL     1       7.263   5.579  14.669  0.00  0.00    +0.000 A 
ENDBRANCH  20  21
ENDBRANCH  19  20
ENDBRANCH   1  15
TORSDOF 5
ENDMDL
MODEL 8
REMARK VINA RESULT:      -7.5      1.337      1.813
REMARK  Name = 
REMARK  5 active torsions:
REMARK  status: ('A' for Active; 'I' for Inactive)
REMARK    1  A    between atoms: C_5  and  C_6
REMARK    2  A    between atoms: C_6  and  C_7
REMARK    3  A    between atoms: C_6  and  N_19
REMARK    4  A    between atoms: N_11  and  C_12
REMARK    5  A    between atoms: C_12  and  C_13
REMARK                            x       y       z     vdW  Elec       q    Type
REMARK                         _______ _______ _______ _____ _____    ______ ____
ROOT
ATOM      1  C   UNL     1       3.278   5.838  18.073  0.00  0.00    +0.000 C 
ENDROOT
BRANCH   1   6
ATOM      2  F   UNL     1       0.449  10.420  19.887  0.00  0.00    +0.000 F 
ATOM      3  C   UNL     1       1.221   9.404  19.476  0.00  0.00    +0.000 A 
ATOM      4  C   UNL     1       1.506   8.367  20.352  0.00  0.00    +0.000 A 
ATOM      5  C   UNL     1       2.254   7.273  19.903  0.00  0.00    +0.000 A 
ATOM      6  C   UNL     1       2.721   7.190  18.570  0.00  0.00    +0.000 A 
ATOM      7  C   UNL     1       2.444   8.274  17.716  0.00  0.00    +0.000 A 
ATOM      8  C   UNL     1       1.693   9.372  18.170  0.00  0.00    +0.000 A 
ENDBRANCH   1   6
BRANCH   1   9
ATOM      9  N   UNL     1       2.487   4.598  18.297  0.00  0.00    +0.000 NA
ATOM     10  C   UNL     1       1.766   4.518  19.566  0.00  0.00    +0.000 C 
ATOM     11  C   UNL     1       0.844   3.308  19.784  0.00  0.00    +0.000 C 
ATOM     12  S   UNL     1       1.754   1.759  19.598  0.00  0.00    +0.000 S 
ATOM     13  C   UNL     1       2.198   2.025  17.867  0.00  0.00    +0.000 C 
ATOM     14  C   UNL     1       2.886   3.378  17.588  0.00  0.00    +0.000 C 
ENDBRANCH   1   9
BRANCH   1  15
ATOM     15  C   UNL     1       4.721   5.737  18.514  0.00  0.00    +0.000 A 
ATOM     16  N   UNL     1       5.166   5.166  19.621  0.00  0.00    +0.000 NA
ATOM     17  N   UNL     1       6.519   5.356  19.646  0.00  0.00    +0.000 NA
ATOM     18  N   UNL     1       6.921   6.035  18.586  0.00  0.00    +0.000 NA
ATOM     19  N   UNL     1       5.806   6.274  17.866  0.00  0.00    +0.000 N 
BRANCH  19  20
ATOM     20  C   UNL     1       5.933   6.771  16.508  0.00  0.00    +0.000 C 
BRANCH  20  21
ATOM     21  C   UNL     1       6.125   5.747  15.412  0.00  0.00    +0.000 A 
ATOM     22  C   UNL     1       7.326   5.521  14.717  0.00  0.00    +0.000 A 
ATOM     23  C   UNL     1       7.399   4.528  13.725  0.00  0.00    +0.000 A 
ATOM     24  C   UNL     1       6.280   3.757  13.411  0.00  0.00    +0.000 A 
ATOM     25  C   UNL     1       5.087   3.962  14.097  0.00  0.00    +0.000 A 
ATOM     26  C   UNL     1       5.010   4.946  15.086  0.00  0.00    +0.000 A 
ENDBRANCH  20  21
ENDBRANCH  19  20
ENDBRANCH   1  15
TORSDOF 5
ENDMDL
MODEL 9
REMARK VINA RESULT:      -7.5      3.728      5.498
REMARK  Name = 
REMARK  5 active torsions:
REMARK  status: ('A' for Active; 'I' for Inactive)
REMARK    1  A    between atoms: C_5  and  C_6
REMARK    2  A    between atoms: C_6  and  C_7
REMARK    3  A    between atoms: C_6  and  N_19
REMARK    4  A    between atoms: N_11  and  C_12
REMARK    5  A    between atoms: C_12  and  C_13
REMARK                            x       y       z     vdW  Elec       q    Type
REMARK                         _______ _______ _______ _____ _____    ______ ____
ROOT
ATOM      1  C   UNL     1       2.713   6.854  19.296  0.00  0.00    +0.000 C 
ENDROOT
BRANCH   1   6
ATOM      2  F   UNL     1       0.329   1.717  18.823  0.00  0.00    +0.000 F 
ATOM      3  C   UNL     1       0.779   2.977  18.919  0.00  0.00    +0.000 A 
ATOM      4  C   UNL     1       1.029   3.518  20.170  0.00  0.00    +0.000 A 
ATOM      5  C   UNL     1       1.563   4.808  20.269  0.00  0.00    +0.000 A 
ATOM      6  C   UNL     1       1.865   5.575  19.119  0.00  0.00    +0.000 A 
ATOM      7  C   UNL     1       1.567   5.011  17.865  0.00  0.00    +0.000 A 
ATOM      8  C   UNL     1       1.031   3.716  17.769  0.00  0.00    +0.000 A 
ENDBRANCH   1   6
BRANCH   1   9
ATOM      9  N   UNL     1       2.031   8.154  19.531  0.00  0.00    +0.000 NA
ATOM     10  C   UNL     1       1.433   8.334  20.853  0.00  0.00    +0.000 C 
ATOM     11  C   UNL     1       0.822   9.707  21.176  0.00  0.00    +0.000 C 
ATOM     12  S   UNL     1      -0.438  10.156  19.962  0.00  0.00    +0.000 S 
ATOM     13  C   UNL     1       0.684  10.180  18.546  0.00  0.00    +0.000 C 
ATOM     14  C   UNL     1       1.516   8.892  18.373  0.00  0.00    +0.000 C 
ENDBRANCH   1   9
BRANCH   1  15
ATOM     15  C   UNL     1       3.743   6.888  18.190  0.00  0.00    +0.000 A 
ATOM     16  N   UNL     1       3.768   7.725  17.165  0.00  0.00    +0.000 NA
ATOM     17  N   UNL     1       4.831   7.363  16.387  0.00  0.00    +0.000 NA
ATOM     18  N   UNL     1       5.459   6.320  16.899  0.00  0.00    +0.000 NA
ATOM     19  N   UNL     1       4.792   6.016  18.032  0.00  0.00    +0.000 N 
BRANCH  19  20
ATOM     20  C   UNL     1       5.384   5.084  18.973  0.00  0.00    +0.000 C 
BRANCH  20  21
ATOM     21  C   UNL     1       4.853   3.667  18.970  0.00  0.00    +0.000 A 
ATOM     22  C   UNL     1       4.681   2.865  20.112  0.00  0.00    +0.000 A 
ATOM     23  C   UNL     1       4.162   1.564  19.995  0.00  0.00    +0.000 A 
ATOM     24  C   UNL     1       3.815   1.049  18.747  0.00  0.00    +0.000 A 
ATOM     25  C   UNL     1       3.970   1.834  17.609  0.00  0.00    +0.000 A 
ATOM     26  C   UNL     1       4.484   3.128  17.719  0.00  0.00    +0.000 A 
ENDBRANCH  20  21
ENDBRANCH  19  20
ENDBRANCH   1  15
TORSDOF 5
ENDMDL
