MODEL 1
REMARK VINA RESULT:      -7.5      0.000      0.000
REMARK  Name = 
REMARK  10 active torsions:
REMARK  status: ('A' for Active; 'I' for Inactive)
REMARK    1  A    between atoms: C_1  and  C_2
REMARK    2  A    between atoms: C_2  and  O_3
REMARK    3  A    between atoms: O_3  and  C_4
REMARK    4  A    between atoms: C_4  and  C_6
REMARK    5  A    between atoms: N_8  and  C_9
REMARK    6  A    between atoms: C_13  and  N_14
REMARK    7  A    between atoms: C_15  and  C_17
REMARK    8  A    between atoms: C_17  and  O_19
REMARK    9  A    between atoms: O_19  and  C_20
REMARK   10  A    between atoms: C_20  and  C_21
REMARK                            x       y       z     vdW  Elec       q    Type
REMARK                         _______ _______ _______ _____ _____    ______ ____
ROOT
ATOM      1  C   UNL     1       6.329   4.435  16.539  0.00  0.00    +0.000 A 
ATOM      2  C   UNL     1       7.428   5.090  17.104  0.00  0.00    +0.000 A 
ATOM      3  C   UNL     1       7.428   5.478  18.435  0.00  0.00    +0.000 A 
ATOM      4  C   UNL     1       6.317   5.231  19.227  0.00  0.00    +0.000 A 
ATOM      5  C   UNL     1       5.198   4.557  18.722  0.00  0.00    +0.000 A 
ATOM      6  C   UNL     1       5.212   4.160  17.364  0.00  0.00    +0.000 A 
ATOM      7 CL   UNL     1       3.877   3.248  16.724  0.00  0.00    +0.000 Cl
ENDROOT
BRANCH   1  10
ATOM      8  C   UNL     1       7.062   4.707  14.168  0.00  0.00    +0.000 C 
ATOM      9  O   UNL     1       7.870   5.618  14.300  0.00  0.00    +0.000 OA
ATOM     10  N   UNL     1       6.332   4.072  15.164  0.00  0.00    +0.000 N 
ATOM     11  H   UNL     1       5.792   3.253  14.889  0.00  0.00    +0.000 HD
BRANCH   8  12
ATOM     12  C   UNL     1       6.858   4.105  12.770  0.00  0.00    +0.000 C 
ATOM     13  O   UNL     1       7.384   4.572  11.777  0.00  0.00    +0.000 OA
BRANCH  12  14
ATOM     14  O   UNL     1       5.934   3.124  12.849  0.00  0.00    +0.000 OA
BRANCH  14  16
ATOM     15  C   UNL     1       4.153   3.225  11.271  0.00  0.00    +0.000 C 
ATOM     16  C   UNL     1       5.484   2.579  11.609  0.00  0.00    +0.000 C 
ENDBRANCH  14  16
ENDBRANCH  12  14
ENDBRANCH   8  12
ENDBRANCH   1  10
BRANCH   5  17
ATOM     17  N   UNL     1       4.071   4.300  19.551  0.00  0.00    +0.000 N 
ATOM     18  C   UNL     1       3.903   3.162  20.327  0.00  0.00    +0.000 C 
ATOM     19  O   UNL     1       4.629   2.180  20.362  0.00  0.00    +0.000 OA
ATOM     20  H   UNL     1       3.304   4.968  19.532  0.00  0.00    +0.000 HD
BRANCH  18  21
ATOM     21  C   UNL     1       2.631   3.161  21.205  0.00  0.00    +0.000 C 
ATOM     22  O   UNL     1       2.571   2.585  22.277  0.00  0.00    +0.000 OA
BRANCH  21  23
ATOM     23  O   UNL     1       1.669   3.867  20.574  0.00  0.00    +0.000 OA
BRANCH  23  24
ATOM     24  C   UNL     1       0.543   3.156  20.057  0.00  0.00    +0.000 C 
ATOM     25  C   UNL     1       0.868   2.590  18.689  0.00  0.00    +0.000 C 
ENDBRANCH  23  24
ENDBRANCH  21  23
ENDBRANCH  18  21
ENDBRANCH   5  17
TORSDOF 8
ENDMDL
MODEL 2
REMARK VINA RESULT:      -7.5      1.493      1.887
REMARK  Name = 
REMARK  10 active torsions:
REMARK  status: ('A' for Active; 'I' for Inactive)
REMARK    1  A    between atoms: C_1  and  C_2
REMARK    2  A    between atoms: C_2  and  O_3
REMARK    3  A    between atoms: O_3  and  C_4
REMARK    4  A    between atoms: C_4  and  C_6
REMARK    5  A    between atoms: N_8  and  C_9
REMARK    6  A    between atoms: C_13  and  N_14
REMARK    7  A    between atoms: C_15  and  C_17
REMARK    8  A    between atoms: C_17  and  O_19
REMARK    9  A    between atoms: O_19  and  C_20
REMARK   10  A    between atoms: C_20  and  C_21
REMARK                            x       y       z     vdW  Elec       q    Type
REMARK                         _______ _______ _______ _____ _____    ______ ____
ROOT
ATOM      1  C   UNL     1       6.130   4.218  16.478  0.00  0.00    +0.000 A 
ATOM      2  C   UNL     1       7.386   4.650  16.915  0.00  0.00    +0.000 A 
ATOM      3  C   UNL     1       7.560   5.192  18.179  0.00  0.00    +0.000 A 
ATOM      4  C   UNL     1       6.474   5.327  19.030  0.00  0.00    +0.000 A 
ATOM      5  C   UNL     1       5.197   4.889  18.655  0.00  0.00    +0.000 A 
ATOM      6  C   UNL     1       5.032   4.332  17.364  0.00  0.00    +0.000 A 
ATOM      7 CL   UNL     1       3.481   3.702  16.895  0.00  0.00    +0.000 Cl
ENDROOT
BRANCH   1  10
ATOM      8  C   UNL     1       6.386   4.307  13.997  0.00  0.00    +0.000 C 
ATOM      9  O   UNL     1       7.031   5.344  13.888  0.00  0.00    +0.000 OA
ATOM     10  N   UNL     1       5.962   3.693  15.167  0.00  0.00    +0.000 N 
ATOM     11  H   UNL     1       5.535   2.772  15.077  0.00  0.00    +0.000 HD
BRANCH   8  12
ATOM     12  C   UNL     1       6.055   3.514  12.724  0.00  0.00    +0.000 C 
ATOM     13  O   UNL     1       6.907   2.930  12.081  0.00  0.00    +0.000 OA
BRANCH  12  14
ATOM     14  O   UNL     1       4.755   3.710  12.415  0.00  0.00    +0.000 OA
BRANCH  14  16
ATOM     15  C   UNL     1       3.396   3.882  10.467  0.00  0.00    +0.000 C 
ATOM     16  C   UNL     1       4.246   2.955  11.316  0.00  0.00    +0.000 C 
ENDBRANCH  14  16
ENDBRANCH  12  14
ENDBRANCH   8  12
ENDBRANCH   1  10
BRANCH   5  17
ATOM     17  N   UNL     1       4.094   5.024  19.543  0.00  0.00    +0.000 N 
ATOM     18  C   UNL     1       3.085   5.967  19.414  0.00  0.00    +0.000 C 
ATOM     19  O   UNL     1       3.020   6.869  18.592  0.00  0.00    +0.000 OA
ATOM     20  H   UNL     1       4.070   4.427  20.367  0.00  0.00    +0.000 HD
BRANCH  18  21
ATOM     21  C   UNL     1       1.954   5.852  20.461  0.00  0.00    +0.000 C 
ATOM     22  O   UNL     1       1.409   6.825  20.952  0.00  0.00    +0.000 OA
BRANCH  21  23
ATOM     23  O   UNL     1       1.728   4.545  20.710  0.00  0.00    +0.000 OA
BRANCH  23  24
ATOM     24  C   UNL     1       0.969   3.800  19.756  0.00  0.00    +0.000 C 
ATOM     25  C   UNL     1       1.470   2.372  19.692  0.00  0.00    +0.000 C 
ENDBRANCH  23  24
ENDBRANCH  21  23
ENDBRANCH  18  21
ENDBRANCH   5  17
TORSDOF 8
ENDMDL
MODEL 3
REMARK VINA RESULT:      -7.2      0.941      1.088
REMARK  Name = 
REMARK  10 active torsions:
REMARK  status: ('A' for Active; 'I' for Inactive)
REMARK    1  A    between atoms: C_1  and  C_2
REMARK    2  A    between atoms: C_2  and  O_3
REMARK    3  A    between atoms: O_3  and  C_4
REMARK    4  A    between atoms: C_4  and  C_6
REMARK    5  A    between atoms: N_8  and  C_9
REMARK    6  A    between atoms: C_13  and  N_14
REMARK    7  A    between atoms: C_15  and  C_17
REMARK    8  A    between atoms: C_17  and  O_19
REMARK    9  A    between atoms: O_19  and  C_20
REMARK   10  A    between atoms: C_20  and  C_21
REMARK                            x       y       z     vdW  Elec       q    Type
REMARK                         _______ _______ _______ _____ _____    ______ ____
ROOT
ATOM      1  C   UNL     1       6.315   4.390  16.600  0.00  0.00    +0.000 A 
ATOM      2  C   UNL     1       7.376   5.140  17.116  0.00  0.00    +0.000 A 
ATOM      3  C   UNL     1       7.409   5.514  18.451  0.00  0.00    +0.000 A 
ATOM      4  C   UNL     1       6.370   5.157  19.296  0.00  0.00    +0.000 A 
ATOM      5  C   UNL     1       5.294   4.385  18.840  0.00  0.00    +0.000 A 
ATOM      6  C   UNL     1       5.273   4.004  17.477  0.00  0.00    +0.000 A 
ATOM      7 CL   UNL     1       3.997   2.977  16.895  0.00  0.00    +0.000 Cl
ENDROOT
BRANCH   1  10
ATOM      8  C   UNL     1       6.975   4.691  14.211  0.00  0.00    +0.000 C 
ATOM      9  O   UNL     1       7.781   5.606  14.329  0.00  0.00    +0.000 OA
ATOM     10  N   UNL     1       6.279   4.041  15.222  0.00  0.00    +0.000 N 
ATOM     11  H   UNL     1       5.736   3.221  14.955  0.00  0.00    +0.000 HD
BRANCH   8  12
ATOM     12  C   UNL     1       6.733   4.103  12.813  0.00  0.00    +0.000 C 
ATOM     13  O   UNL     1       7.438   4.378  11.860  0.00  0.00    +0.000 OA
BRANCH  12  14
ATOM     14  O   UNL     1       5.584   3.393  12.833  0.00  0.00    +0.000 OA
BRANCH  14  16
ATOM     15  C   UNL     1       3.964   3.217  11.097  0.00  0.00    +0.000 C 
ATOM     16  C   UNL     1       5.269   2.669  11.644  0.00  0.00    +0.000 C 
ENDBRANCH  14  16
ENDBRANCH  12  14
ENDBRANCH   8  12
ENDBRANCH   1  10
BRANCH   5  17
ATOM     17  N   UNL     1       4.241   4.017  19.722  0.00  0.00    +0.000 N 
ATOM     18  C   UNL     1       3.175   4.836  20.068  0.00  0.00    +0.000 C 
ATOM     19  O   UNL     1       3.011   6.005  19.753  0.00  0.00    +0.000 OA
ATOM     20  H   UNL     1       4.299   3.111  20.181  0.00  0.00    +0.000 HD
BRANCH  18  21
ATOM     21  C   UNL     1       2.117   4.171  20.977  0.00  0.00    +0.000 C 
ATOM     22  O   UNL     1       2.367   3.789  22.108  0.00  0.00    +0.000 OA
BRANCH  21  23
ATOM     23  O   UNL     1       0.952   4.092  20.301  0.00  0.00    +0.000 OA
BRANCH  23  24
ATOM     24  C   UNL     1       0.991   3.647  18.944  0.00  0.00    +0.000 C 
ATOM     25  C   UNL     1       0.722   2.157  18.876  0.00  0.00    +0.000 C 
ENDBRANCH  23  24
ENDBRANCH  21  23
ENDBRANCH  18  21
ENDBRANCH   5  17
TORSDOF 8
ENDMDL
MODEL 4
REMARK VINA RESULT:      -7.2      0.604      7.150
REMARK  Name = 
REMARK  10 active torsions:
REMARK  status: ('A' for Active; 'I' for Inactive)
REMARK    1  A    between atoms: C_1  and  C_2
REMARK    2  A    between atoms: C_2  and  O_3
REMARK    3  A    between atoms: O_3  and  C_4
REMARK    4  A    between atoms: C_4  and  C_6
REMARK    5  A    between atoms: N_8  and  C_9
REMARK    6  A    between atoms: C_13  and  N_14
REMARK    7  A    between atoms: C_15  and  C_17
REMARK    8  A    between atoms: C_17  and  O_19
REMARK    9  A    between atoms: O_19  and  C_20
REMARK   10  A    between atoms: C_20  and  C_21
REMARK                            x       y       z     vdW  Elec       q    Type
REMARK                         _______ _______ _______ _____ _____    ______ ____
ROOT
ATOM      1  C   UNL     1       5.372   4.627  18.982  0.00  0.00    +0.000 A 
ATOM      2  C   UNL     1       6.449   5.337  19.523  0.00  0.00    +0.000 A 
ATOM      3  C   UNL     1       7.574   5.623  18.766  0.00  0.00    +0.000 A 
ATOM      4  C   UNL     1       7.652   5.191  17.451  0.00  0.00    +0.000 A 
ATOM      5  C   UNL     1       6.594   4.497  16.850  0.00  0.00    +0.000 A 
ATOM      6  C   UNL     1       5.448   4.215  17.630  0.00  0.00    +0.000 A 
ATOM      7 CL   UNL     1       4.082   3.430  16.894  0.00  0.00    +0.000 Cl
ENDROOT
BRANCH   1  10
ATOM      8  C   UNL     1       3.987   3.082  20.371  0.00  0.00    +0.000 C 
ATOM      9  O   UNL     1       4.713   2.094  20.375  0.00  0.00    +0.000 OA
ATOM     10  N   UNL     1       4.238   4.314  19.781  0.00  0.00    +0.000 N 
ATOM     11  H   UNL     1       3.575   5.062  19.976  0.00  0.00    +0.000 HD
BRANCH   8  12
ATOM     12  C   UNL     1       2.675   3.030  21.167  0.00  0.00    +0.000 C 
ATOM     13  O   UNL     1       2.556   2.371  22.183  0.00  0.00    +0.000 OA
BRANCH  12  14
ATOM     14  O   UNL     1       1.722   3.694  20.479  0.00  0.00    +0.000 OA
BRANCH  14  16
ATOM     15  C   UNL     1       1.039   3.575  18.201  0.00  0.00    +0.000 C 
ATOM     16  C   UNL     1       0.946   2.919  19.566  0.00  0.00    +0.000 C 
ENDBRANCH  14  16
ENDBRANCH  12  14
ENDBRANCH   8  12
ENDBRANCH   1  10
BRANCH   5  17
ATOM     17  N   UNL     1       6.684   4.069  15.496  0.00  0.00    +0.000 N 
ATOM     18  C   UNL     1       6.353   4.849  14.396  0.00  0.00    +0.000 C 
ATOM     19  O   UNL     1       5.861   5.968  14.407  0.00  0.00    +0.000 OA
ATOM     20  H   UNL     1       6.955   3.105  15.317  0.00  0.00    +0.000 HD
BRANCH  18  21
ATOM     21  C   UNL     1       6.621   4.183  13.028  0.00  0.00    +0.000 C 
ATOM     22  O   UNL     1       7.505   4.554  12.276  0.00  0.00    +0.000 OA
BRANCH  21  23
ATOM     23  O   UNL     1       5.726   3.189  12.848  0.00  0.00    +0.000 OA
BRANCH  23  24
ATOM     24  C   UNL     1       5.453   2.763  11.512  0.00  0.00    +0.000 C 
ATOM     25  C   UNL     1       4.027   3.112  11.135  0.00  0.00    +0.000 C 
ENDBRANCH  23  24
ENDBRANCH  21  23
ENDBRANCH  18  21
ENDBRANCH   5  17
TORSDOF 8
ENDMDL
MODEL 5
REMARK VINA RESULT:      -7.1      1.372      7.331
REMARK  Name = 
REMARK  10 active torsions:
REMARK  status: ('A' for Active; 'I' for Inactive)
REMARK    1  A    between atoms: C_1  and  C_2
REMARK    2  A    between atoms: C_2  and  O_3
REMARK    3  A    between atoms: O_3  and  C_4
REMARK    4  A    between atoms: C_4  and  C_6
REMARK    5  A    between atoms: N_8  and  C_9
REMARK    6  A    between atoms: C_13  and  N_14
REMARK    7  A    between atoms: C_15  and  C_17
REMARK    8  A    between atoms: C_17  and  O_19
REMARK    9  A    between atoms: O_19  and  C_20
REMARK   10  A    between atoms: C_20  and  C_21
REMARK                            x       y       z     vdW  Elec       q    Type
REMARK                         _______ _______ _______ _____ _____    ______ ____
ROOT
ATOM      1  C   UNL     1       5.242   4.621  18.546  0.00  0.00    +0.000 A 
ATOM      2  C   UNL     1       6.511   5.063  18.935  0.00  0.00    +0.000 A 
ATOM      3  C   UNL     1       7.580   5.043  18.053  0.00  0.00    +0.000 A 
ATOM      4  C   UNL     1       7.406   4.565  16.764  0.00  0.00    +0.000 A 
ATOM      5  C   UNL     1       6.152   4.131  16.312  0.00  0.00    +0.000 A 
ATOM      6  C   UNL     1       5.066   4.162  17.219  0.00  0.00    +0.000 A 
ATOM      7 CL   UNL     1       3.479   3.711  16.669  0.00  0.00    +0.000 Cl
ENDROOT
BRANCH   1  10
ATOM      8  C   UNL     1       3.194   5.607  19.577  0.00  0.00    +0.000 C 
ATOM      9  O   UNL     1       3.052   6.593  18.864  0.00  0.00    +0.000 OA
ATOM     10  N   UNL     1       4.162   4.618  19.471  0.00  0.00    +0.000 N 
ATOM     11  H   UNL     1       4.061   3.805  20.078  0.00  0.00    +0.000 HD
BRANCH   8  12
ATOM     12  C   UNL     1       2.156   5.344  20.678  0.00  0.00    +0.000 C 
ATOM     13  O   UNL     1       1.271   6.137  20.942  0.00  0.00    +0.000 OA
BRANCH  12  14
ATOM     14  O   UNL     1       2.494   4.213  21.334  0.00  0.00    +0.000 OA
BRANCH  14  16
ATOM     15  C   UNL     1       1.404   2.391  20.256  0.00  0.00    +0.000 C 
ATOM     16  C   UNL     1       1.456   3.249  21.507  0.00  0.00    +0.000 C 
ENDBRANCH  14  16
ENDBRANCH  12  14
ENDBRANCH   8  12
ENDBRANCH   1  10
BRANCH   5  17
ATOM     17  N   UNL     1       5.987   3.653  14.982  0.00  0.00    +0.000 N 
ATOM     18  C   UNL     1       6.480   4.283  13.848  0.00  0.00    +0.000 C 
ATOM     19  O   UNL     1       7.047   5.364  13.793  0.00  0.00    +0.000 OA
ATOM     20  H   UNL     1       5.417   2.822  14.842  0.00  0.00    +0.000 HD
BRANCH  18  21
ATOM     21  C   UNL     1       6.240   3.517  12.528  0.00  0.00    +0.000 C 
ATOM     22  O   UNL     1       7.065   2.761  12.045  0.00  0.00    +0.000 OA
BRANCH  21  23
ATOM     23  O   UNL     1       5.022   3.849  12.051  0.00  0.00    +0.000 OA
BRANCH  23  24
ATOM     24  C   UNL     1       4.323   2.885  11.262  0.00  0.00    +0.000 C 
ATOM     25  C   UNL     1       3.312   3.575  10.369  0.00  0.00    +0.000 C 
ENDBRANCH  23  24
ENDBRANCH  21  23
ENDBRANCH  18  21
ENDBRANCH   5  17
TORSDOF 8
ENDMDL
MODEL 6
REMARK VINA RESULT:      -7.0      1.283      7.368
REMARK  Name = 
REMARK  10 active torsions:
REMARK  status: ('A' for Active; 'I' for Inactive)
REMARK    1  A    between atoms: C_1  and  C_2
REMARK    2  A    between atoms: C_2  and  O_3
REMARK    3  A    between atoms: O_3  and  C_4
REMARK    4  A    between atoms: C_4  and  C_6
REMARK    5  A    between atoms: N_8  and  C_9
REMARK    6  A    between atoms: C_13  and  N_14
REMARK    7  A    between atoms: C_15  and  C_17
REMARK    8  A    between atoms: C_17  and  O_19
REMARK    9  A    between atoms: O_19  and  C_20
REMARK   10  A    between atoms: C_20  and  C_21
REMARK                            x       y       z     vdW  Elec       q    Type
REMARK                         _______ _______ _______ _____ _____    ______ ____
ROOT
ATOM      1  C   UNL     1       5.232   4.879  18.769  0.00  0.00    +0.000 A 
ATOM      2  C   UNL     1       6.464   5.306  19.275  0.00  0.00    +0.000 A 
ATOM      3  C   UNL     1       7.588   5.373  18.467  0.00  0.00    +0.000 A 
ATOM      4  C   UNL     1       7.507   4.998  17.135  0.00  0.00    +0.000 A 
ATOM      5  C   UNL     1       6.294   4.586  16.568  0.00  0.00    +0.000 A 
ATOM      6  C   UNL     1       5.151   4.527  17.400  0.00  0.00    +0.000 A 
ATOM      7 CL   UNL     1       3.612   4.100  16.713  0.00  0.00    +0.000 Cl
ENDROOT
BRANCH   1  10
ATOM      8  C   UNL     1       3.079   5.728  19.705  0.00  0.00    +0.000 C 
ATOM      9  O   UNL     1       2.942   6.742  19.032  0.00  0.00    +0.000 OA
ATOM     10  N   UNL     1       4.095   4.785  19.617  0.00  0.00    +0.000 N 
ATOM     11  H   UNL     1       3.989   3.940  20.176  0.00  0.00    +0.000 HD
BRANCH   8  12
ATOM     12  C   UNL     1       1.983   5.368  20.719  0.00  0.00    +0.000 C 
ATOM     13  O   UNL     1       1.099   6.145  21.025  0.00  0.00    +0.000 OA
BRANCH  12  14
ATOM     14  O   UNL     1       2.271   4.165  21.262  0.00  0.00    +0.000 OA
BRANCH  14  16
ATOM     15  C   UNL     1       1.504   2.388  19.875  0.00  0.00    +0.000 C 
ATOM     16  C   UNL     1       1.258   3.165  21.155  0.00  0.00    +0.000 C 
ENDBRANCH  14  16
ENDBRANCH  12  14
ENDBRANCH   8  12
ENDBRANCH   1  10
BRANCH   5  17
ATOM     17  N   UNL     1       6.224   4.216  15.196  0.00  0.00    +0.000 N 
ATOM     18  C   UNL     1       7.040   4.726  14.196  0.00  0.00    +0.000 C 
ATOM     19  O   UNL     1       7.872   5.615  14.305  0.00  0.00    +0.000 OA
ATOM     20  H   UNL     1       5.486   3.575  14.912  0.00  0.00    +0.000 HD
BRANCH  18  21
ATOM     21  C   UNL     1       6.822   4.098  12.801  0.00  0.00    +0.000 C 
ATOM     22  O   UNL     1       7.394   4.498  11.802  0.00  0.00    +0.000 OA
BRANCH  21  23
ATOM     23  O   UNL     1       5.919   3.101  12.911  0.00  0.00    +0.000 OA
BRANCH  23  24
ATOM     24  C   UNL     1       5.290   2.628  11.719  0.00  0.00    +0.000 C 
ATOM     25  C   UNL     1       5.958   1.352  11.248  0.00  0.00    +0.000 C 
ENDBRANCH  23  24
ENDBRANCH  21  23
ENDBRANCH  18  21
ENDBRANCH   5  17
TORSDOF 8
ENDMDL
MODEL 7
REMARK VINA RESULT:      -6.9      3.312      5.486
REMARK  Name = 
REMARK  10 active torsions:
REMARK  status: ('A' for Active; 'I' for Inactive)
REMARK    1  A    between atoms: C_1  and  C_2
REMARK    2  A    between atoms: C_2  and  O_3
REMARK    3  A    between atoms: O_3  and  C_4
REMARK    4  A    between atoms: C_4  and  C_6
REMARK    5  A    between atoms: N_8  and  C_9
REMARK    6  A    between atoms: C_13  and  N_14
REMARK    7  A    between atoms: C_15  and  C_17
REMARK    8  A    between atoms: C_17  and  O_19
REMARK    9  A    between atoms: O_19  and  C_20
REMARK   10  A    between atoms: C_20  and  C_21
REMARK                            x       y       z     vdW  Elec       q    Type
REMARK                         _______ _______ _______ _____ _____    ______ ____
ROOT
ATOM      1  C   UNL     1       6.404   6.234  16.548  0.00  0.00    +0.000 A 
ATOM      2  C   UNL     1       7.107   5.331  15.743  0.00  0.00    +0.000 A 
ATOM      3  C   UNL     1       6.579   4.089  15.427  0.00  0.00    +0.000 A 
ATOM      4  C   UNL     1       5.339   3.718  15.923  0.00  0.00    +0.000 A 
ATOM      5  C   UNL     1       4.580   4.590  16.714  0.00  0.00    +0.000 A 
ATOM      6  C   UNL     1       5.126   5.858  17.025  0.00  0.00    +0.000 A 
ATOM      7 CL   UNL     1       4.179   6.999  17.933  0.00  0.00    +0.000 Cl
ENDROOT
BRANCH   1  10
ATOM      8  C   UNL     1       7.786   7.733  17.989  0.00  0.00    +0.000 C 
ATOM      9  O   UNL     1       8.212   6.916  18.796  0.00  0.00    +0.000 OA
ATOM     10  N   UNL     1       6.973   7.492  16.889  0.00  0.00    +0.000 N 
ATOM     11  H   UNL     1       6.810   8.273  16.256  0.00  0.00    +0.000 HD
BRANCH   8  12
ATOM     12  C   UNL     1       8.244   9.194  18.114  0.00  0.00    +0.000 C 
ATOM     13  O   UNL     1       7.939  10.044  17.300  0.00  0.00    +0.000 OA
BRANCH  12  14
ATOM     14  O   UNL     1       9.104   9.292  19.151  0.00  0.00    +0.000 OA
BRANCH  14  16
ATOM     15  C   UNL     1       9.276  11.058  20.739  0.00  0.00    +0.000 C 
ATOM     16  C   UNL     1       9.693  10.575  19.363  0.00  0.00    +0.000 C 
ENDBRANCH  14  16
ENDBRANCH  12  14
ENDBRANCH   8  12
ENDBRANCH   1  10
BRANCH   5  17
ATOM     17  N   UNL     1       3.304   4.198  17.206  0.00  0.00    +0.000 N 
ATOM     18  C   UNL     1       3.099   3.378  18.306  0.00  0.00    +0.000 C 
ATOM     19  O   UNL     1       3.951   2.800  18.964  0.00  0.00    +0.000 OA
ATOM     20  H   UNL     1       2.482   4.491  16.684  0.00  0.00    +0.000 HD
BRANCH  18  21
ATOM     21  C   UNL     1       1.616   3.171  18.690  0.00  0.00    +0.000 C 
ATOM     22  O   UNL     1       0.975   2.193  18.343  0.00  0.00    +0.000 OA
BRANCH  21  23
ATOM     23  O   UNL     1       1.206   4.229  19.420  0.00  0.00    +0.000 OA
BRANCH  23  24
ATOM     24  C   UNL     1       1.722   4.372  20.745  0.00  0.00    +0.000 C 
ATOM     25  C   UNL     1       1.621   3.056  21.489  0.00  0.00    +0.000 C 
ENDBRANCH  23  24
ENDBRANCH  21  23
ENDBRANCH  18  21
ENDBRANCH   5  17
TORSDOF 8
ENDMDL
MODEL 8
REMARK VINA RESULT:      -6.8      1.162      7.178
REMARK  Name = 
REMARK  10 active torsions:
REMARK  status: ('A' for Active; 'I' for Inactive)
REMARK    1  A    between atoms: C_1  and  C_2
REMARK    2  A    between atoms: C_2  and  O_3
REMARK    3  A    between atoms: O_3  and  C_4
REMARK    4  A    between atoms: C_4  and  C_6
REMARK    5  A    between atoms: N_8  and  C_9
REMARK    6  A    between atoms: C_13  and  N_14
REMARK    7  A    between atoms: C_15  and  C_17
REMARK    8  A    between atoms: C_17  and  O_19
REMARK    9  A    between atoms: O_19  and  C_20
REMARK   10  A    between atoms: C_20  and  C_21
REMARK                            x       y       z     vdW  Elec       q    Type
REMARK                         _______ _______ _______ _____ _____    ______ ____
ROOT
ATOM      1  C   UNL     1       5.344   4.538  19.108  0.00  0.00    +0.000 A 
ATOM      2  C   UNL     1       6.319   5.316  19.741  0.00  0.00    +0.000 A 
ATOM      3  C   UNL     1       7.457   5.729  19.067  0.00  0.00    +0.000 A 
ATOM      4  C   UNL     1       7.652   5.358  17.746  0.00  0.00    +0.000 A 
ATOM      5  C   UNL     1       6.699   4.600  17.055  0.00  0.00    +0.000 A 
ATOM      6  C   UNL     1       5.537   4.189  17.750  0.00  0.00    +0.000 A 
ATOM      7 CL   UNL     1       4.294   3.319  16.902  0.00  0.00    +0.000 Cl
ENDROOT
BRANCH   1  10
ATOM      8  C   UNL     1       3.111   4.890  20.168  0.00  0.00    +0.000 C 
ATOM      9  O   UNL     1       2.915   6.060  19.864  0.00  0.00    +0.000 OA
ATOM     10  N   UNL     1       4.196   4.095  19.822  0.00  0.00    +0.000 N 
ATOM     11  H   UNL     1       4.140   3.107  20.063  0.00  0.00    +0.000 HD
BRANCH   8  12
ATOM     12  C   UNL     1       2.021   4.144  20.952  0.00  0.00    +0.000 C 
ATOM     13  O   UNL     1       2.242   3.597  22.016  0.00  0.00    +0.000 OA
BRANCH  12  14
ATOM     14  O   UNL     1       0.899   4.102  20.202  0.00  0.00    +0.000 OA
BRANCH  14  16
ATOM     15  C   UNL     1       0.734   2.124  18.887  0.00  0.00    +0.000 C 
ATOM     16  C   UNL     1       1.046   3.609  18.871  0.00  0.00    +0.000 C 
ENDBRANCH  14  16
ENDBRANCH  12  14
ENDBRANCH   8  12
ENDBRANCH   1  10
BRANCH   5  17
ATOM     17  N   UNL     1       6.908   4.237  15.695  0.00  0.00    +0.000 N 
ATOM     18  C   UNL     1       6.493   4.987  14.603  0.00  0.00    +0.000 C 
ATOM     19  O   UNL     1       5.822   6.008  14.622  0.00  0.00    +0.000 OA
ATOM     20  H   UNL     1       7.341   3.337  15.503  0.00  0.00    +0.000 HD
BRANCH  18  21
ATOM     21  C   UNL     1       6.917   4.418  13.230  0.00  0.00    +0.000 C 
ATOM     22  O   UNL     1       7.656   5.018  12.468  0.00  0.00    +0.000 OA
BRANCH  21  23
ATOM     23  O   UNL     1       6.329   3.215  13.060  0.00  0.00    +0.000 OA
BRANCH  23  24
ATOM     24  C   UNL     1       5.592   2.992  11.856  0.00  0.00    +0.000 C 
ATOM     25  C   UNL     1       5.892   1.611  11.309  0.00  0.00    +0.000 C 
ENDBRANCH  23  24
ENDBRANCH  21  23
ENDBRANCH  18  21
ENDBRANCH   5  17
TORSDOF 8
ENDMDL
MODEL 9
REMARK VINA RESULT:      -6.8      1.487      1.955
REMARK  Name = 
REMARK  10 active torsions:
REMARK  status: ('A' for Active; 'I' for Inactive)
REMARK    1  A    between atoms: C_1  and  C_2
REMARK    2  A    between atoms: C_2  and  O_3
REMARK    3  A    between atoms: O_3  and  C_4
REMARK    4  A    between atoms: C_4  and  C_6
REMARK    5  A    between atoms: N_8  and  C_9
REMARK    6  A    between atoms: C_13  and  N_14
REMARK    7  A    between atoms: C_15  and  C_17
REMARK    8  A    between atoms: C_17  and  O_19
REMARK    9  A    between atoms: O_19  and  C_20
REMARK   10  A    between atoms: C_20  and  C_21
REMARK                            x       y       z     vdW  Elec       q    Type
REMARK                         _______ _______ _______ _____ _____    ______ ____
ROOT
ATOM      1  C   UNL     1       6.147   4.077  16.268  0.00  0.00    +0.000 A 
ATOM      2  C   UNL     1       7.404   4.559  16.648  0.00  0.00    +0.000 A 
ATOM      3  C   UNL     1       7.622   5.075  17.916  0.00  0.00    +0.000 A 
ATOM      4  C   UNL     1       6.580   5.133  18.829  0.00  0.00    +0.000 A 
ATOM      5  C   UNL     1       5.307   4.643  18.511  0.00  0.00    +0.000 A 
ATOM      6  C   UNL     1       5.097   4.112  17.217  0.00  0.00    +0.000 A 
ATOM      7 CL   UNL     1       3.554   3.418  16.815  0.00  0.00    +0.000 Cl
ENDROOT
BRANCH   1  10
ATOM      8  C   UNL     1       6.399   4.167  13.786  0.00  0.00    +0.000 C 
ATOM      9  O   UNL     1       7.127   5.147  13.684  0.00  0.00    +0.000 OA
ATOM     10  N   UNL     1       5.930   3.579  14.954  0.00  0.00    +0.000 N 
ATOM     11  H   UNL     1       5.429   2.698  14.857  0.00  0.00    +0.000 HD
BRANCH   8  12
ATOM     12  C   UNL     1       5.999   3.415  12.508  0.00  0.00    +0.000 C 
ATOM     13  O   UNL     1       4.880   3.485  12.035  0.00  0.00    +0.000 OA
BRANCH  12  14
ATOM     14  O   UNL     1       7.020   2.613  12.138  0.00  0.00    +0.000 OA
BRANCH  14  16
ATOM     15  C   UNL     1       6.306   0.535  11.220  0.00  0.00    +0.000 C 
ATOM     16  C   UNL     1       6.858   1.913  10.905  0.00  0.00    +0.000 C 
ENDBRANCH  14  16
ENDBRANCH  12  14
ENDBRANCH   8  12
ENDBRANCH   1  10
BRANCH   5  17
ATOM     17  N   UNL     1       4.251   4.699  19.463  0.00  0.00    +0.000 N 
ATOM     18  C   UNL     1       3.260   5.670  19.489  0.00  0.00    +0.000 C 
ATOM     19  O   UNL     1       3.179   6.659  18.776  0.00  0.00    +0.000 OA
ATOM     20  H   UNL     1       4.250   4.014  20.215  0.00  0.00    +0.000 HD
BRANCH  18  21
ATOM     21  C   UNL     1       2.177   5.460  20.571  0.00  0.00    +0.000 C 
ATOM     22  O   UNL     1       1.391   6.333  20.896  0.00  0.00    +0.000 OA
BRANCH  21  23
ATOM     23  O   UNL     1       2.289   4.206  21.057  0.00  0.00    +0.000 OA
BRANCH  23  24
ATOM     24  C   UNL     1       1.152   3.345  20.966  0.00  0.00    +0.000 C 
ATOM     25  C   UNL     1       0.979   2.860  19.541  0.00  0.00    +0.000 C 
ENDBRANCH  23  24
ENDBRANCH  21  23
ENDBRANCH  18  21
ENDBRANCH   5  17
TORSDOF 8
ENDMDL
