MODEL 1
REMARK VINA RESULT:      -7.7      0.000      0.000
REMARK  Name = 
REMARK  8 active torsions:
REMARK  status: ('A' for Active; 'I' for Inactive)
REMARK    1  A    between atoms: C_1  and  O_2
REMARK    2  A    between atoms: O_2  and  C_3
REMARK    3  A    between atoms: C_6  and  C_7
REMARK    4  A    between atoms: C_7  and  C_8
REMARK    5  A    between atoms: C_7  and  N_20
REMARK    6  A    between atoms: C_8  and  N_9
REMARK    7  A    between atoms: N_12  and  C_13
REMARK    8  A    between atoms: N_23  and  C_24
REMARK                            x       y       z     vdW  Elec       q    Type
REMARK                         _______ _______ _______ _____ _____    ______ ____
ROOT
ATOM      1  C   UNL     1       3.439   5.223  17.541  0.00  0.00    +0.000 C 
ENDROOT
BRANCH   1   2
ATOM      2  N   UNL     1       3.239   3.912  18.233  0.00  0.00    +0.000 NA
ATOM      3  C   UNL     1       1.793   3.563  18.283  0.00  0.00    +0.000 C 
ATOM      4  C   UNL     1       1.514   2.247  19.048  0.00  0.00    +0.000 C 
ATOM      5  N   UNL     1       2.055   2.204  20.420  0.00  0.00    +0.000 NA
ATOM      6  C   UNL     1       1.296   3.062  21.329  0.00  0.00    +0.000 C 
ATOM      7  C   UNL     1       3.476   2.596  20.370  0.00  0.00    +0.000 C 
ATOM      8  C   UNL     1       3.761   3.919  19.620  0.00  0.00    +0.000 C 
ENDBRANCH   1   2
BRANCH   1  12
ATOM      9  C   UNL     1       7.034   5.283  15.075  0.00  0.00    +0.000 A 
ATOM     10  C   UNL     1       5.891   4.624  14.622  0.00  0.00    +0.000 A 
ATOM     11  C   UNL     1       4.728   4.592  15.401  0.00  0.00    +0.000 A 
ATOM     12  C   UNL     1       4.703   5.192  16.668  0.00  0.00    +0.000 A 
ATOM     13  C   UNL     1       5.869   5.828  17.124  0.00  0.00    +0.000 A 
ATOM     14  C   UNL     1       7.022   5.877  16.336  0.00  0.00    +0.000 A 
BRANCH   9  16
ATOM     15  C   UNL     1       7.802   5.151  12.847  0.00  0.00    +0.000 C 
ATOM     16  O   UNL     1       8.114   5.262  14.234  0.00  0.00    +0.000 OA
ENDBRANCH   9  16
ENDBRANCH   1  12
BRANCH   1  17
ATOM     17  C   UNL     1       3.476   6.472  18.502  0.00  0.00    +0.000 C 
BRANCH  17  18
ATOM     18  N   UNL     1       2.876   7.690  17.955  0.00  0.00    +0.000 N 
ATOM     19  C   UNL     1       1.955   8.359  18.726  0.00  0.00    +0.000 C 
ATOM     20  O   UNL     1       1.645   7.952  19.841  0.00  0.00    +0.000 OA
ATOM     21  N   UNL     1       1.430   9.457  18.092  0.00  0.00    +0.000 N 
ATOM     22  H   UNL     1       3.494   8.291  17.430  0.00  0.00    +0.000 HD
ATOM     23  H   UNL     1       1.590   9.506  17.096  0.00  0.00    +0.000 HD
BRANCH  21  24
ATOM     24  C   UNL     1       0.441  10.305  18.640  0.00  0.00    +0.000 A 
ATOM     25  C   UNL     1      -0.909  10.224  18.268  0.00  0.00    +0.000 A 
ATOM     26  C   UNL     1      -1.850  11.112  18.784  0.00  0.00    +0.000 A 
ATOM     27  C   UNL     1      -1.456  12.080  19.694  0.00  0.00    +0.000 A 
ATOM     28 CL   UNL     1      -2.618  13.178  20.323  0.00  0.00    +0.000 Cl
ATOM     29  C   UNL     1      -0.123  12.160  20.101  0.00  0.00    +0.000 A 
ATOM     30  C   UNL     1       0.823  11.268  19.577  0.00  0.00    +0.000 A 
ENDBRANCH  21  24
ENDBRANCH  17  18
ENDBRANCH   1  17
TORSDOF 6
ENDMDL
MODEL 2
REMARK VINA RESULT:      -7.7      0.166      1.287
REMARK  Name = 
REMARK  8 active torsions:
REMARK  status: ('A' for Active; 'I' for Inactive)
REMARK    1  A    between atoms: C_1  and  O_2
REMARK    2  A    between atoms: O_2  and  C_3
REMARK    3  A    between atoms: C_6  and  C_7
REMARK    4  A    between atoms: C_7  and  C_8
REMARK    5  A    between atoms: C_7  and  N_20
REMARK    6  A    between atoms: C_8  and  N_9
REMARK    7  A    between atoms: N_12  and  C_13
REMARK    8  A    between atoms: N_23  and  C_24
REMARK                            x       y       z     vdW  Elec       q    Type
REMARK                         _______ _______ _______ _____ _____    ______ ____
ROOT
ATOM      1  C   UNL     1       3.372   5.235  17.554  0.00  0.00    +0.000 C 
ENDROOT
BRANCH   1   2
ATOM      2  N   UNL     1       3.215   3.916  18.242  0.00  0.00    +0.000 NA
ATOM      3  C   UNL     1       1.781   3.519  18.289  0.00  0.00    +0.000 C 
ATOM      4  C   UNL     1       1.545   2.193  19.050  0.00  0.00    +0.000 C 
ATOM      5  N   UNL     1       2.086   2.164  20.422  0.00  0.00    +0.000 NA
ATOM      6  C   UNL     1       1.298   2.993  21.333  0.00  0.00    +0.000 C 
ATOM      7  C   UNL     1       3.493   2.602  20.375  0.00  0.00    +0.000 C 
ATOM      8  C   UNL     1       3.735   3.937  19.629  0.00  0.00    +0.000 C 
ENDBRANCH   1   2
BRANCH   1  12
ATOM      9  C   UNL     1       6.939   5.108  15.049  0.00  0.00    +0.000 A 
ATOM     10  C   UNL     1       6.864   6.013  16.108  0.00  0.00    +0.000 A 
ATOM     11  C   UNL     1       5.726   6.071  16.921  0.00  0.00    +0.000 A 
ATOM     12  C   UNL     1       4.625   5.242  16.665  0.00  0.00    +0.000 A 
ATOM     13  C   UNL     1       4.701   4.354  15.579  0.00  0.00    +0.000 A 
ATOM     14  C   UNL     1       5.847   4.284  14.781  0.00  0.00    +0.000 A 
BRANCH   9  16
ATOM     15  C   UNL     1       7.935   5.374  12.926  0.00  0.00    +0.000 C 
ATOM     16  O   UNL     1       8.097   5.128  14.321  0.00  0.00    +0.000 OA
ENDBRANCH   9  16
ENDBRANCH   1  12
BRANCH   1  17
ATOM     17  C   UNL     1       3.388   6.480  18.520  0.00  0.00    +0.000 C 
BRANCH  17  18
ATOM     18  N   UNL     1       2.824   7.707  17.956  0.00  0.00    +0.000 N 
ATOM     19  C   UNL     1       1.950   8.432  18.732  0.00  0.00    +0.000 C 
ATOM     20  O   UNL     1       1.653   8.067  19.865  0.00  0.00    +0.000 OA
ATOM     21  N   UNL     1       1.453   9.534  18.082  0.00  0.00    +0.000 N 
ATOM     22  H   UNL     1       3.451   8.269  17.401  0.00  0.00    +0.000 HD
ATOM     23  H   UNL     1       1.589   9.552  17.082  0.00  0.00    +0.000 HD
BRANCH  21  24
ATOM     24  C   UNL     1       0.513  10.435  18.632  0.00  0.00    +0.000 A 
ATOM     25  C   UNL     1       0.875  11.435  19.546  0.00  0.00    +0.000 A 
ATOM     26  C   UNL     1      -0.084  12.270  20.114  0.00  0.00    +0.000 A 
ATOM     27  C   UNL     1      -1.416  12.127  19.761  0.00  0.00    +0.000 A 
ATOM     28 CL   UNL     1      -2.598  13.154  20.469  0.00  0.00    +0.000 Cl
ATOM     29  C   UNL     1      -1.796  11.158  18.831  0.00  0.00    +0.000 A 
ATOM     30  C   UNL     1      -0.829  10.316  18.264  0.00  0.00    +0.000 A 
ENDBRANCH  21  24
ENDBRANCH  17  18
ENDBRANCH   1  17
TORSDOF 6
ENDMDL
MODEL 3
REMARK VINA RESULT:      -7.3      1.361      1.788
REMARK  Name = 
REMARK  8 active torsions:
REMARK  status: ('A' for Active; 'I' for Inactive)
REMARK    1  A    between atoms: C_1  and  O_2
REMARK    2  A    between atoms: O_2  and  C_3
REMARK    3  A    between atoms: C_6  and  C_7
REMARK    4  A    between atoms: C_7  and  C_8
REMARK    5  A    between atoms: C_7  and  N_20
REMARK    6  A    between atoms: C_8  and  N_9
REMARK    7  A    between atoms: N_12  and  C_13
REMARK    8  A    between atoms: N_23  and  C_24
REMARK                            x       y       z     vdW  Elec       q    Type
REMARK                         _______ _______ _______ _____ _____    ______ ____
ROOT
ATOM      1  C   UNL     1       3.156   5.441  17.784  0.00  0.00    +0.000 C 
ENDROOT
BRANCH   1   2
ATOM      2  N   UNL     1       2.873   4.078  18.332  0.00  0.00    +0.000 NA
ATOM      3  C   UNL     1       1.417   3.911  18.589  0.00  0.00    +0.000 C 
ATOM      4  C   UNL     1       1.067   2.542  19.221  0.00  0.00    +0.000 C 
ATOM      5  N   UNL     1       1.802   2.230  20.461  0.00  0.00    +0.000 NA
ATOM      6  C   UNL     1       1.329   3.033  21.588  0.00  0.00    +0.000 C 
ATOM      7  C   UNL     1       3.240   2.442  20.214  0.00  0.00    +0.000 C 
ATOM      8  C   UNL     1       3.599   3.816  19.596  0.00  0.00    +0.000 C 
ENDBRANCH   1   2
BRANCH   1  12
ATOM      9  C   UNL     1       6.756   5.258  15.331  0.00  0.00    +0.000 A 
ATOM     10  C   UNL     1       6.687   6.152  16.400  0.00  0.00    +0.000 A 
ATOM     11  C   UNL     1       5.539   6.227  17.197  0.00  0.00    +0.000 A 
ATOM     12  C   UNL     1       4.422   5.428  16.914  0.00  0.00    +0.000 A 
ATOM     13  C   UNL     1       4.493   4.553  15.818  0.00  0.00    +0.000 A 
ATOM     14  C   UNL     1       5.649   4.465  15.037  0.00  0.00    +0.000 A 
BRANCH   9  16
ATOM     15  C   UNL     1       7.781   5.112  13.210  0.00  0.00    +0.000 C 
ATOM     16  O   UNL     1       7.926   5.259  14.621  0.00  0.00    +0.000 OA
ENDBRANCH   9  16
ENDBRANCH   1  12
BRANCH   1  17
ATOM     17  C   UNL     1       3.260   6.576  18.873  0.00  0.00    +0.000 C 
BRANCH  17  18
ATOM     18  N   UNL     1       2.331   7.692  18.692  0.00  0.00    +0.000 N 
ATOM     19  C   UNL     1       1.769   8.253  19.816  0.00  0.00    +0.000 C 
ATOM     20  O   UNL     1       2.040   7.836  20.937  0.00  0.00    +0.000 OA
ATOM     21  N   UNL     1       0.882   9.258  19.520  0.00  0.00    +0.000 N 
ATOM     22  H   UNL     1       2.570   8.356  17.972  0.00  0.00    +0.000 HD
ATOM     23  H   UNL     1       0.577   9.305  18.558  0.00  0.00    +0.000 HD
BRANCH  21  24
ATOM     24  C   UNL     1       0.139   9.981  20.480  0.00  0.00    +0.000 A 
ATOM     25  C   UNL     1       0.099   9.614  21.833  0.00  0.00    +0.000 A 
ATOM     26  C   UNL     1      -0.689  10.313  22.744  0.00  0.00    +0.000 A 
ATOM     27  C   UNL     1      -1.432  11.402  22.316  0.00  0.00    +0.000 A 
ATOM     28 CL   UNL     1      -2.409  12.258  23.442  0.00  0.00    +0.000 Cl
ATOM     29  C   UNL     1      -1.384  11.804  20.981  0.00  0.00    +0.000 A 
ATOM     30  C   UNL     1      -0.595  11.095  20.065  0.00  0.00    +0.000 A 
ENDBRANCH  21  24
ENDBRANCH  17  18
ENDBRANCH   1  17
TORSDOF 6
ENDMDL
MODEL 4
REMARK VINA RESULT:      -7.2      1.126      1.400
REMARK  Name = 
REMARK  8 active torsions:
REMARK  status: ('A' for Active; 'I' for Inactive)
REMARK    1  A    between atoms: C_1  and  O_2
REMARK    2  A    between atoms: O_2  and  C_3
REMARK    3  A    between atoms: C_6  and  C_7
REMARK    4  A    between atoms: C_7  and  C_8
REMARK    5  A    between atoms: C_7  and  N_20
REMARK    6  A    between atoms: C_8  and  N_9
REMARK    7  A    between atoms: N_12  and  C_13
REMARK    8  A    between atoms: N_23  and  C_24
REMARK                            x       y       z     vdW  Elec       q    Type
REMARK                         _______ _______ _______ _____ _____    ______ ____
ROOT
ATOM      1  C   UNL     1       3.444   6.154  18.071  0.00  0.00    +0.000 C 
ENDROOT
BRANCH   1   2
ATOM      2  N   UNL     1       3.464   5.271  19.278  0.00  0.00    +0.000 NA
ATOM      3  C   UNL     1       3.544   3.840  18.878  0.00  0.00    +0.000 C 
ATOM      4  C   UNL     1       3.500   2.871  20.083  0.00  0.00    +0.000 C 
ATOM      5  N   UNL     1       2.336   3.044  20.973  0.00  0.00    +0.000 NA
ATOM      6  C   UNL     1       1.104   2.559  20.354  0.00  0.00    +0.000 C 
ATOM      7  C   UNL     1       2.234   4.471  21.329  0.00  0.00    +0.000 C 
ATOM      8  C   UNL     1       2.262   5.446  20.126  0.00  0.00    +0.000 C 
ENDBRANCH   1   2
BRANCH   1  12
ATOM      9  C   UNL     1       6.896   5.482  15.495  0.00  0.00    +0.000 A 
ATOM     10  C   UNL     1       5.648   4.976  15.131  0.00  0.00    +0.000 A 
ATOM     11  C   UNL     1       4.528   5.179  15.947  0.00  0.00    +0.000 A 
ATOM     12  C   UNL     1       4.649   5.866  17.163  0.00  0.00    +0.000 A 
ATOM     13  C   UNL     1       5.916   6.346  17.532  0.00  0.00    +0.000 A 
ATOM     14  C   UNL     1       7.028   6.160  16.706  0.00  0.00    +0.000 A 
BRANCH   9  16
ATOM     15  C   UNL     1       7.527   4.876  13.302  0.00  0.00    +0.000 C 
ATOM     16  O   UNL     1       7.923   5.234  14.625  0.00  0.00    +0.000 OA
ENDBRANCH   9  16
ENDBRANCH   1  12
BRANCH   1  17
ATOM     17  C   UNL     1       3.360   7.696  18.388  0.00  0.00    +0.000 C 
BRANCH  17  18
ATOM     18  N   UNL     1       2.333   8.425  17.644  0.00  0.00    +0.000 N 
ATOM     19  C   UNL     1       1.319   9.019  18.358  0.00  0.00    +0.000 C 
ATOM     20  O   UNL     1       1.276   8.946  19.582  0.00  0.00    +0.000 OA
ATOM     21  N   UNL     1       0.392   9.634  17.553  0.00  0.00    +0.000 N 
ATOM     22  H   UNL     1       2.655   8.963  16.854  0.00  0.00    +0.000 HD
ATOM     23  H   UNL     1       0.428   9.385  16.575  0.00  0.00    +0.000 HD
BRANCH  21  24
ATOM     24  C   UNL     1      -0.768  10.292  18.020  0.00  0.00    +0.000 A 
ATOM     25  C   UNL     1      -2.052   9.977  17.551  0.00  0.00    +0.000 A 
ATOM     26  C   UNL     1      -3.169  10.683  17.989  0.00  0.00    +0.000 A 
ATOM     27  C   UNL     1      -3.019  11.702  18.916  0.00  0.00    +0.000 A 
ATOM     28 CL   UNL     1      -4.399  12.576  19.449  0.00  0.00    +0.000 Cl
ATOM     29  C   UNL     1      -1.754  12.013  19.419  0.00  0.00    +0.000 A 
ATOM     30  C   UNL     1      -0.630  11.304  18.973  0.00  0.00    +0.000 A 
ENDBRANCH  21  24
ENDBRANCH  17  18
ENDBRANCH   1  17
TORSDOF 6
ENDMDL
MODEL 5
REMARK VINA RESULT:      -7.2      1.201      1.374
REMARK  Name = 
REMARK  8 active torsions:
REMARK  status: ('A' for Active; 'I' for Inactive)
REMARK    1  A    between atoms: C_1  and  O_2
REMARK    2  A    between atoms: O_2  and  C_3
REMARK    3  A    between atoms: C_6  and  C_7
REMARK    4  A    between atoms: C_7  and  C_8
REMARK    5  A    between atoms: C_7  and  N_20
REMARK    6  A    between atoms: C_8  and  N_9
REMARK    7  A    between atoms: N_12  and  C_13
REMARK    8  A    between atoms: N_23  and  C_24
REMARK                            x       y       z     vdW  Elec       q    Type
REMARK                         _______ _______ _______ _____ _____    ______ ____
ROOT
ATOM      1  C   UNL     1       3.222   5.365  17.945  0.00  0.00    +0.000 C 
ENDROOT
BRANCH   1   2
ATOM      2  N   UNL     1       2.904   3.994  18.452  0.00  0.00    +0.000 NA
ATOM      3  C   UNL     1       1.443   3.854  18.700  0.00  0.00    +0.000 C 
ATOM      4  C   UNL     1       1.059   2.477  19.291  0.00  0.00    +0.000 C 
ATOM      5  N   UNL     1       1.781   2.110  20.523  0.00  0.00    +0.000 NA
ATOM      6  C   UNL     1       1.325   2.891  21.672  0.00  0.00    +0.000 C 
ATOM      7  C   UNL     1       3.225   2.294  20.286  0.00  0.00    +0.000 C 
ATOM      8  C   UNL     1       3.619   3.676  19.710  0.00  0.00    +0.000 C 
ENDBRANCH   1   2
BRANCH   1  12
ATOM      9  C   UNL     1       6.319   5.104  14.887  0.00  0.00    +0.000 A 
ATOM     10  C   UNL     1       5.872   6.353  15.320  0.00  0.00    +0.000 A 
ATOM     11  C   UNL     1       4.876   6.456  16.299  0.00  0.00    +0.000 A 
ATOM     12  C   UNL     1       4.285   5.305  16.838  0.00  0.00    +0.000 A 
ATOM     13  C   UNL     1       4.724   4.054  16.374  0.00  0.00    +0.000 A 
ATOM     14  C   UNL     1       5.733   3.954  15.412  0.00  0.00    +0.000 A 
BRANCH   9  16
ATOM     15  C   UNL     1       7.021   4.342  12.766  0.00  0.00    +0.000 C 
ATOM     16  O   UNL     1       7.300   5.114  13.933  0.00  0.00    +0.000 OA
ENDBRANCH   9  16
ENDBRANCH   1  12
BRANCH   1  17
ATOM     17  C   UNL     1       3.659   6.390  19.060  0.00  0.00    +0.000 C 
BRANCH  17  18
ATOM     18  N   UNL     1       2.577   6.858  19.927  0.00  0.00    +0.000 N 
ATOM     19  C   UNL     1       1.977   8.057  19.621  0.00  0.00    +0.000 C 
ATOM     20  O   UNL     1       2.333   8.716  18.649  0.00  0.00    +0.000 OA
ATOM     21  N   UNL     1       1.011   8.414  20.528  0.00  0.00    +0.000 N 
ATOM     22  H   UNL     1       1.943   6.151  20.266  0.00  0.00    +0.000 HD
ATOM     23  H   UNL     1       1.019   7.904  21.400  0.00  0.00    +0.000 HD
BRANCH  21  24
ATOM     24  C   UNL     1       0.261   9.610  20.475  0.00  0.00    +0.000 A 
ATOM     25  C   UNL     1      -0.587   9.919  19.400  0.00  0.00    +0.000 A 
ATOM     26  C   UNL     1      -1.268  11.132  19.349  0.00  0.00    +0.000 A 
ATOM     27  C   UNL     1      -1.125  12.045  20.382  0.00  0.00    +0.000 A 
ATOM     28 CL   UNL     1      -1.962  13.544  20.313  0.00  0.00    +0.000 Cl
ATOM     29  C   UNL     1      -0.311  11.746  21.476  0.00  0.00    +0.000 A 
ATOM     30  C   UNL     1       0.378  10.527  21.522  0.00  0.00    +0.000 A 
ENDBRANCH  21  24
ENDBRANCH  17  18
ENDBRANCH   1  17
TORSDOF 6
ENDMDL
MODEL 6
REMARK VINA RESULT:      -7.2      1.742      1.920
REMARK  Name = 
REMARK  8 active torsions:
REMARK  status: ('A' for Active; 'I' for Inactive)
REMARK    1  A    between atoms: C_1  and  O_2
REMARK    2  A    between atoms: O_2  and  C_3
REMARK    3  A    between atoms: C_6  and  C_7
REMARK    4  A    between atoms: C_7  and  C_8
REMARK    5  A    between atoms: C_7  and  N_20
REMARK    6  A    between atoms: C_8  and  N_9
REMARK    7  A    between atoms: N_12  and  C_13
REMARK    8  A    between atoms: N_23  and  C_24
REMARK                            x       y       z     vdW  Elec       q    Type
REMARK                         _______ _______ _______ _____ _____    ______ ____
ROOT
ATOM      1  C   UNL     1       3.275   5.237  17.859  0.00  0.00    +0.000 C 
ENDROOT
BRANCH   1   2
ATOM      2  N   UNL     1       2.969   3.900  18.455  0.00  0.00    +0.000 NA
ATOM      3  C   UNL     1       1.510   3.765  18.714  0.00  0.00    +0.000 C 
ATOM      4  C   UNL     1       1.137   2.426  19.395  0.00  0.00    +0.000 C 
ATOM      5  N   UNL     1       1.865   2.147  20.647  0.00  0.00    +0.000 NA
ATOM      6  C   UNL     1       1.403   2.998  21.743  0.00  0.00    +0.000 C 
ATOM      7  C   UNL     1       3.306   2.327  20.397  0.00  0.00    +0.000 C 
ATOM      8  C   UNL     1       3.688   3.671  19.730  0.00  0.00    +0.000 C 
ENDBRANCH   1   2
BRANCH   1  12
ATOM      9  C   UNL     1       6.287   4.993  14.716  0.00  0.00    +0.000 A 
ATOM     10  C   UNL     1       5.769   3.825  15.276  0.00  0.00    +0.000 A 
ATOM     11  C   UNL     1       4.803   3.883  16.288  0.00  0.00    +0.000 A 
ATOM     12  C   UNL     1       4.364   5.119  16.782  0.00  0.00    +0.000 A 
ATOM     13  C   UNL     1       4.913   6.288  16.230  0.00  0.00    +0.000 A 
ATOM     14  C   UNL     1       5.861   6.227  15.205  0.00  0.00    +0.000 A 
BRANCH   9  16
ATOM     15  C   UNL     1       6.787   4.057  12.607  0.00  0.00    +0.000 C 
ATOM     16  O   UNL     1       7.220   4.825  13.728  0.00  0.00    +0.000 OA
ENDBRANCH   9  16
ENDBRANCH   1  12
BRANCH   1  17
ATOM     17  C   UNL     1       3.668   6.347  18.907  0.00  0.00    +0.000 C 
BRANCH  17  18
ATOM     18  N   UNL     1       2.704   6.546  19.988  0.00  0.00    +0.000 N 
ATOM     19  C   UNL     1       2.046   7.751  20.054  0.00  0.00    +0.000 C 
ATOM     20  O   UNL     1       2.256   8.635  19.229  0.00  0.00    +0.000 OA
ATOM     21  N   UNL     1       1.202   7.838  21.133  0.00  0.00    +0.000 N 
ATOM     22  H   UNL     1       2.133   5.748  20.226  0.00  0.00    +0.000 HD
ATOM     23  H   UNL     1       1.336   7.140  21.851  0.00  0.00    +0.000 HD
BRANCH  21  24
ATOM     24  C   UNL     1       0.430   8.975  21.460  0.00  0.00    +0.000 A 
ATOM     25  C   UNL     1       0.099   9.306  22.783  0.00  0.00    +0.000 A 
ATOM     26  C   UNL     1      -0.712  10.401  23.068  0.00  0.00    +0.000 A 
ATOM     27  C   UNL     1      -1.188  11.192  22.034  0.00  0.00    +0.000 A 
ATOM     28 CL   UNL     1      -2.195  12.538  22.389  0.00  0.00    +0.000 Cl
ATOM     29  C   UNL     1      -0.848  10.899  20.712  0.00  0.00    +0.000 A 
ATOM     30  C   UNL     1      -0.035   9.793  20.428  0.00  0.00    +0.000 A 
ENDBRANCH  21  24
ENDBRANCH  17  18
ENDBRANCH   1  17
TORSDOF 6
ENDMDL
MODEL 7
REMARK VINA RESULT:      -7.1      5.013      6.225
REMARK  Name = 
REMARK  8 active torsions:
REMARK  status: ('A' for Active; 'I' for Inactive)
REMARK    1  A    between atoms: C_1  and  O_2
REMARK    2  A    between atoms: O_2  and  C_3
REMARK    3  A    between atoms: C_6  and  C_7
REMARK    4  A    between atoms: C_7  and  C_8
REMARK    5  A    between atoms: C_7  and  N_20
REMARK    6  A    between atoms: C_8  and  N_9
REMARK    7  A    between atoms: N_12  and  C_13
REMARK    8  A    between atoms: N_23  and  C_24
REMARK                            x       y       z     vdW  Elec       q    Type
REMARK                         _______ _______ _______ _____ _____    ______ ____
ROOT
ATOM      1  C   UNL     1       5.504   5.466  16.534  0.00  0.00    +0.000 C 
ENDROOT
BRANCH   1   2
ATOM      2  N   UNL     1       4.812   4.387  17.305  0.00  0.00    +0.000 NA
ATOM      3  C   UNL     1       3.350   4.655  17.381  0.00  0.00    +0.000 C 
ATOM      4  C   UNL     1       2.586   3.607  18.225  0.00  0.00    +0.000 C 
ATOM      5  N   UNL     1       3.101   3.424  19.595  0.00  0.00    +0.000 NA
ATOM      6  C   UNL     1       2.777   4.562  20.453  0.00  0.00    +0.000 C 
ATOM      7  C   UNL     1       4.557   3.205  19.517  0.00  0.00    +0.000 C 
ATOM      8  C   UNL     1       5.330   4.258  18.687  0.00  0.00    +0.000 C 
ENDBRANCH   1   2
BRANCH   1  12
ATOM      9  C   UNL     1       6.743   3.873  12.669  0.00  0.00    +0.000 A 
ATOM     10  C   UNL     1       7.589   4.732  13.372  0.00  0.00    +0.000 A 
ATOM     11  C   UNL     1       7.208   5.255  14.613  0.00  0.00    +0.000 A 
ATOM     12  C   UNL     1       5.952   4.953  15.157  0.00  0.00    +0.000 A 
ATOM     13  C   UNL     1       5.098   4.110  14.428  0.00  0.00    +0.000 A 
ATOM     14  C   UNL     1       5.490   3.572  13.199  0.00  0.00    +0.000 A 
BRANCH   9  16
ATOM     15  C   UNL     1       7.052   2.012  11.250  0.00  0.00    +0.000 C 
ATOM     16  O   UNL     1       7.215   3.412  11.470  0.00  0.00    +0.000 OA
ENDBRANCH   9  16
ENDBRANCH   1  12
BRANCH   1  17
ATOM     17  C   UNL     1       6.721   6.130  17.285  0.00  0.00    +0.000 C 
BRANCH  17  18
ATOM     18  N   UNL     1       6.868   7.570  17.070  0.00  0.00    +0.000 N 
ATOM     19  C   UNL     1       7.802   8.243  17.822  0.00  0.00    +0.000 C 
ATOM     20  O   UNL     1       8.496   7.657  18.647  0.00  0.00    +0.000 OA
ATOM     21  N   UNL     1       7.818   9.592  17.566  0.00  0.00    +0.000 N 
ATOM     22  H   UNL     1       6.799   7.885  16.114  0.00  0.00    +0.000 HD
ATOM     23  H   UNL     1       7.021   9.951  17.061  0.00  0.00    +0.000 HD
BRANCH  21  24
ATOM     24  C   UNL     1       8.655  10.524  18.220  0.00  0.00    +0.000 A 
ATOM     25  C   UNL     1       8.915  11.798  17.695  0.00  0.00    +0.000 A 
ATOM     26  C   UNL     1       9.791  12.673  18.334  0.00  0.00    +0.000 A 
ATOM     27  C   UNL     1      10.403  12.290  19.517  0.00  0.00    +0.000 A 
ATOM     28 CL   UNL     1      11.488  13.369  20.299  0.00  0.00    +0.000 Cl
ATOM     29  C   UNL     1      10.136  11.038  20.073  0.00  0.00    +0.000 A 
ATOM     30  C   UNL     1       9.258  10.158  19.426  0.00  0.00    +0.000 A 
ENDBRANCH  21  24
ENDBRANCH  17  18
ENDBRANCH   1  17
TORSDOF 6
ENDMDL
MODEL 8
REMARK VINA RESULT:      -7.0      1.195      1.971
REMARK  Name = 
REMARK  8 active torsions:
REMARK  status: ('A' for Active; 'I' for Inactive)
REMARK    1  A    between atoms: C_1  and  O_2
REMARK    2  A    between atoms: O_2  and  C_3
REMARK    3  A    between atoms: C_6  and  C_7
REMARK    4  A    between atoms: C_7  and  C_8
REMARK    5  A    between atoms: C_7  and  N_20
REMARK    6  A    between atoms: C_8  and  N_9
REMARK    7  A    between atoms: N_12  and  C_13
REMARK    8  A    between atoms: N_23  and  C_24
REMARK                            x       y       z     vdW  Elec       q    Type
REMARK                         _______ _______ _______ _____ _____    ______ ____
ROOT
ATOM      1  C   UNL     1       3.328   6.205  18.180  0.00  0.00    +0.000 C 
ENDROOT
BRANCH   1   2
ATOM      2  N   UNL     1       3.376   5.321  19.385  0.00  0.00    +0.000 NA
ATOM      3  C   UNL     1       3.653   3.913  18.990  0.00  0.00    +0.000 C 
ATOM      4  C   UNL     1       3.648   2.936  20.190  0.00  0.00    +0.000 C 
ATOM      5  N   UNL     1       2.417   2.962  21.002  0.00  0.00    +0.000 NA
ATOM      6  C   UNL     1       1.294   2.337  20.304  0.00  0.00    +0.000 C 
ATOM      7  C   UNL     1       2.121   4.363  21.351  0.00  0.00    +0.000 C 
ATOM      8  C   UNL     1       2.109   5.344  20.154  0.00  0.00    +0.000 C 
ENDBRANCH   1   2
BRANCH   1  12
ATOM      9  C   UNL     1       6.729   5.308  15.604  0.00  0.00    +0.000 A 
ATOM     10  C   UNL     1       6.811   6.352  16.527  0.00  0.00    +0.000 A 
ATOM     11  C   UNL     1       5.728   6.657  17.360  0.00  0.00    +0.000 A 
ATOM     12  C   UNL     1       4.528   5.939  17.259  0.00  0.00    +0.000 A 
ATOM     13  C   UNL     1       4.448   4.910  16.307  0.00  0.00    +0.000 A 
ATOM     14  C   UNL     1       5.538   4.594  15.491  0.00  0.00    +0.000 A 
BRANCH   9  16
ATOM     15  C   UNL     1       7.644   5.154  13.434  0.00  0.00    +0.000 C 
ATOM     16  O   UNL     1       7.846   5.089  14.844  0.00  0.00    +0.000 OA
ENDBRANCH   9  16
ENDBRANCH   1  12
BRANCH   1  17
ATOM     17  C   UNL     1       3.222   7.745  18.500  0.00  0.00    +0.000 C 
BRANCH  17  18
ATOM     18  N   UNL     1       2.233   8.475  17.707  0.00  0.00    +0.000 N 
ATOM     19  C   UNL     1       1.211   9.108  18.374  0.00  0.00    +0.000 C 
ATOM     20  O   UNL     1       1.129   9.069  19.597  0.00  0.00    +0.000 OA
ATOM     21  N   UNL     1       0.322   9.720  17.525  0.00  0.00    +0.000 N 
ATOM     22  H   UNL     1       2.590   8.985  16.913  0.00  0.00    +0.000 HD
ATOM     23  H   UNL     1       0.382   9.444  16.555  0.00  0.00    +0.000 HD
BRANCH  21  24
ATOM     24  C   UNL     1      -0.837  10.414  17.939  0.00  0.00    +0.000 A 
ATOM     25  C   UNL     1      -0.778  11.574  18.726  0.00  0.00    +0.000 A 
ATOM     26  C   UNL     1      -1.941  12.202  19.166  0.00  0.00    +0.000 A 
ATOM     27  C   UNL     1      -3.178  11.689  18.809  0.00  0.00    +0.000 A 
ATOM     28 CL   UNL     1      -4.609  12.463  19.359  0.00  0.00    +0.000 Cl
ATOM     29  C   UNL     1      -3.260  10.553  18.001  0.00  0.00    +0.000 A 
ATOM     30  C   UNL     1      -2.089   9.920  17.564  0.00  0.00    +0.000 A 
ENDBRANCH  21  24
ENDBRANCH  17  18
ENDBRANCH   1  17
TORSDOF 6
ENDMDL
MODEL 9
REMARK VINA RESULT:      -7.0      1.207      1.786
REMARK  Name = 
REMARK  8 active torsions:
REMARK  status: ('A' for Active; 'I' for Inactive)
REMARK    1  A    between atoms: C_1  and  O_2
REMARK    2  A    between atoms: O_2  and  C_3
REMARK    3  A    between atoms: C_6  and  C_7
REMARK    4  A    between atoms: C_7  and  C_8
REMARK    5  A    between atoms: C_7  and  N_20
REMARK    6  A    between atoms: C_8  and  N_9
REMARK    7  A    between atoms: N_12  and  C_13
REMARK    8  A    between atoms: N_23  and  C_24
REMARK                            x       y       z     vdW  Elec       q    Type
REMARK                         _______ _______ _______ _____ _____    ______ ____
ROOT
ATOM      1  C   UNL     1       2.484   6.110  18.105  0.00  0.00    +0.000 C 
ENDROOT
BRANCH   1   2
ATOM      2  N   UNL     1       2.091   4.896  18.885  0.00  0.00    +0.000 NA
ATOM      3  C   UNL     1       3.259   4.350  19.627  0.00  0.00    +0.000 C 
ATOM      4  C   UNL     1       2.932   3.050  20.400  0.00  0.00    +0.000 C 
ATOM      5  N   UNL     1       2.352   1.972  19.578  0.00  0.00    +0.000 NA
ATOM      6  C   UNL     1       3.350   1.366  18.697  0.00  0.00    +0.000 C 
ATOM      7  C   UNL     1       1.224   2.529  18.810  0.00  0.00    +0.000 C 
ATOM      8  C   UNL     1       1.549   3.821  18.021  0.00  0.00    +0.000 C 
ENDBRANCH   1   2
BRANCH   1  12
ATOM      9  C   UNL     1       6.304   5.638  16.058  0.00  0.00    +0.000 A 
ATOM     10  C   UNL     1       5.346   4.627  15.984  0.00  0.00    +0.000 A 
ATOM     11  C   UNL     1       4.114   4.759  16.637  0.00  0.00    +0.000 A 
ATOM     12  C   UNL     1       3.835   5.897  17.407  0.00  0.00    +0.000 A 
ATOM     13  C   UNL     1       4.819   6.896  17.496  0.00  0.00    +0.000 A 
ATOM     14  C   UNL     1       6.039   6.770  16.826  0.00  0.00    +0.000 A 
BRANCH   9  16
ATOM     15  C   UNL     1       7.314   4.898  14.057  0.00  0.00    +0.000 C 
ATOM     16  O   UNL     1       7.470   5.412  15.378  0.00  0.00    +0.000 OA
ENDBRANCH   9  16
ENDBRANCH   1  12
BRANCH   1  17
ATOM     17  C   UNL     1       2.511   7.446  18.942  0.00  0.00    +0.000 C 
BRANCH  17  18
ATOM     18  N   UNL     1       1.841   8.583  18.312  0.00  0.00    +0.000 N 
ATOM     19  C   UNL     1       1.210   9.493  19.128  0.00  0.00    +0.000 C 
ATOM     20  O   UNL     1       1.209   9.360  20.347  0.00  0.00    +0.000 OA
ATOM     21  N   UNL     1       0.579  10.489  18.424  0.00  0.00    +0.000 N 
ATOM     22  H   UNL     1       2.313   8.993  17.520  0.00  0.00    +0.000 HD
ATOM     23  H   UNL     1       0.453  10.316  17.437  0.00  0.00    +0.000 HD
BRANCH  21  24
ATOM     24  C   UNL     1      -0.172  11.534  19.008  0.00  0.00    +0.000 A 
ATOM     25  C   UNL     1      -1.512  11.373  19.391  0.00  0.00    +0.000 A 
ATOM     26  C   UNL     1      -2.242  12.439  19.912  0.00  0.00    +0.000 A 
ATOM     27  C   UNL     1      -1.635  13.675  20.072  0.00  0.00    +0.000 A 
ATOM     28 CL   UNL     1      -2.542  14.989  20.708  0.00  0.00    +0.000 Cl
ATOM     29  C   UNL     1      -0.295  13.849  19.725  0.00  0.00    +0.000 A 
ATOM     30  C   UNL     1       0.437  12.777  19.197  0.00  0.00    +0.000 A 
ENDBRANCH  21  24
ENDBRANCH  17  18
ENDBRANCH   1  17
TORSDOF 6
ENDMDL
