MODEL 1
REMARK VINA RESULT:      -7.7      0.000      0.000
REMARK  Name = 
REMARK  3 active torsions:
REMARK  status: ('A' for Active; 'I' for Inactive)
REMARK    1  A    between atoms: N_1  and  C_2
REMARK    2  A    between atoms: C_5  and  C_6
REMARK    3  A    between atoms: N_13  and  C_14
REMARK                            x       y       z     vdW  Elec       q    Type
REMARK                         _______ _______ _______ _____ _____    ______ ____
ROOT
ATOM      1  C   UNL     1      -0.185  10.854  21.574  0.00  0.00    +0.000 A 
ATOM      2  N   UNL     1       0.125  10.455  22.795  0.00  0.00    +0.000 NA
ATOM      3  N   UNL     1       0.800   9.245  22.802  0.00  0.00    +0.000 NA
ATOM      4  C   UNL     1       1.043   8.809  21.586  0.00  0.00    +0.000 A 
ATOM      5  N   UNL     1       1.740   7.647  21.338  0.00  0.00    +0.000 N 
ATOM      6  C   UNL     1       2.283   7.295  20.120  0.00  0.00    +0.000 C 
ATOM      7  O   UNL     1       2.204   7.973  19.102  0.00  0.00    +0.000 OA
ATOM      8  N   UNL     1       2.964   6.084  20.186  0.00  0.00    +0.000 N 
ATOM      9  S   UNL     1       0.370   9.776  20.355  0.00  0.00    +0.000 S 
ATOM     10  H   UNL     1       2.012   7.157  22.172  0.00  0.00    +0.000 HD
ATOM     11  H   UNL     1       3.106   5.685  21.104  0.00  0.00    +0.000 HD
ENDROOT
BRANCH   8  12
ATOM     12  C   UNL     1       3.618   5.439  19.109  0.00  0.00    +0.000 A 
ATOM     13  C   UNL     1       2.943   4.761  18.092  0.00  0.00    +0.000 A 
ATOM     14  C   UNL     1       3.636   4.167  17.032  0.00  0.00    +0.000 A 
ATOM     15  C   UNL     1       5.026   4.239  16.979  0.00  0.00    +0.000 A 
ATOM     16 CL   UNL     1       5.818   3.497  15.636  0.00  0.00    +0.000 Cl
ATOM     17  C   UNL     1       5.719   4.898  17.999  0.00  0.00    +0.000 A 
ATOM     18 CL   UNL     1       7.443   5.033  17.999  0.00  0.00    +0.000 Cl
ATOM     19  C   UNL     1       5.019   5.487  19.063  0.00  0.00    +0.000 A 
ENDBRANCH   8  12
BRANCH   1  23
ATOM     20  C   UNL     1      -2.225  14.530  20.637  0.00  0.00    +0.000 A 
ATOM     21  C   UNL     1      -2.636  13.725  21.700  0.00  0.00    +0.000 A 
ATOM     22  C   UNL     1      -1.987  12.514  21.977  0.00  0.00    +0.000 A 
ATOM     23  C   UNL     1      -0.872  12.106  21.231  0.00  0.00    +0.000 A 
ATOM     24  C   UNL     1      -0.442  12.940  20.188  0.00  0.00    +0.000 A 
ATOM     25  C   UNL     1      -1.098  14.146  19.912  0.00  0.00    +0.000 A 
BRANCH  20  26
ATOM     26  N   UNL     1      -2.778  15.802  20.456  0.00  0.00    +0.000 N 
ATOM     27  H   UNL     1      -3.644  15.807  19.928  0.00  0.00    +0.000 HD
ATOM     28  H   UNL     1      -2.117  16.496  20.120  0.00  0.00    +0.000 HD
ENDBRANCH  20  26
ENDBRANCH   1  23
TORSDOF 3
ENDMDL
MODEL 2
REMARK VINA RESULT:      -7.7      0.225      1.002
REMARK  Name = 
REMARK  3 active torsions:
REMARK  status: ('A' for Active; 'I' for Inactive)
REMARK    1  A    between atoms: N_1  and  C_2
REMARK    2  A    between atoms: C_5  and  C_6
REMARK    3  A    between atoms: N_13  and  C_14
REMARK                            x       y       z     vdW  Elec       q    Type
REMARK                         _______ _______ _______ _____ _____    ______ ____
ROOT
ATOM      1  C   UNL     1      -0.103  10.910  21.577  0.00  0.00    +0.000 A 
ATOM      2  N   UNL     1       0.083  10.420  22.791  0.00  0.00    +0.000 NA
ATOM      3  N   UNL     1       0.678   9.170  22.772  0.00  0.00    +0.000 NA
ATOM      4  C   UNL     1       0.991   8.791  21.553  0.00  0.00    +0.000 A 
ATOM      5  N   UNL     1       1.633   7.601  21.286  0.00  0.00    +0.000 N 
ATOM      6  C   UNL     1       2.250   7.285  20.093  0.00  0.00    +0.000 C 
ATOM      7  O   UNL     1       2.294   8.025  19.118  0.00  0.00    +0.000 OA
ATOM      8  N   UNL     1       2.847   6.030  20.135  0.00  0.00    +0.000 N 
ATOM      9  S   UNL     1       0.480   9.870  20.338  0.00  0.00    +0.000 S 
ATOM     10  H   UNL     1       1.806   7.046  22.106  0.00  0.00    +0.000 HD
ATOM     11  H   UNL     1       2.890   5.570  21.033  0.00  0.00    +0.000 HD
ENDROOT
BRANCH   8  12
ATOM     12  C   UNL     1       3.545   5.407  19.072  0.00  0.00    +0.000 A 
ATOM     13  C   UNL     1       2.911   4.751  18.014  0.00  0.00    +0.000 A 
ATOM     14  C   UNL     1       3.648   4.179  16.972  0.00  0.00    +0.000 A 
ATOM     15  C   UNL     1       5.039   4.250  16.976  0.00  0.00    +0.000 A 
ATOM     16 CL   UNL     1       5.885   3.536  15.652  0.00  0.00    +0.000 Cl
ATOM     17  C   UNL     1       5.690   4.887  18.038  0.00  0.00    +0.000 A 
ATOM     18 CL   UNL     1       7.412   5.020  18.112  0.00  0.00    +0.000 Cl
ATOM     19  C   UNL     1       4.946   5.455  19.085  0.00  0.00    +0.000 A 
ENDBRANCH   8  12
BRANCH   1  23
ATOM     20  C   UNL     1      -1.782  14.749  20.581  0.00  0.00    +0.000 A 
ATOM     21  C   UNL     1      -0.768  14.180  19.808  0.00  0.00    +0.000 A 
ATOM     22  C   UNL     1      -0.205  12.945  20.158  0.00  0.00    +0.000 A 
ATOM     23  C   UNL     1      -0.683  12.223  21.262  0.00  0.00    +0.000 A 
ATOM     24  C   UNL     1      -1.727  12.785  22.011  0.00  0.00    +0.000 A 
ATOM     25  C   UNL     1      -2.282  14.021  21.659  0.00  0.00    +0.000 A 
BRANCH  20  26
ATOM     26  N   UNL     1      -2.440  15.904  20.146  0.00  0.00    +0.000 N 
ATOM     27  H   UNL     1      -2.726  16.526  20.895  0.00  0.00    +0.000 HD
ATOM     28  H   UNL     1      -3.189  15.728  19.483  0.00  0.00    +0.000 HD
ENDBRANCH  20  26
ENDBRANCH   1  23
TORSDOF 3
ENDMDL
MODEL 3
REMARK VINA RESULT:      -7.5      1.208      1.561
REMARK  Name = 
REMARK  3 active torsions:
REMARK  status: ('A' for Active; 'I' for Inactive)
REMARK    1  A    between atoms: N_1  and  C_2
REMARK    2  A    between atoms: C_5  and  C_6
REMARK    3  A    between atoms: N_13  and  C_14
REMARK                            x       y       z     vdW  Elec       q    Type
REMARK                         _______ _______ _______ _____ _____    ______ ____
ROOT
ATOM      1  C   UNL     1      -0.771  11.023  22.135  0.00  0.00    +0.000 A 
ATOM      2  N   UNL     1      -0.264  10.654  23.298  0.00  0.00    +0.000 NA
ATOM      3  N   UNL     1       0.537   9.528  23.193  0.00  0.00    +0.000 NA
ATOM      4  C   UNL     1       0.669   9.132  21.946  0.00  0.00    +0.000 A 
ATOM      5  N   UNL     1       1.455   8.057  21.587  0.00  0.00    +0.000 N 
ATOM      6  C   UNL     1       1.873   7.778  20.303  0.00  0.00    +0.000 C 
ATOM      7  O   UNL     1       1.589   8.450  19.319  0.00  0.00    +0.000 OA
ATOM      8  N   UNL     1       2.688   6.653  20.257  0.00  0.00    +0.000 N 
ATOM      9  S   UNL     1      -0.259  10.024  20.832  0.00  0.00    +0.000 S 
ATOM     10  H   UNL     1       1.884   7.596  22.370  0.00  0.00    +0.000 HD
ATOM     11  H   UNL     1       2.990   6.266  21.140  0.00  0.00    +0.000 HD
ENDROOT
BRANCH   8  12
ATOM     12  C   UNL     1       3.267   6.094  19.091  0.00  0.00    +0.000 A 
ATOM     13  C   UNL     1       3.908   6.852  18.109  0.00  0.00    +0.000 A 
ATOM     14  C   UNL     1       4.491   6.245  16.992  0.00  0.00    +0.000 A 
ATOM     15  C   UNL     1       4.435   4.862  16.837  0.00  0.00    +0.000 A 
ATOM     16 CL   UNL     1       5.187   4.178  15.442  0.00  0.00    +0.000 Cl
ATOM     17  C   UNL     1       3.780   4.090  17.802  0.00  0.00    +0.000 A 
ATOM     18 CL   UNL     1       3.673   2.368  17.683  0.00  0.00    +0.000 Cl
ATOM     19  C   UNL     1       3.191   4.704  18.919  0.00  0.00    +0.000 A 
ENDBRANCH   8  12
BRANCH   1  23
ATOM     20  C   UNL     1      -3.317  14.446  21.542  0.00  0.00    +0.000 A 
ATOM     21  C   UNL     1      -3.552  13.540  22.577  0.00  0.00    +0.000 A 
ATOM     22  C   UNL     1      -2.738  12.411  22.743  0.00  0.00    +0.000 A 
ATOM     23  C   UNL     1      -1.633  12.191  21.908  0.00  0.00    +0.000 A 
ATOM     24  C   UNL     1      -1.381  13.127  20.893  0.00  0.00    +0.000 A 
ATOM     25  C   UNL     1      -2.202  14.250  20.729  0.00  0.00    +0.000 A 
BRANCH  20  26
ATOM     26  N   UNL     1      -4.038  15.643  21.471  0.00  0.00    +0.000 N 
ATOM     27  H   UNL     1      -3.886  16.169  20.616  0.00  0.00    +0.000 HD
ATOM     28  H   UNL     1      -3.957  16.224  22.300  0.00  0.00    +0.000 HD
ENDBRANCH  20  26
ENDBRANCH   1  23
TORSDOF 3
ENDMDL
MODEL 4
REMARK VINA RESULT:      -7.4      5.058     10.070
REMARK  Name = 
REMARK  3 active torsions:
REMARK  status: ('A' for Active; 'I' for Inactive)
REMARK    1  A    between atoms: N_1  and  C_2
REMARK    2  A    between atoms: C_5  and  C_6
REMARK    3  A    between atoms: N_13  and  C_14
REMARK                            x       y       z     vdW  Elec       q    Type
REMARK                         _______ _______ _______ _____ _____    ______ ____
ROOT
ATOM      1  C   UNL     1       2.467   7.692  18.578  0.00  0.00    +0.000 A 
ATOM      2  N   UNL     1       2.491   8.423  17.477  0.00  0.00    +0.000 NA
ATOM      3  N   UNL     1       1.752   9.588  17.597  0.00  0.00    +0.000 NA
ATOM      4  C   UNL     1       1.258   9.736  18.807  0.00  0.00    +0.000 A 
ATOM      5  N   UNL     1       0.523  10.840  19.180  0.00  0.00    +0.000 N 
ATOM      6  C   UNL     1       0.239  11.199  20.481  0.00  0.00    +0.000 C 
ATOM      7  O   UNL     1       0.602  10.571  21.469  0.00  0.00    +0.000 OA
ATOM      8  N   UNL     1      -0.486  12.383  20.546  0.00  0.00    +0.000 N 
ATOM      9  S   UNL     1       1.558   8.419  19.845  0.00  0.00    +0.000 S 
ATOM     10  H   UNL     1       0.378  11.497  18.432  0.00  0.00    +0.000 HD
ATOM     11  H   UNL     1      -0.596  12.904  19.687  0.00  0.00    +0.000 HD
ENDROOT
BRANCH   8  12
ATOM     12  C   UNL     1      -0.947  13.011  21.729  0.00  0.00    +0.000 A 
ATOM     13  C   UNL     1      -0.345  14.140  22.287  0.00  0.00    +0.000 A 
ATOM     14  C   UNL     1      -0.860  14.740  23.440  0.00  0.00    +0.000 A 
ATOM     15  C   UNL     1      -1.990  14.211  24.060  0.00  0.00    +0.000 A 
ATOM     16 CL   UNL     1      -2.582  15.010  25.471  0.00  0.00    +0.000 Cl
ATOM     17  C   UNL     1      -2.594  13.069  23.524  0.00  0.00    +0.000 A 
ATOM     18 CL   UNL     1      -4.001  12.357  24.233  0.00  0.00    +0.000 Cl
ATOM     19  C   UNL     1      -2.069  12.467  22.370  0.00  0.00    +0.000 A 
ENDBRANCH   8  12
BRANCH   1  23
ATOM     20  C   UNL     1       4.476   3.933  19.196  0.00  0.00    +0.000 A 
ATOM     21  C   UNL     1       3.373   4.300  19.969  0.00  0.00    +0.000 A 
ATOM     22  C   UNL     1       2.746   5.539  19.783  0.00  0.00    +0.000 A 
ATOM     23  C   UNL     1       3.174   6.420  18.779  0.00  0.00    +0.000 A 
ATOM     24  C   UNL     1       4.260   6.027  17.982  0.00  0.00    +0.000 A 
ATOM     25  C   UNL     1       4.886   4.790  18.176  0.00  0.00    +0.000 A 
BRANCH  20  26
ATOM     26  N   UNL     1       5.004   2.640  19.284  0.00  0.00    +0.000 N 
ATOM     27  H   UNL     1       4.346   1.946  19.623  0.00  0.00    +0.000 HD
ATOM     28  H   UNL     1       5.899   2.591  19.762  0.00  0.00    +0.000 HD
ENDBRANCH  20  26
ENDBRANCH   1  23
TORSDOF 3
ENDMDL
MODEL 5
REMARK VINA RESULT:      -7.4      8.055      8.944
REMARK  Name = 
REMARK  3 active torsions:
REMARK  status: ('A' for Active; 'I' for Inactive)
REMARK    1  A    between atoms: N_1  and  C_2
REMARK    2  A    between atoms: C_5  and  C_6
REMARK    3  A    between atoms: N_13  and  C_14
REMARK                            x       y       z     vdW  Elec       q    Type
REMARK                         _______ _______ _______ _____ _____    ______ ____
ROOT
ATOM      1  C   UNL     1      10.231  13.218  18.779  0.00  0.00    +0.000 A 
ATOM      2  N   UNL     1      11.156  12.707  19.573  0.00  0.00    +0.000 NA
ATOM      3  N   UNL     1      10.916  11.377  19.877  0.00  0.00    +0.000 NA
ATOM      4  C   UNL     1       9.863  10.908  19.244  0.00  0.00    +0.000 A 
ATOM      5  N   UNL     1       9.452   9.597  19.354  0.00  0.00    +0.000 N 
ATOM      6  C   UNL     1       8.561   8.974  18.505  0.00  0.00    +0.000 C 
ATOM      7  O   UNL     1       8.019   9.515  17.550  0.00  0.00    +0.000 OA
ATOM      8  N   UNL     1       8.372   7.639  18.843  0.00  0.00    +0.000 N 
ATOM      9  S   UNL     1       9.026  12.076  18.330  0.00  0.00    +0.000 S 
ATOM     10  H   UNL     1      10.014   9.052  19.985  0.00  0.00    +0.000 HD
ATOM     11  H   UNL     1       8.984   7.249  19.546  0.00  0.00    +0.000 HD
ENDROOT
BRANCH   8  12
ATOM     12  C   UNL     1       7.511   6.729  18.181  0.00  0.00    +0.000 A 
ATOM     13  C   UNL     1       7.382   6.660  16.793  0.00  0.00    +0.000 A 
ATOM     14  C   UNL     1       6.541   5.721  16.189  0.00  0.00    +0.000 A 
ATOM     15  C   UNL     1       5.805   4.834  16.972  0.00  0.00    +0.000 A 
ATOM     16 CL   UNL     1       4.797   3.691  16.162  0.00  0.00    +0.000 Cl
ATOM     17  C   UNL     1       5.908   4.902  18.366  0.00  0.00    +0.000 A 
ATOM     18 CL   UNL     1       5.031   3.834  19.404  0.00  0.00    +0.000 Cl
ATOM     19  C   UNL     1       6.750   5.851  18.967  0.00  0.00    +0.000 A 
ENDBRANCH   8  12
BRANCH   1  23
ATOM     20  C   UNL     1      10.162  17.264  17.303  0.00  0.00    +0.000 A 
ATOM     21  C   UNL     1       9.332  16.861  18.351  0.00  0.00    +0.000 A 
ATOM     22  C   UNL     1       9.337  15.535  18.803  0.00  0.00    +0.000 A 
ATOM     23  C   UNL     1      10.216  14.590  18.253  0.00  0.00    +0.000 A 
ATOM     24  C   UNL     1      11.074  15.012  17.226  0.00  0.00    +0.000 A 
ATOM     25  C   UNL     1      11.060  16.338  16.775  0.00  0.00    +0.000 A 
BRANCH  20  26
ATOM     26  N   UNL     1      10.260  18.616  16.957  0.00  0.00    +0.000 N 
ATOM     27  H   UNL     1       9.389  19.130  17.040  0.00  0.00    +0.000 HD
ATOM     28  H   UNL     1      10.723  18.782  16.068  0.00  0.00    +0.000 HD
ENDBRANCH  20  26
ENDBRANCH   1  23
TORSDOF 3
ENDMDL
MODEL 6
REMARK VINA RESULT:      -7.4      4.395      9.841
REMARK  Name = 
REMARK  3 active torsions:
REMARK  status: ('A' for Active; 'I' for Inactive)
REMARK    1  A    between atoms: N_1  and  C_2
REMARK    2  A    between atoms: C_5  and  C_6
REMARK    3  A    between atoms: N_13  and  C_14
REMARK                            x       y       z     vdW  Elec       q    Type
REMARK                         _______ _______ _______ _____ _____    ______ ____
ROOT
ATOM      1  C   UNL     1       4.914   4.781  17.327  0.00  0.00    +0.000 A 
ATOM      2  N   UNL     1       4.742   3.808  18.204  0.00  0.00    +0.000 NA
ATOM      3  N   UNL     1       4.045   4.223  19.327  0.00  0.00    +0.000 NA
ATOM      4  C   UNL     1       3.649   5.473  19.227  0.00  0.00    +0.000 A 
ATOM      5  N   UNL     1       2.900   6.095  20.203  0.00  0.00    +0.000 N 
ATOM      6  C   UNL     1       2.208   7.276  20.035  0.00  0.00    +0.000 C 
ATOM      7  O   UNL     1       2.181   7.923  18.994  0.00  0.00    +0.000 OA
ATOM      8  N   UNL     1       1.512   7.637  21.183  0.00  0.00    +0.000 N 
ATOM      9  S   UNL     1       4.192   6.263  17.820  0.00  0.00    +0.000 S 
ATOM     10  H   UNL     1       2.719   5.513  21.001  0.00  0.00    +0.000 HD
ATOM     11  H   UNL     1       1.471   6.957  21.930  0.00  0.00    +0.000 HD
ENDROOT
BRANCH   8  12
ATOM     12  C   UNL     1       0.719   8.799  21.343  0.00  0.00    +0.000 A 
ATOM     13  C   UNL     1       0.336   9.306  22.586  0.00  0.00    +0.000 A 
ATOM     14  C   UNL     1      -0.422  10.477  22.689  0.00  0.00    +0.000 A 
ATOM     15  C   UNL     1      -0.815  11.159  21.540  0.00  0.00    +0.000 A 
ATOM     16 CL   UNL     1      -1.736  12.606  21.739  0.00  0.00    +0.000 Cl
ATOM     17  C   UNL     1      -0.456  10.655  20.286  0.00  0.00    +0.000 A 
ATOM     18 CL   UNL     1      -0.902  11.448  18.816  0.00  0.00    +0.000 Cl
ATOM     19  C   UNL     1       0.300   9.476  20.188  0.00  0.00    +0.000 A 
ENDBRANCH   8  12
BRANCH   1  23
ATOM     20  C   UNL     1       6.813   4.403  13.479  0.00  0.00    +0.000 A 
ATOM     21  C   UNL     1       5.543   3.873  13.715  0.00  0.00    +0.000 A 
ATOM     22  C   UNL     1       4.946   3.972  14.980  0.00  0.00    +0.000 A 
ATOM     23  C   UNL     1       5.584   4.655  16.026  0.00  0.00    +0.000 A 
ATOM     24  C   UNL     1       6.844   5.217  15.770  0.00  0.00    +0.000 A 
ATOM     25  C   UNL     1       7.437   5.110  14.506  0.00  0.00    +0.000 A 
BRANCH  20  26
ATOM     26  N   UNL     1       7.339   4.433  12.183  0.00  0.00    +0.000 N 
ATOM     27  H   UNL     1       8.297   4.105  12.117  0.00  0.00    +0.000 HD
ATOM     28  H   UNL     1       7.198   5.315  11.700  0.00  0.00    +0.000 HD
ENDBRANCH  20  26
ENDBRANCH   1  23
TORSDOF 3
ENDMDL
MODEL 7
REMARK VINA RESULT:      -7.1      5.098     10.148
REMARK  Name = 
REMARK  3 active torsions:
REMARK  status: ('A' for Active; 'I' for Inactive)
REMARK    1  A    between atoms: N_1  and  C_2
REMARK    2  A    between atoms: C_5  and  C_6
REMARK    3  A    between atoms: N_13  and  C_14
REMARK                            x       y       z     vdW  Elec       q    Type
REMARK                         _______ _______ _______ _____ _____    ______ ____
ROOT
ATOM      1  C   UNL     1       2.460   7.585  18.570  0.00  0.00    +0.000 A 
ATOM      2  N   UNL     1       2.600   8.341  17.496  0.00  0.00    +0.000 NA
ATOM      3  N   UNL     1       1.880   9.522  17.582  0.00  0.00    +0.000 NA
ATOM      4  C   UNL     1       1.283   9.652  18.746  0.00  0.00    +0.000 A 
ATOM      5  N   UNL     1       0.543  10.765  19.082  0.00  0.00    +0.000 N 
ATOM      6  C   UNL     1       0.152  11.098  20.362  0.00  0.00    +0.000 C 
ATOM      7  O   UNL     1       0.409  10.436  21.360  0.00  0.00    +0.000 OA
ATOM      8  N   UNL     1      -0.549  12.298  20.394  0.00  0.00    +0.000 N 
ATOM      9  S   UNL     1       1.457   8.302  19.770  0.00  0.00    +0.000 S 
ATOM     10  H   UNL     1       0.481  11.443  18.342  0.00  0.00    +0.000 HD
ATOM     11  H   UNL     1      -0.569  12.843  19.543  0.00  0.00    +0.000 HD
ENDROOT
BRANCH   8  12
ATOM     12  C   UNL     1      -1.100  12.908  21.548  0.00  0.00    +0.000 A 
ATOM     13  C   UNL     1      -0.389  13.783  22.371  0.00  0.00    +0.000 A 
ATOM     14  C   UNL     1      -0.991  14.383  23.481  0.00  0.00    +0.000 A 
ATOM     15  C   UNL     1      -2.321  14.108  23.790  0.00  0.00    +0.000 A 
ATOM     16 CL   UNL     1      -3.007  14.893  25.166  0.00  0.00    +0.000 Cl
ATOM     17  C   UNL     1      -3.042  13.218  22.987  0.00  0.00    +0.000 A 
ATOM     18 CL   UNL     1      -4.697  12.831  23.303  0.00  0.00    +0.000 Cl
ATOM     19  C   UNL     1      -2.431  12.614  21.876  0.00  0.00    +0.000 A 
ENDBRANCH   8  12
BRANCH   1  23
ATOM     20  C   UNL     1       4.449   3.824  19.240  0.00  0.00    +0.000 A 
ATOM     21  C   UNL     1       5.111   4.896  18.640  0.00  0.00    +0.000 A 
ATOM     22  C   UNL     1       4.447   6.106  18.396  0.00  0.00    +0.000 A 
ATOM     23  C   UNL     1       3.116   6.290  18.799  0.00  0.00    +0.000 A 
ATOM     24  C   UNL     1       2.469   5.220  19.435  0.00  0.00    +0.000 A 
ATOM     25  C   UNL     1       3.137   4.012  19.671  0.00  0.00    +0.000 A 
BRANCH  20  26
ATOM     26  N   UNL     1       5.155   2.676  19.615  0.00  0.00    +0.000 N 
ATOM     27  H   UNL     1       5.492   2.690  20.572  0.00  0.00    +0.000 HD
ATOM     28  H   UNL     1       5.878   2.401  18.955  0.00  0.00    +0.000 HD
ENDBRANCH  20  26
ENDBRANCH   1  23
TORSDOF 3
ENDMDL
MODEL 8
REMARK VINA RESULT:      -7.1      1.982      2.775
REMARK  Name = 
REMARK  3 active torsions:
REMARK  status: ('A' for Active; 'I' for Inactive)
REMARK    1  A    between atoms: N_1  and  C_2
REMARK    2  A    between atoms: C_5  and  C_6
REMARK    3  A    between atoms: N_13  and  C_14
REMARK                            x       y       z     vdW  Elec       q    Type
REMARK                         _______ _______ _______ _____ _____    ______ ____
ROOT
ATOM      1  C   UNL     1      -0.040  12.181  21.164  0.00  0.00    +0.000 A 
ATOM      2  N   UNL     1       0.009  11.966  22.467  0.00  0.00    +0.000 NA
ATOM      3  N   UNL     1       0.288  10.645  22.776  0.00  0.00    +0.000 NA
ATOM      4  C   UNL     1       0.515   9.924  21.700  0.00  0.00    +0.000 A 
ATOM      5  N   UNL     1       0.856   8.590  21.757  0.00  0.00    +0.000 N 
ATOM      6  C   UNL     1       1.392   7.866  20.713  0.00  0.00    +0.000 C 
ATOM      7  O   UNL     1       1.624   8.321  19.599  0.00  0.00    +0.000 OA
ATOM      8  N   UNL     1       1.671   6.555  21.081  0.00  0.00    +0.000 N 
ATOM      9  S   UNL     1       0.291  10.770  20.239  0.00  0.00    +0.000 S 
ATOM     10  H   UNL     1       0.882   8.222  22.692  0.00  0.00    +0.000 HD
ATOM     11  H   UNL     1       1.592   6.324  22.062  0.00  0.00    +0.000 HD
ENDROOT
BRANCH   8  12
ATOM     12  C   UNL     1       2.211   5.552  20.239  0.00  0.00    +0.000 A 
ATOM     13  C   UNL     1       3.520   5.575  19.754  0.00  0.00    +0.000 A 
ATOM     14  C   UNL     1       4.014   4.543  18.950  0.00  0.00    +0.000 A 
ATOM     15  C   UNL     1       3.195   3.468  18.612  0.00  0.00    +0.000 A 
ATOM     16 CL   UNL     1       3.872   2.220  17.629  0.00  0.00    +0.000 Cl
ATOM     17  C   UNL     1       1.875   3.438  19.073  0.00  0.00    +0.000 A 
ATOM     18 CL   UNL     1       0.801   2.135  18.700  0.00  0.00    +0.000 Cl
ATOM     19  C   UNL     1       1.383   4.480  19.875  0.00  0.00    +0.000 A 
ENDBRANCH   8  12
BRANCH   1  23
ATOM     20  C   UNL     1      -0.741  15.951  19.203  0.00  0.00    +0.000 A 
ATOM     21  C   UNL     1       0.074  14.976  18.627  0.00  0.00    +0.000 A 
ATOM     22  C   UNL     1       0.323  13.765  19.287  0.00  0.00    +0.000 A 
ATOM     23  C   UNL     1      -0.284  13.478  20.518  0.00  0.00    +0.000 A 
ATOM     24  C   UNL     1      -1.133  14.448  21.073  0.00  0.00    +0.000 A 
ATOM     25  C   UNL     1      -1.374  15.658  20.411  0.00  0.00    +0.000 A 
BRANCH  20  26
ATOM     26  N   UNL     1      -1.105  17.091  18.477  0.00  0.00    +0.000 N 
ATOM     27  H   UNL     1      -1.697  17.737  18.989  0.00  0.00    +0.000 HD
ATOM     28  H   UNL     1      -1.464  16.891  17.548  0.00  0.00    +0.000 HD
ENDBRANCH  20  26
ENDBRANCH   1  23
TORSDOF 3
ENDMDL
MODEL 9
REMARK VINA RESULT:      -7.1      2.336      3.032
REMARK  Name = 
REMARK  3 active torsions:
REMARK  status: ('A' for Active; 'I' for Inactive)
REMARK    1  A    between atoms: N_1  and  C_2
REMARK    2  A    between atoms: C_5  and  C_6
REMARK    3  A    between atoms: N_13  and  C_14
REMARK                            x       y       z     vdW  Elec       q    Type
REMARK                         _______ _______ _______ _____ _____    ______ ____
ROOT
ATOM      1  C   UNL     1       0.523  12.385  20.658  0.00  0.00    +0.000 A 
ATOM      2  N   UNL     1       0.376  12.212  21.959  0.00  0.00    +0.000 NA
ATOM      3  N   UNL     1       0.464  10.881  22.330  0.00  0.00    +0.000 NA
ATOM      4  C   UNL     1       0.748  10.102  21.310  0.00  0.00    +0.000 A 
ATOM      5  N   UNL     1       0.929   8.742  21.439  0.00  0.00    +0.000 N 
ATOM      6  C   UNL     1       1.514   7.928  20.492  0.00  0.00    +0.000 C 
ATOM      7  O   UNL     1       1.940   8.316  19.411  0.00  0.00    +0.000 OA
ATOM      8  N   UNL     1       1.594   6.608  20.922  0.00  0.00    +0.000 N 
ATOM      9  S   UNL     1       0.814  10.915  19.814  0.00  0.00    +0.000 S 
ATOM     10  H   UNL     1       0.790   8.407  22.377  0.00  0.00    +0.000 HD
ATOM     11  H   UNL     1       1.362   6.422  21.887  0.00  0.00    +0.000 HD
ENDROOT
BRANCH   8  12
ATOM     12  C   UNL     1       2.126   5.525  20.180  0.00  0.00    +0.000 A 
ATOM     13  C   UNL     1       3.464   5.439  19.792  0.00  0.00    +0.000 A 
ATOM     14  C   UNL     1       3.945   4.330  19.088  0.00  0.00    +0.000 A 
ATOM     15  C   UNL     1       3.084   3.287  18.754  0.00  0.00    +0.000 A 
ATOM     16 CL   UNL     1       3.746   1.942  17.897  0.00  0.00    +0.000 Cl
ATOM     17  C   UNL     1       1.737   3.366  19.119  0.00  0.00    +0.000 A 
ATOM     18 CL   UNL     1       0.609   2.109  18.744  0.00  0.00    +0.000 Cl
ATOM     19  C   UNL     1       1.258   4.483  19.820  0.00  0.00    +0.000 A 
ENDBRANCH   8  12
BRANCH   1  23
ATOM     20  C   UNL     1       0.437  16.197  18.653  0.00  0.00    +0.000 A 
ATOM     21  C   UNL     1      -0.665  15.732  19.373  0.00  0.00    +0.000 A 
ATOM     22  C   UNL     1      -0.641  14.476  19.995  0.00  0.00    +0.000 A 
ATOM     23  C   UNL     1       0.511  13.677  19.958  0.00  0.00    +0.000 A 
ATOM     24  C   UNL     1       1.628  14.168  19.264  0.00  0.00    +0.000 A 
ATOM     25  C   UNL     1       1.595  15.421  18.640  0.00  0.00    +0.000 A 
BRANCH  20  26
ATOM     26  N   UNL     1       0.462  17.506  18.162  0.00  0.00    +0.000 N 
ATOM     27  H   UNL     1       1.303  17.740  17.645  0.00  0.00    +0.000 HD
ATOM     28  H   UNL     1       0.226  18.212  18.854  0.00  0.00    +0.000 HD
ENDBRANCH  20  26
ENDBRANCH   1  23
TORSDOF 3
ENDMDL
