MODEL 1
REMARK VINA RESULT:      -7.9      0.000      0.000
REMARK  Name = 
REMARK  8 active torsions:
REMARK  status: ('A' for Active; 'I' for Inactive)
REMARK    1  A    between atoms: C_1  and  C_2
REMARK    2  A    between atoms: C_2  and  N_3
REMARK    3  A    between atoms: N_3  and  C_4
REMARK    4  A    between atoms: N_3  and  C_6
REMARK    5  A    between atoms: C_4  and  C_5
REMARK    6  A    between atoms: C_6  and  C_7
REMARK    7  A    between atoms: C_11  and  N_12
REMARK    8  A    between atoms: C_17  and  C_18
REMARK                            x       y       z     vdW  Elec       q    Type
REMARK                         _______ _______ _______ _____ _____    ______ ____
ROOT
ATOM      1  N   UNL     1       2.601   7.586  17.953  0.00  0.00    +0.000 N 
ATOM      2  C   UNL     1       1.944   8.199  19.026  0.00  0.00    +0.000 A 
ATOM      3  N   UNL     1       1.919   7.593  20.225  0.00  0.00    +0.000 NA
ATOM      4  C   UNL     1       1.309   8.225  21.236  0.00  0.00    +0.000 A 
ATOM      5  C   UNL     1       0.718   9.451  21.100  0.00  0.00    +0.000 A 
ATOM      6  C   UNL     1       0.785  10.007  19.840  0.00  0.00    +0.000 A 
ATOM      7  N   UNL     1       1.390   9.395  18.796  0.00  0.00    +0.000 NA
ATOM      8  H   UNL     1       2.366   8.079  17.103  0.00  0.00    +0.000 HD
ENDROOT
BRANCH   6   9
ATOM      9  C   UNL     1       0.204  11.313  19.583  0.00  0.00    +0.000 A 
ATOM     10  C   UNL     1      -1.151  11.729  19.626  0.00  0.00    +0.000 A 
ATOM     11  N   UNL     1      -1.308  13.027  19.372  0.00  0.00    +0.000 NA
ATOM     12  N   UNL     1      -0.058  13.469  19.160  0.00  0.00    +0.000 N 
ATOM     13  N   UNL     1       0.150  14.779  18.901  0.00  0.00    +0.000 NA
ATOM     14  C   UNL     1       1.399  15.063  18.729  0.00  0.00    +0.000 A 
ATOM     15  C   UNL     1       2.534  14.113  18.785  0.00  0.00    +0.000 A 
ATOM     16  C   UNL     1       2.243  12.836  19.056  0.00  0.00    +0.000 A 
ATOM     17  C   UNL     1       0.892  12.469  19.264  0.00  0.00    +0.000 A 
ENDBRANCH   6   9
BRANCH   1  22
ATOM     18  C   UNL     1       4.157   4.285  17.146  0.00  0.00    +0.000 A 
ATOM     19  C   UNL     1       3.077   3.434  17.389  0.00  0.00    +0.000 A 
ATOM     20  C   UNL     1       1.868   3.953  17.858  0.00  0.00    +0.000 A 
ATOM     21  C   UNL     1       1.726   5.327  18.072  0.00  0.00    +0.000 A 
ATOM     22  C   UNL     1       2.775   6.202  17.781  0.00  0.00    +0.000 A 
ATOM     23  C   UNL     1       3.996   5.662  17.360  0.00  0.00    +0.000 A 
BRANCH  18  24
ATOM     24  C   UNL     1       5.487   3.771  16.634  0.00  0.00    +0.000 C 
BRANCH  24  25
ATOM     25  N   UNL     1       6.538   4.799  16.503  0.00  0.00    +0.000 NA
BRANCH  25  27
ATOM     26  C   UNL     1       7.635   5.829  18.526  0.00  0.00    +0.000 C 
ATOM     27  C   UNL     1       7.571   4.659  17.547  0.00  0.00    +0.000 C 
ENDBRANCH  25  27
BRANCH  25  28
ATOM     28  C   UNL     1       7.075   4.819  15.131  0.00  0.00    +0.000 C 
ATOM     29  C   UNL     1       6.270   4.064  14.072  0.00  0.00    +0.000 C 
ENDBRANCH  25  28
ENDBRANCH  24  25
ENDBRANCH  18  24
ENDBRANCH   1  22
TORSDOF 6
ENDMDL
MODEL 2
REMARK VINA RESULT:      -7.8      2.472      9.132
REMARK  Name = 
REMARK  8 active torsions:
REMARK  status: ('A' for Active; 'I' for Inactive)
REMARK    1  A    between atoms: C_1  and  C_2
REMARK    2  A    between atoms: C_2  and  N_3
REMARK    3  A    between atoms: N_3  and  C_4
REMARK    4  A    between atoms: N_3  and  C_6
REMARK    5  A    between atoms: C_4  and  C_5
REMARK    6  A    between atoms: C_6  and  C_7
REMARK    7  A    between atoms: C_11  and  N_12
REMARK    8  A    between atoms: C_17  and  C_18
REMARK                            x       y       z     vdW  Elec       q    Type
REMARK                         _______ _______ _______ _____ _____    ______ ____
ROOT
ATOM      1  N   UNL     1       1.811   8.773  17.632  0.00  0.00    +0.000 N 
ATOM      2  C   UNL     1       2.337   7.740  18.416  0.00  0.00    +0.000 A 
ATOM      3  N   UNL     1       1.635   7.277  19.465  0.00  0.00    +0.000 NA
ATOM      4  C   UNL     1       2.156   6.266  20.172  0.00  0.00    +0.000 A 
ATOM      5  C   UNL     1       3.360   5.690  19.872  0.00  0.00    +0.000 A 
ATOM      6  C   UNL     1       4.018   6.220  18.783  0.00  0.00    +0.000 A 
ATOM      7  N   UNL     1       3.524   7.242  18.050  0.00  0.00    +0.000 NA
ATOM      8  H   UNL     1       2.536   9.114  17.015  0.00  0.00    +0.000 HD
ENDROOT
BRANCH   6   9
ATOM      9  C   UNL     1       5.299   5.676  18.365  0.00  0.00    +0.000 A 
ATOM     10  C   UNL     1       6.403   5.248  19.144  0.00  0.00    +0.000 A 
ATOM     11  N   UNL     1       7.403   4.759  18.412  0.00  0.00    +0.000 NA
ATOM     12  N   UNL     1       6.959   4.865  17.149  0.00  0.00    +0.000 N 
ATOM     13  N   UNL     1       7.733   4.420  16.133  0.00  0.00    +0.000 NA
ATOM     14  C   UNL     1       7.177   4.574  14.977  0.00  0.00    +0.000 A 
ATOM     15  C   UNL     1       5.847   5.171  14.711  0.00  0.00    +0.000 A 
ATOM     16  C   UNL     1       5.142   5.577  15.772  0.00  0.00    +0.000 A 
ATOM     17  C   UNL     1       5.698   5.423  17.065  0.00  0.00    +0.000 A 
ENDBRANCH   6   9
BRANCH   1  22
ATOM     18  C   UNL     1      -1.347  10.649  18.319  0.00  0.00    +0.000 A 
ATOM     19  C   UNL     1      -0.828  11.800  18.916  0.00  0.00    +0.000 A 
ATOM     20  C   UNL     1       0.547  11.922  19.126  0.00  0.00    +0.000 A 
ATOM     21  C   UNL     1       1.415  10.901  18.725  0.00  0.00    +0.000 A 
ATOM     22  C   UNL     1       0.922   9.767  18.074  0.00  0.00    +0.000 A 
ATOM     23  C   UNL     1      -0.463   9.638  17.917  0.00  0.00    +0.000 A 
BRANCH  18  24
ATOM     24  C   UNL     1      -2.830  10.472  18.067  0.00  0.00    +0.000 C 
BRANCH  24  25
ATOM     25  N   UNL     1      -3.287  10.905  16.732  0.00  0.00    +0.000 NA
BRANCH  25  27
ATOM     26  C   UNL     1      -2.994  10.132  14.350  0.00  0.00    +0.000 C 
ATOM     27  C   UNL     1      -3.364   9.774  15.788  0.00  0.00    +0.000 C 
ENDBRANCH  25  27
BRANCH  25  28
ATOM     28  C   UNL     1      -4.535  11.681  16.838  0.00  0.00    +0.000 C 
ATOM     29  C   UNL     1      -5.380  11.448  18.091  0.00  0.00    +0.000 C 
ENDBRANCH  25  28
ENDBRANCH  24  25
ENDBRANCH  18  24
ENDBRANCH   1  22
TORSDOF 6
ENDMDL
MODEL 3
REMARK VINA RESULT:      -7.8      1.972      9.005
REMARK  Name = 
REMARK  8 active torsions:
REMARK  status: ('A' for Active; 'I' for Inactive)
REMARK    1  A    between atoms: C_1  and  C_2
REMARK    2  A    between atoms: C_2  and  N_3
REMARK    3  A    between atoms: N_3  and  C_4
REMARK    4  A    between atoms: N_3  and  C_6
REMARK    5  A    between atoms: C_4  and  C_5
REMARK    6  A    between atoms: C_6  and  C_7
REMARK    7  A    between atoms: C_11  and  N_12
REMARK    8  A    between atoms: C_17  and  C_18
REMARK                            x       y       z     vdW  Elec       q    Type
REMARK                         _______ _______ _______ _____ _____    ______ ____
ROOT
ATOM      1  N   UNL     1       1.404   8.528  21.299  0.00  0.00    +0.000 N 
ATOM      2  C   UNL     1       1.831   8.255  19.995  0.00  0.00    +0.000 A 
ATOM      3  N   UNL     1       1.762   9.216  19.058  0.00  0.00    +0.000 NA
ATOM      4  C   UNL     1       2.211   8.928  17.829  0.00  0.00    +0.000 A 
ATOM      5  C   UNL     1       2.733   7.709  17.493  0.00  0.00    +0.000 A 
ATOM      6  C   UNL     1       2.769   6.778  18.509  0.00  0.00    +0.000 A 
ATOM      7  N   UNL     1       2.322   7.033  19.759  0.00  0.00    +0.000 NA
ATOM      8  H   UNL     1       1.353   7.659  21.813  0.00  0.00    +0.000 HD
ENDROOT
BRANCH   6   9
ATOM      9  C   UNL     1       3.317   5.454  18.269  0.00  0.00    +0.000 A 
ATOM     10  C   UNL     1       4.624   5.068  17.880  0.00  0.00    +0.000 A 
ATOM     11  N   UNL     1       4.778   3.747  17.798  0.00  0.00    +0.000 NA
ATOM     12  N   UNL     1       3.572   3.260  18.131  0.00  0.00    +0.000 N 
ATOM     13  N   UNL     1       3.385   1.923  18.179  0.00  0.00    +0.000 NA
ATOM     14  C   UNL     1       2.182   1.598  18.524  0.00  0.00    +0.000 A 
ATOM     15  C   UNL     1       1.074   2.530  18.839  0.00  0.00    +0.000 A 
ATOM     16  C   UNL     1       1.345   3.837  18.777  0.00  0.00    +0.000 A 
ATOM     17  C   UNL     1       2.650   4.251  18.414  0.00  0.00    +0.000 A 
ENDBRANCH   6   9
BRANCH   1  22
ATOM     18  C   UNL     1      -1.104  11.292  21.091  0.00  0.00    +0.000 A 
ATOM     19  C   UNL     1      -1.504  11.367  22.427  0.00  0.00    +0.000 A 
ATOM     20  C   UNL     1      -0.978  10.477  23.367  0.00  0.00    +0.000 A 
ATOM     21  C   UNL     1      -0.036   9.518  22.980  0.00  0.00    +0.000 A 
ATOM     22  C   UNL     1       0.420   9.464  21.661  0.00  0.00    +0.000 A 
ATOM     23  C   UNL     1      -0.154  10.328  20.721  0.00  0.00    +0.000 A 
BRANCH  18  24
ATOM     24  C   UNL     1      -1.643  12.235  20.036  0.00  0.00    +0.000 C 
BRANCH  24  25
ATOM     25  N   UNL     1      -1.051  12.066  18.694  0.00  0.00    +0.000 NA
BRANCH  25  27
ATOM     26  C   UNL     1      -1.825  10.116  17.295  0.00  0.00    +0.000 C 
ATOM     27  C   UNL     1      -2.041  11.567  17.720  0.00  0.00    +0.000 C 
ENDBRANCH  25  27
BRANCH  25  28
ATOM     28  C   UNL     1      -0.367  13.300  18.271  0.00  0.00    +0.000 C 
ATOM     29  C   UNL     1       1.141  13.364  18.517  0.00  0.00    +0.000 C 
ENDBRANCH  25  28
ENDBRANCH  24  25
ENDBRANCH  18  24
ENDBRANCH   1  22
TORSDOF 6
ENDMDL
MODEL 4
REMARK VINA RESULT:      -7.8      2.554      9.165
REMARK  Name = 
REMARK  8 active torsions:
REMARK  status: ('A' for Active; 'I' for Inactive)
REMARK    1  A    between atoms: C_1  and  C_2
REMARK    2  A    between atoms: C_2  and  N_3
REMARK    3  A    between atoms: N_3  and  C_4
REMARK    4  A    between atoms: N_3  and  C_6
REMARK    5  A    between atoms: C_4  and  C_5
REMARK    6  A    between atoms: C_6  and  C_7
REMARK    7  A    between atoms: C_11  and  N_12
REMARK    8  A    between atoms: C_17  and  C_18
REMARK                            x       y       z     vdW  Elec       q    Type
REMARK                         _______ _______ _______ _____ _____    ______ ____
ROOT
ATOM      1  N   UNL     1       1.572   9.336  17.725  0.00  0.00    +0.000 N 
ATOM      2  C   UNL     1       2.286   8.188  18.084  0.00  0.00    +0.000 A 
ATOM      3  N   UNL     1       1.761   7.330  18.976  0.00  0.00    +0.000 NA
ATOM      4  C   UNL     1       2.460   6.225  19.270  0.00  0.00    +0.000 A 
ATOM      5  C   UNL     1       3.672   5.937  18.705  0.00  0.00    +0.000 A 
ATOM      6  C   UNL     1       4.142   6.866  17.801  0.00  0.00    +0.000 A 
ATOM      7  N   UNL     1       3.466   7.993  17.483  0.00  0.00    +0.000 NA
ATOM      8  H   UNL     1       2.181   9.948  17.199  0.00  0.00    +0.000 HD
ENDROOT
BRANCH   6   9
ATOM      9  C   UNL     1       5.412   6.656  17.129  0.00  0.00    +0.000 A 
ATOM     10  C   UNL     1       6.679   7.243  17.374  0.00  0.00    +0.000 A 
ATOM     11  N   UNL     1       7.638   6.772  16.578  0.00  0.00    +0.000 NA
ATOM     12  N   UNL     1       7.004   5.875  15.806  0.00  0.00    +0.000 N 
ATOM     13  N   UNL     1       7.707   5.174  14.888  0.00  0.00    +0.000 NA
ATOM     14  C   UNL     1       6.974   4.341  14.226  0.00  0.00    +0.000 A 
ATOM     15  C   UNL     1       5.517   4.126  14.391  0.00  0.00    +0.000 A 
ATOM     16  C   UNL     1       4.899   4.853  15.327  0.00  0.00    +0.000 A 
ATOM     17  C   UNL     1       5.655   5.775  16.090  0.00  0.00    +0.000 A 
ENDBRANCH   6   9
BRANCH   1  22
ATOM     18  C   UNL     1      -1.490  11.170  18.835  0.00  0.00    +0.000 A 
ATOM     19  C   UNL     1      -1.162  11.418  20.170  0.00  0.00    +0.000 A 
ATOM     20  C   UNL     1       0.039  10.939  20.697  0.00  0.00    +0.000 A 
ATOM     21  C   UNL     1       0.928  10.223  19.889  0.00  0.00    +0.000 A 
ATOM     22  C   UNL     1       0.646  10.013  18.537  0.00  0.00    +0.000 A 
ATOM     23  C   UNL     1      -0.584  10.456  18.037  0.00  0.00    +0.000 A 
BRANCH  18  24
ATOM     24  C   UNL     1      -2.779  11.671  18.217  0.00  0.00    +0.000 C 
BRANCH  24  25
ATOM     25  N   UNL     1      -3.483  10.687  17.371  0.00  0.00    +0.000 NA
BRANCH  25  27
ATOM     26  C   UNL     1      -5.780  11.645  17.771  0.00  0.00    +0.000 C 
ATOM     27  C   UNL     1      -4.854  10.434  17.853  0.00  0.00    +0.000 C 
ENDBRANCH  25  27
BRANCH  25  28
ATOM     28  C   UNL     1      -3.411  11.079  15.952  0.00  0.00    +0.000 C 
ATOM     29  C   UNL     1      -3.009   9.987  14.961  0.00  0.00    +0.000 C 
ENDBRANCH  25  28
ENDBRANCH  24  25
ENDBRANCH  18  24
ENDBRANCH   1  22
TORSDOF 6
ENDMDL
MODEL 5
REMARK VINA RESULT:      -7.7      2.356      9.100
REMARK  Name = 
REMARK  8 active torsions:
REMARK  status: ('A' for Active; 'I' for Inactive)
REMARK    1  A    between atoms: C_1  and  C_2
REMARK    2  A    between atoms: C_2  and  N_3
REMARK    3  A    between atoms: N_3  and  C_4
REMARK    4  A    between atoms: N_3  and  C_6
REMARK    5  A    between atoms: C_4  and  C_5
REMARK    6  A    between atoms: C_6  and  C_7
REMARK    7  A    between atoms: C_11  and  N_12
REMARK    8  A    between atoms: C_17  and  C_18
REMARK                            x       y       z     vdW  Elec       q    Type
REMARK                         _______ _______ _______ _____ _____    ______ ____
ROOT
ATOM      1  N   UNL     1       1.825   8.651  18.826  0.00  0.00    +0.000 N 
ATOM      2  C   UNL     1       2.297   7.404  19.249  0.00  0.00    +0.000 A 
ATOM      3  N   UNL     1       1.535   6.640  20.050  0.00  0.00    +0.000 NA
ATOM      4  C   UNL     1       2.007   5.439  20.407  0.00  0.00    +0.000 A 
ATOM      5  C   UNL     1       3.220   4.961  19.992  0.00  0.00    +0.000 A 
ATOM      6  C   UNL     1       3.942   5.803  19.174  0.00  0.00    +0.000 A 
ATOM      7  N   UNL     1       3.498   7.023  18.796  0.00  0.00    +0.000 NA
ATOM      8  H   UNL     1       2.585   9.158  18.393  0.00  0.00    +0.000 HD
ENDROOT
BRANCH   6   9
ATOM      9  C   UNL     1       5.238   5.393  18.661  0.00  0.00    +0.000 A 
ATOM     10  C   UNL     1       6.412   5.013  19.358  0.00  0.00    +0.000 A 
ATOM     11  N   UNL     1       7.408   4.653  18.550  0.00  0.00    +0.000 NA
ATOM     12  N   UNL     1       6.892   4.797  17.319  0.00  0.00    +0.000 N 
ATOM     13  N   UNL     1       7.645   4.480  16.242  0.00  0.00    +0.000 NA
ATOM     14  C   UNL     1       7.019   4.657  15.125  0.00  0.00    +0.000 A 
ATOM     15  C   UNL     1       5.634   5.156  14.961  0.00  0.00    +0.000 A 
ATOM     16  C   UNL     1       4.954   5.438  16.077  0.00  0.00    +0.000 A 
ATOM     17  C   UNL     1       5.587   5.253  17.330  0.00  0.00    +0.000 A 
ENDBRANCH   6   9
BRANCH   1  22
ATOM     18  C   UNL     1      -0.894  11.107  19.565  0.00  0.00    +0.000 A 
ATOM     19  C   UNL     1      -0.832  11.136  20.960  0.00  0.00    +0.000 A 
ATOM     20  C   UNL     1       0.071  10.313  21.638  0.00  0.00    +0.000 A 
ATOM     21  C   UNL     1       0.929   9.469  20.926  0.00  0.00    +0.000 A 
ATOM     22  C   UNL     1       0.922   9.467  19.529  0.00  0.00    +0.000 A 
ATOM     23  C   UNL     1      -0.022  10.259  18.866  0.00  0.00    +0.000 A 
BRANCH  18  24
ATOM     24  C   UNL     1      -1.854  11.981  18.785  0.00  0.00    +0.000 C 
BRANCH  24  25
ATOM     25  N   UNL     1      -3.062  11.289  18.295  0.00  0.00    +0.000 NA
BRANCH  25  27
ATOM     26  C   UNL     1      -5.551  11.054  18.618  0.00  0.00    +0.000 C 
ATOM     27  C   UNL     1      -4.294  11.893  18.836  0.00  0.00    +0.000 C 
ENDBRANCH  25  27
BRANCH  25  28
ATOM     28  C   UNL     1      -3.041  11.189  16.825  0.00  0.00    +0.000 C 
ATOM     29  C   UNL     1      -2.546   9.868  16.237  0.00  0.00    +0.000 C 
ENDBRANCH  25  28
ENDBRANCH  24  25
ENDBRANCH  18  24
ENDBRANCH   1  22
TORSDOF 6
ENDMDL
MODEL 6
REMARK VINA RESULT:      -7.7      1.890      9.121
REMARK  Name = 
REMARK  8 active torsions:
REMARK  status: ('A' for Active; 'I' for Inactive)
REMARK    1  A    between atoms: C_1  and  C_2
REMARK    2  A    between atoms: C_2  and  N_3
REMARK    3  A    between atoms: N_3  and  C_4
REMARK    4  A    between atoms: N_3  and  C_6
REMARK    5  A    between atoms: C_4  and  C_5
REMARK    6  A    between atoms: C_6  and  C_7
REMARK    7  A    between atoms: C_11  and  N_12
REMARK    8  A    between atoms: C_17  and  C_18
REMARK                            x       y       z     vdW  Elec       q    Type
REMARK                         _______ _______ _______ _____ _____    ______ ____
ROOT
ATOM      1  N   UNL     1       1.972   8.268  19.535  0.00  0.00    +0.000 N 
ATOM      2  C   UNL     1       2.477   6.976  19.716  0.00  0.00    +0.000 A 
ATOM      3  N   UNL     1       1.758   6.071  20.403  0.00  0.00    +0.000 NA
ATOM      4  C   UNL     1       2.259   4.835  20.527  0.00  0.00    +0.000 A 
ATOM      5  C   UNL     1       3.460   4.460  19.989  0.00  0.00    +0.000 A 
ATOM      6  C   UNL     1       4.136   5.445  19.301  0.00  0.00    +0.000 A 
ATOM      7  N   UNL     1       3.662   6.702  19.158  0.00  0.00    +0.000 NA
ATOM      8  H   UNL     1       2.707   8.856  19.167  0.00  0.00    +0.000 HD
ENDROOT
BRANCH   6   9
ATOM      9  C   UNL     1       5.415   5.154  18.675  0.00  0.00    +0.000 A 
ATOM     10  C   UNL     1       6.673   4.874  19.265  0.00  0.00    +0.000 A 
ATOM     11  N   UNL     1       7.624   4.610  18.371  0.00  0.00    +0.000 NA
ATOM     12  N   UNL     1       6.994   4.716  17.190  0.00  0.00    +0.000 N 
ATOM     13  N   UNL     1       7.677   4.474  16.048  0.00  0.00    +0.000 NA
ATOM     14  C   UNL     1       6.945   4.603  14.991  0.00  0.00    +0.000 A 
ATOM     15  C   UNL     1       5.512   4.979  14.951  0.00  0.00    +0.000 A 
ATOM     16  C   UNL     1       4.909   5.192  16.126  0.00  0.00    +0.000 A 
ATOM     17  C   UNL     1       5.660   5.055  17.318  0.00  0.00    +0.000 A 
ENDBRANCH   6   9
BRANCH   1  22
ATOM     18  C   UNL     1      -0.637  10.617  20.817  0.00  0.00    +0.000 A 
ATOM     19  C   UNL     1      -0.624  10.288  22.174  0.00  0.00    +0.000 A 
ATOM     20  C   UNL     1       0.209   9.268  22.639  0.00  0.00    +0.000 A 
ATOM     21  C   UNL     1       1.046   8.582  21.754  0.00  0.00    +0.000 A 
ATOM     22  C   UNL     1       1.089   8.933  20.403  0.00  0.00    +0.000 A 
ATOM     23  C   UNL     1       0.212   9.923  19.943  0.00  0.00    +0.000 A 
BRANCH  18  24
ATOM     24  C   UNL     1      -1.520  11.717  20.265  0.00  0.00    +0.000 C 
BRANCH  24  25
ATOM     25  N   UNL     1      -1.699  11.690  18.799  0.00  0.00    +0.000 NA
BRANCH  25  27
ATOM     26  C   UNL     1      -4.080  12.235  19.424  0.00  0.00    +0.000 C 
ATOM     27  C   UNL     1      -3.122  11.589  18.425  0.00  0.00    +0.000 C 
ENDBRANCH  25  27
BRANCH  25  28
ATOM     28  C   UNL     1      -0.995  12.821  18.171  0.00  0.00    +0.000 C 
ATOM     29  C   UNL     1      -0.349  13.834  19.117  0.00  0.00    +0.000 C 
ENDBRANCH  25  28
ENDBRANCH  24  25
ENDBRANCH  18  24
ENDBRANCH   1  22
TORSDOF 6
ENDMDL
MODEL 7
REMARK VINA RESULT:      -7.7      2.927      9.321
REMARK  Name = 
REMARK  8 active torsions:
REMARK  status: ('A' for Active; 'I' for Inactive)
REMARK    1  A    between atoms: C_1  and  C_2
REMARK    2  A    between atoms: C_2  and  N_3
REMARK    3  A    between atoms: N_3  and  C_4
REMARK    4  A    between atoms: N_3  and  C_6
REMARK    5  A    between atoms: C_4  and  C_5
REMARK    6  A    between atoms: C_6  and  C_7
REMARK    7  A    between atoms: C_11  and  N_12
REMARK    8  A    between atoms: C_17  and  C_18
REMARK                            x       y       z     vdW  Elec       q    Type
REMARK                         _______ _______ _______ _____ _____    ______ ____
ROOT
ATOM      1  N   UNL     1       1.054   9.233  21.414  0.00  0.00    +0.000 N 
ATOM      2  C   UNL     1       1.492   8.720  20.188  0.00  0.00    +0.000 A 
ATOM      3  N   UNL     1       1.331   9.444  19.068  0.00  0.00    +0.000 NA
ATOM      4  C   UNL     1       1.792   8.934  17.919  0.00  0.00    +0.000 A 
ATOM      5  C   UNL     1       2.415   7.719  17.839  0.00  0.00    +0.000 A 
ATOM      6  C   UNL     1       2.542   7.037  19.031  0.00  0.00    +0.000 A 
ATOM      7  N   UNL     1       2.085   7.520  20.208  0.00  0.00    +0.000 NA
ATOM      8  H   UNL     1       1.084   8.496  22.105  0.00  0.00    +0.000 HD
ENDROOT
BRANCH   6   9
ATOM      9  C   UNL     1       3.200   5.743  19.068  0.00  0.00    +0.000 A 
ATOM     10  C   UNL     1       4.568   5.424  19.260  0.00  0.00    +0.000 A 
ATOM     11  N   UNL     1       4.803   4.113  19.278  0.00  0.00    +0.000 NA
ATOM     12  N   UNL     1       3.590   3.565  19.095  0.00  0.00    +0.000 N 
ATOM     13  N   UNL     1       3.462   2.220  19.092  0.00  0.00    +0.000 NA
ATOM     14  C   UNL     1       2.241   1.834  18.918  0.00  0.00    +0.000 A 
ATOM     15  C   UNL     1       1.060   2.708  18.727  0.00  0.00    +0.000 A 
ATOM     16  C   UNL     1       1.272   4.028  18.753  0.00  0.00    +0.000 A 
ATOM     17  C   UNL     1       2.589   4.508  18.951  0.00  0.00    +0.000 A 
ENDBRANCH   6   9
BRANCH   1  22
ATOM     18  C   UNL     1      -1.662  11.695  20.686  0.00  0.00    +0.000 A 
ATOM     19  C   UNL     1      -2.079  11.997  21.984  0.00  0.00    +0.000 A 
ATOM     20  C   UNL     1      -1.493  11.353  23.076  0.00  0.00    +0.000 A 
ATOM     21  C   UNL     1      -0.475  10.415  22.878  0.00  0.00    +0.000 A 
ATOM     22  C   UNL     1      -0.004  10.140  21.592  0.00  0.00    +0.000 A 
ATOM     23  C   UNL     1      -0.636  10.756  20.506  0.00  0.00    +0.000 A 
BRANCH  18  24
ATOM     24  C   UNL     1      -2.265  12.368  19.470  0.00  0.00    +0.000 C 
BRANCH  24  25
ATOM     25  N   UNL     1      -2.931  11.452  18.522  0.00  0.00    +0.000 NA
BRANCH  25  27
ATOM     26  C   UNL     1      -5.106  12.160  19.581  0.00  0.00    +0.000 C 
ATOM     27  C   UNL     1      -4.341  11.824  18.303  0.00  0.00    +0.000 C 
ENDBRANCH  25  27
BRANCH  25  28
ATOM     28  C   UNL     1      -2.145  11.331  17.282  0.00  0.00    +0.000 C 
ATOM     29  C   UNL     1      -2.696  10.387  16.213  0.00  0.00    +0.000 C 
ENDBRANCH  25  28
ENDBRANCH  24  25
ENDBRANCH  18  24
ENDBRANCH   1  22
TORSDOF 6
ENDMDL
MODEL 8
REMARK VINA RESULT:      -7.6      2.399      8.925
REMARK  Name = 
REMARK  8 active torsions:
REMARK  status: ('A' for Active; 'I' for Inactive)
REMARK    1  A    between atoms: C_1  and  C_2
REMARK    2  A    between atoms: C_2  and  N_3
REMARK    3  A    between atoms: N_3  and  C_4
REMARK    4  A    between atoms: N_3  and  C_6
REMARK    5  A    between atoms: C_4  and  C_5
REMARK    6  A    between atoms: C_6  and  C_7
REMARK    7  A    between atoms: C_11  and  N_12
REMARK    8  A    between atoms: C_17  and  C_18
REMARK                            x       y       z     vdW  Elec       q    Type
REMARK                         _______ _______ _______ _____ _____    ______ ____
ROOT
ATOM      1  N   UNL     1       1.411   9.235  17.529  0.00  0.00    +0.000 N 
ATOM      2  C   UNL     1       2.196   8.193  18.033  0.00  0.00    +0.000 A 
ATOM      3  N   UNL     1       1.736   7.445  19.050  0.00  0.00    +0.000 NA
ATOM      4  C   UNL     1       2.502   6.435  19.483  0.00  0.00    +0.000 A 
ATOM      5  C   UNL     1       3.720   6.137  18.937  0.00  0.00    +0.000 A 
ATOM      6  C   UNL     1       4.122   6.950  17.899  0.00  0.00    +0.000 A 
ATOM      7  N   UNL     1       3.376   7.979  17.439  0.00  0.00    +0.000 NA
ATOM      8  H   UNL     1       1.975   9.797  16.907  0.00  0.00    +0.000 HD
ENDROOT
BRANCH   6   9
ATOM      9  C   UNL     1       5.392   6.715  17.234  0.00  0.00    +0.000 A 
ATOM     10  C   UNL     1       6.667   7.283  17.484  0.00  0.00    +0.000 A 
ATOM     11  N   UNL     1       7.622   6.793  16.695  0.00  0.00    +0.000 NA
ATOM     12  N   UNL     1       6.978   5.902  15.924  0.00  0.00    +0.000 N 
ATOM     13  N   UNL     1       7.674   5.186  15.013  0.00  0.00    +0.000 NA
ATOM     14  C   UNL     1       6.930   4.361  14.351  0.00  0.00    +0.000 A 
ATOM     15  C   UNL     1       5.470   4.171  14.509  0.00  0.00    +0.000 A 
ATOM     16  C   UNL     1       4.859   4.913  15.439  0.00  0.00    +0.000 A 
ATOM     17  C   UNL     1       5.626   5.826  16.202  0.00  0.00    +0.000 A 
ENDBRANCH   6   9
BRANCH   1  22
ATOM     18  C   UNL     1      -0.162  11.353  20.177  0.00  0.00    +0.000 A 
ATOM     19  C   UNL     1      -1.482  11.383  19.721  0.00  0.00    +0.000 A 
ATOM     20  C   UNL     1      -1.825  10.746  18.527  0.00  0.00    +0.000 A 
ATOM     21  C   UNL     1      -0.855  10.061  17.789  0.00  0.00    +0.000 A 
ATOM     22  C   UNL     1       0.459   9.970  18.256  0.00  0.00    +0.000 A 
ATOM     23  C   UNL     1       0.797  10.656  19.428  0.00  0.00    +0.000 A 
BRANCH  18  24
ATOM     24  C   UNL     1       0.259  12.026  21.468  0.00  0.00    +0.000 C 
BRANCH  24  25
ATOM     25  N   UNL     1      -0.297  11.417  22.692  0.00  0.00    +0.000 NA
BRANCH  25  27
ATOM     26  C   UNL     1      -1.527  13.536  23.283  0.00  0.00    +0.000 C 
ATOM     27  C   UNL     1      -1.587  12.026  23.068  0.00  0.00    +0.000 C 
ENDBRANCH  25  27
BRANCH  25  28
ATOM     28  C   UNL     1      -0.344   9.950  22.565  0.00  0.00    +0.000 C 
ATOM     29  C   UNL     1       0.978   9.205  22.753  0.00  0.00    +0.000 C 
ENDBRANCH  25  28
ENDBRANCH  24  25
ENDBRANCH  18  24
ENDBRANCH   1  22
TORSDOF 6
ENDMDL
MODEL 9
REMARK VINA RESULT:      -7.6      3.125      9.297
REMARK  Name = 
REMARK  8 active torsions:
REMARK  status: ('A' for Active; 'I' for Inactive)
REMARK    1  A    between atoms: C_1  and  C_2
REMARK    2  A    between atoms: C_2  and  N_3
REMARK    3  A    between atoms: N_3  and  C_4
REMARK    4  A    between atoms: N_3  and  C_6
REMARK    5  A    between atoms: C_4  and  C_5
REMARK    6  A    between atoms: C_6  and  C_7
REMARK    7  A    between atoms: C_11  and  N_12
REMARK    8  A    between atoms: C_17  and  C_18
REMARK                            x       y       z     vdW  Elec       q    Type
REMARK                         _______ _______ _______ _____ _____    ______ ____
ROOT
ATOM      1  N   UNL     1       0.665   9.596  20.848  0.00  0.00    +0.000 N 
ATOM      2  C   UNL     1       1.374   9.005  19.797  0.00  0.00    +0.000 A 
ATOM      3  N   UNL     1       1.522   9.669  18.638  0.00  0.00    +0.000 NA
ATOM      4  C   UNL     1       2.235   9.085  17.666  0.00  0.00    +0.000 A 
ATOM      5  C   UNL     1       2.814   7.853  17.804  0.00  0.00    +0.000 A 
ATOM      6  C   UNL     1       2.617   7.237  19.022  0.00  0.00    +0.000 A 
ATOM      7  N   UNL     1       1.901   7.795  20.023  0.00  0.00    +0.000 NA
ATOM      8  H   UNL     1       0.496   8.899  21.560  0.00  0.00    +0.000 HD
ENDROOT
BRANCH   6   9
ATOM      9  C   UNL     1       3.199   5.932  19.285  0.00  0.00    +0.000 A 
ATOM     10  C   UNL     1       4.523   5.469  19.078  0.00  0.00    +0.000 A 
ATOM     11  N   UNL     1       4.707   4.213  19.481  0.00  0.00    +0.000 NA
ATOM     12  N   UNL     1       3.505   3.846  19.954  0.00  0.00    +0.000 N 
ATOM     13  N   UNL     1       3.347   2.612  20.481  0.00  0.00    +0.000 NA
ATOM     14  C   UNL     1       2.145   2.399  20.905  0.00  0.00    +0.000 A 
ATOM     15  C   UNL     1       1.010   3.350  20.848  0.00  0.00    +0.000 A 
ATOM     16  C   UNL     1       1.253   4.553  20.319  0.00  0.00    +0.000 A 
ATOM     17  C   UNL     1       2.556   4.845  19.847  0.00  0.00    +0.000 A 
ENDBRANCH   6   9
BRANCH   1  22
ATOM     18  C   UNL     1      -2.142  11.589  19.392  0.00  0.00    +0.000 A 
ATOM     19  C   UNL     1      -2.399  12.466  20.449  0.00  0.00    +0.000 A 
ATOM     20  C   UNL     1      -1.678  12.359  21.640  0.00  0.00    +0.000 A 
ATOM     21  C   UNL     1      -0.683  11.385  21.777  0.00  0.00    +0.000 A 
ATOM     22  C   UNL     1      -0.371  10.536  20.713  0.00  0.00    +0.000 A 
ATOM     23  C   UNL     1      -1.137  10.623  19.544  0.00  0.00    +0.000 A 
BRANCH  18  24
ATOM     24  C   UNL     1      -2.895  11.668  18.080  0.00  0.00    +0.000 C 
BRANCH  24  25
ATOM     25  N   UNL     1      -3.823  10.547  17.832  0.00  0.00    +0.000 NA
BRANCH  25  27
ATOM     26  C   UNL     1      -5.615  12.319  17.771  0.00  0.00    +0.000 C 
ATOM     27  C   UNL     1      -5.213  10.903  18.176  0.00  0.00    +0.000 C 
ENDBRANCH  25  27
BRANCH  25  28
ATOM     28  C   UNL     1      -3.659  10.034  16.461  0.00  0.00    +0.000 C 
ATOM     29  C   UNL     1      -2.731  10.827  15.540  0.00  0.00    +0.000 C 
ENDBRANCH  25  28
ENDBRANCH  24  25
ENDBRANCH  18  24
ENDBRANCH   1  22
TORSDOF 6
ENDMDL
