MODEL 1
REMARK VINA RESULT:      -7.2      0.000      0.000
REMARK  Name = 
REMARK  8 active torsions:
REMARK  status: ('A' for Active; 'I' for Inactive)
REMARK    1  A    between atoms: C_1  and  N_2
REMARK    2  A    between atoms: N_2  and  S_3
REMARK    3  A    between atoms: S_3  and  C_6
REMARK    4  A    between atoms: C_10  and  C_11
REMARK    5  A    between atoms: C_11  and  O_13
REMARK    6  A    between atoms: O_13  and  C_14
REMARK    7  A    between atoms: C_14  and  C_15
REMARK    8  A    between atoms: N_17  and  C_18
REMARK                            x       y       z     vdW  Elec       q    Type
REMARK                         _______ _______ _______ _____ _____    ______ ____
ROOT
ATOM      1  C   UNL     1       4.700   6.243  17.692  0.00  0.00    +0.000 C 
ATOM      2  O   UNL     1       4.245   7.239  17.150  0.00  0.00    +0.000 OA
ENDROOT
BRANCH   1   7
ATOM      3  C   UNL     1       2.294   3.453  18.655  0.00  0.00    +0.000 A 
ATOM      4  C   UNL     1       2.822   2.384  17.926  0.00  0.00    +0.000 A 
ATOM      5  C   UNL     1       3.930   2.592  17.112  0.00  0.00    +0.000 A 
ATOM      6  C   UNL     1       4.511   3.862  17.033  0.00  0.00    +0.000 A 
ATOM      7  C   UNL     1       3.977   4.940  17.757  0.00  0.00    +0.000 A 
ATOM      8  C   UNL     1       2.851   4.735  18.567  0.00  0.00    +0.000 A 
BRANCH   3   9
ATOM      9  S   UNL     1       0.905   3.173  19.730  0.00  0.00    +0.000 S 
ATOM     10  O   UNL     1      -0.078   2.381  19.022  0.00  0.00    +0.000 OA
ATOM     11  O   UNL     1       0.577   4.454  20.325  0.00  0.00    +0.000 OA
BRANCH   9  13
ATOM     12  C   UNL     1       2.709   2.779  21.692  0.00  0.00    +0.000 C 
ATOM     13  N   UNL     1       1.580   2.220  20.947  0.00  0.00    +0.000 NA
ATOM     14  H   UNL     1       0.880   1.731  21.500  0.00  0.00    +0.000 HD
ENDBRANCH   9  13
ENDBRANCH   3   9
ENDBRANCH   1   7
BRANCH   1  15
ATOM     15  O   UNL     1       5.942   6.132  18.219  0.00  0.00    +0.000 OA
BRANCH  15  16
ATOM     16  C   UNL     1       6.985   6.567  17.337  0.00  0.00    +0.000 C 
BRANCH  16  17
ATOM     17  C   UNL     1       7.310   5.435  16.359  0.00  0.00    +0.000 C 
ATOM     18  O   UNL     1       7.969   4.446  16.680  0.00  0.00    +0.000 OA
ATOM     19  N   UNL     1       6.844   5.629  15.072  0.00  0.00    +0.000 N 
ATOM     20  H   UNL     1       6.214   6.399  14.885  0.00  0.00    +0.000 HD
BRANCH  19  21
ATOM     21  C   UNL     1       7.047   4.625  14.049  0.00  0.00    +0.000 C 
ATOM     22  C   UNL     1       5.757   3.960  13.580  0.00  0.00    +0.000 C 
ATOM     23  C   UNL     1       6.164   3.286  12.275  0.00  0.00    +0.000 C 
ATOM     24  C   UNL     1       7.283   4.151  11.692  0.00  0.00    +0.000 C 
ATOM     25  C   UNL     1       7.608   5.201  12.753  0.00  0.00    +0.000 C 
ENDBRANCH  19  21
ENDBRANCH  16  17
ENDBRANCH  15  16
ENDBRANCH   1  15
TORSDOF 7
ENDMDL
MODEL 2
REMARK VINA RESULT:      -7.2      1.448      2.114
REMARK  Name = 
REMARK  8 active torsions:
REMARK  status: ('A' for Active; 'I' for Inactive)
REMARK    1  A    between atoms: C_1  and  N_2
REMARK    2  A    between atoms: N_2  and  S_3
REMARK    3  A    between atoms: S_3  and  C_6
REMARK    4  A    between atoms: C_10  and  C_11
REMARK    5  A    between atoms: C_11  and  O_13
REMARK    6  A    between atoms: O_13  and  C_14
REMARK    7  A    between atoms: C_14  and  C_15
REMARK    8  A    between atoms: N_17  and  C_18
REMARK                            x       y       z     vdW  Elec       q    Type
REMARK                         _______ _______ _______ _____ _____    ______ ____
ROOT
ATOM      1  C   UNL     1       6.046   5.810  19.061  0.00  0.00    +0.000 C 
ATOM      2  O   UNL     1       6.890   5.469  19.876  0.00  0.00    +0.000 OA
ENDROOT
BRANCH   1   7
ATOM      3  C   UNL     1       2.767   4.053  19.872  0.00  0.00    +0.000 A 
ATOM      4  C   UNL     1       1.854   4.872  19.203  0.00  0.00    +0.000 A 
ATOM      5  C   UNL     1       2.313   5.996  18.524  0.00  0.00    +0.000 A 
ATOM      6  C   UNL     1       3.679   6.296  18.512  0.00  0.00    +0.000 A 
ATOM      7  C   UNL     1       4.598   5.480  19.191  0.00  0.00    +0.000 A 
ATOM      8  C   UNL     1       4.135   4.354  19.887  0.00  0.00    +0.000 A 
BRANCH   3   9
ATOM      9  S   UNL     1       2.182   2.591  20.700  0.00  0.00    +0.000 S 
ATOM     10  O   UNL     1       0.840   2.837  21.184  0.00  0.00    +0.000 OA
ATOM     11  O   UNL     1       3.251   2.159  21.579  0.00  0.00    +0.000 OA
BRANCH   9  13
ATOM     12  C   UNL     1       3.301   1.277  18.631  0.00  0.00    +0.000 C 
ATOM     13  N   UNL     1       2.096   1.476  19.439  0.00  0.00    +0.000 NA
ATOM     14  H   UNL     1       1.585   0.632  19.690  0.00  0.00    +0.000 HD
ENDBRANCH   9  13
ENDBRANCH   3   9
ENDBRANCH   1   7
BRANCH   1  15
ATOM     15  O   UNL     1       6.264   6.609  17.990  0.00  0.00    +0.000 OA
BRANCH  15  16
ATOM     16  C   UNL     1       7.582   6.493  17.440  0.00  0.00    +0.000 C 
BRANCH  16  17
ATOM     17  C   UNL     1       7.612   5.307  16.472  0.00  0.00    +0.000 C 
ATOM     18  O   UNL     1       8.047   4.199  16.789  0.00  0.00    +0.000 OA
ATOM     19  N   UNL     1       7.153   5.587  15.198  0.00  0.00    +0.000 N 
ATOM     20  H   UNL     1       6.703   6.475  15.018  0.00  0.00    +0.000 HD
BRANCH  19  21
ATOM     21  C   UNL     1       7.091   4.552  14.187  0.00  0.00    +0.000 C 
ATOM     22  C   UNL     1       5.673   4.075  13.887  0.00  0.00    +0.000 C 
ATOM     23  C   UNL     1       5.825   3.334  12.564  0.00  0.00    +0.000 C 
ATOM     24  C   UNL     1       6.980   4.021  11.833  0.00  0.00    +0.000 C 
ATOM     25  C   UNL     1       7.572   5.026  12.820  0.00  0.00    +0.000 C 
ENDBRANCH  19  21
ENDBRANCH  16  17
ENDBRANCH  15  16
ENDBRANCH   1  15
TORSDOF 7
ENDMDL
MODEL 3
REMARK VINA RESULT:      -7.1      1.326      1.883
REMARK  Name = 
REMARK  8 active torsions:
REMARK  status: ('A' for Active; 'I' for Inactive)
REMARK    1  A    between atoms: C_1  and  N_2
REMARK    2  A    between atoms: N_2  and  S_3
REMARK    3  A    between atoms: S_3  and  C_6
REMARK    4  A    between atoms: C_10  and  C_11
REMARK    5  A    between atoms: C_11  and  O_13
REMARK    6  A    between atoms: O_13  and  C_14
REMARK    7  A    between atoms: C_14  and  C_15
REMARK    8  A    between atoms: N_17  and  C_18
REMARK                            x       y       z     vdW  Elec       q    Type
REMARK                         _______ _______ _______ _____ _____    ______ ____
ROOT
ATOM      1  C   UNL     1       5.813   5.806  18.907  0.00  0.00    +0.000 C 
ATOM      2  O   UNL     1       6.495   5.297  19.783  0.00  0.00    +0.000 OA
ENDROOT
BRANCH   1   7
ATOM      3  C   UNL     1       2.403   4.116  18.775  0.00  0.00    +0.000 A 
ATOM      4  C   UNL     1       1.621   5.138  18.229  0.00  0.00    +0.000 A 
ATOM      5  C   UNL     1       2.206   6.366  17.940  0.00  0.00    +0.000 A 
ATOM      6  C   UNL     1       3.567   6.570  18.191  0.00  0.00    +0.000 A 
ATOM      7  C   UNL     1       4.352   5.548  18.749  0.00  0.00    +0.000 A 
ATOM      8  C   UNL     1       3.761   4.314  19.054  0.00  0.00    +0.000 A 
BRANCH   3   9
ATOM      9  S   UNL     1       1.662   2.532  19.101  0.00  0.00    +0.000 S 
ATOM     10  O   UNL     1       2.714   1.549  19.249  0.00  0.00    +0.000 OA
ATOM     11  O   UNL     1       0.589   2.372  18.140  0.00  0.00    +0.000 OA
BRANCH   9  13
ATOM     12  C   UNL     1       1.835   2.932  21.760  0.00  0.00    +0.000 C 
ATOM     13  N   UNL     1       0.946   2.775  20.608  0.00  0.00    +0.000 NA
ATOM     14  H   UNL     1       0.150   3.409  20.570  0.00  0.00    +0.000 HD
ENDBRANCH   9  13
ENDBRANCH   3   9
ENDBRANCH   1   7
BRANCH   1  15
ATOM     15  O   UNL     1       6.236   6.741  18.024  0.00  0.00    +0.000 OA
BRANCH  15  16
ATOM     16  C   UNL     1       7.518   6.457  17.451  0.00  0.00    +0.000 C 
BRANCH  16  17
ATOM     17  C   UNL     1       7.380   5.272  16.491  0.00  0.00    +0.000 C 
ATOM     18  O   UNL     1       7.263   4.110  16.881  0.00  0.00    +0.000 OA
ATOM     19  N   UNL     1       7.441   5.602  15.149  0.00  0.00    +0.000 N 
ATOM     20  H   UNL     1       7.425   6.577  14.879  0.00  0.00    +0.000 HD
BRANCH  19  21
ATOM     21  C   UNL     1       7.290   4.588  14.128  0.00  0.00    +0.000 C 
ATOM     22  C   UNL     1       5.850   4.122  13.937  0.00  0.00    +0.000 C 
ATOM     23  C   UNL     1       5.888   3.407  12.591  0.00  0.00    +0.000 C 
ATOM     24  C   UNL     1       6.982   4.104  11.781  0.00  0.00    +0.000 C 
ATOM     25  C   UNL     1       7.659   5.087  12.735  0.00  0.00    +0.000 C 
ENDBRANCH  19  21
ENDBRANCH  16  17
ENDBRANCH  15  16
ENDBRANCH   1  15
TORSDOF 7
ENDMDL
MODEL 4
REMARK VINA RESULT:      -7.1      1.405      2.035
REMARK  Name = 
REMARK  8 active torsions:
REMARK  status: ('A' for Active; 'I' for Inactive)
REMARK    1  A    between atoms: C_1  and  N_2
REMARK    2  A    between atoms: N_2  and  S_3
REMARK    3  A    between atoms: S_3  and  C_6
REMARK    4  A    between atoms: C_10  and  C_11
REMARK    5  A    between atoms: C_11  and  O_13
REMARK    6  A    between atoms: O_13  and  C_14
REMARK    7  A    between atoms: C_14  and  C_15
REMARK    8  A    between atoms: N_17  and  C_18
REMARK                            x       y       z     vdW  Elec       q    Type
REMARK                         _______ _______ _______ _____ _____    ______ ____
ROOT
ATOM      1  C   UNL     1       4.381   6.625  17.853  0.00  0.00    +0.000 C 
ATOM      2  O   UNL     1       4.104   7.365  16.922  0.00  0.00    +0.000 OA
ENDROOT
BRANCH   1   7
ATOM      3  C   UNL     1       2.005   4.297  19.706  0.00  0.00    +0.000 A 
ATOM      4  C   UNL     1       1.302   5.210  20.497  0.00  0.00    +0.000 A 
ATOM      5  C   UNL     1       1.629   6.560  20.438  0.00  0.00    +0.000 A 
ATOM      6  C   UNL     1       2.651   6.996  19.589  0.00  0.00    +0.000 A 
ATOM      7  C   UNL     1       3.366   6.080  18.800  0.00  0.00    +0.000 A 
ATOM      8  C   UNL     1       3.046   4.716  18.869  0.00  0.00    +0.000 A 
BRANCH   3   9
ATOM      9  S   UNL     1       1.553   2.577  19.750  0.00  0.00    +0.000 S 
ATOM     10  O   UNL     1       0.396   2.379  18.902  0.00  0.00    +0.000 OA
ATOM     11  O   UNL     1       1.561   2.183  21.145  0.00  0.00    +0.000 OA
BRANCH   9  13
ATOM     12  C   UNL     1       4.145   1.840  19.759  0.00  0.00    +0.000 C 
ATOM     13  N   UNL     1       2.881   1.839  19.019  0.00  0.00    +0.000 NA
ATOM     14  H   UNL     1       2.641   0.968  18.550  0.00  0.00    +0.000 HD
ENDBRANCH   9  13
ENDBRANCH   3   9
ENDBRANCH   1   7
BRANCH   1  15
ATOM     15  O   UNL     1       5.606   6.110  18.111  0.00  0.00    +0.000 OA
BRANCH  15  16
ATOM     16  C   UNL     1       6.626   6.567  17.214  0.00  0.00    +0.000 C 
BRANCH  16  17
ATOM     17  C   UNL     1       7.008   5.421  16.273  0.00  0.00    +0.000 C 
ATOM     18  O   UNL     1       7.807   4.539  16.588  0.00  0.00    +0.000 OA
ATOM     19  N   UNL     1       6.420   5.477  15.023  0.00  0.00    +0.000 N 
ATOM     20  H   UNL     1       5.688   6.154  14.851  0.00  0.00    +0.000 HD
BRANCH  19  21
ATOM     21  C   UNL     1       6.662   4.441  14.041  0.00  0.00    +0.000 C 
ATOM     22  C   UNL     1       5.389   3.891  13.406  0.00  0.00    +0.000 C 
ATOM     23  C   UNL     1       5.901   3.160  12.170  0.00  0.00    +0.000 C 
ATOM     24  C   UNL     1       7.164   3.906  11.740  0.00  0.00    +0.000 C 
ATOM     25  C   UNL     1       7.442   4.940  12.830  0.00  0.00    +0.000 C 
ENDBRANCH  19  21
ENDBRANCH  16  17
ENDBRANCH  15  16
ENDBRANCH   1  15
TORSDOF 7
ENDMDL
MODEL 5
REMARK VINA RESULT:      -7.1      2.874      6.669
REMARK  Name = 
REMARK  8 active torsions:
REMARK  status: ('A' for Active; 'I' for Inactive)
REMARK    1  A    between atoms: C_1  and  N_2
REMARK    2  A    between atoms: N_2  and  S_3
REMARK    3  A    between atoms: S_3  and  C_6
REMARK    4  A    between atoms: C_10  and  C_11
REMARK    5  A    between atoms: C_11  and  O_13
REMARK    6  A    between atoms: O_13  and  C_14
REMARK    7  A    between atoms: C_14  and  C_15
REMARK    8  A    between atoms: N_17  and  C_18
REMARK                            x       y       z     vdW  Elec       q    Type
REMARK                         _______ _______ _______ _____ _____    ______ ____
ROOT
ATOM      1  C   UNL     1       3.998   2.247  20.723  0.00  0.00    +0.000 C 
ATOM      2  O   UNL     1       4.908   1.725  21.348  0.00  0.00    +0.000 OA
ENDROOT
BRANCH   1   7
ATOM      3  C   UNL     1       5.198   4.119  17.631  0.00  0.00    +0.000 A 
ATOM      4  C   UNL     1       4.201   3.781  16.712  0.00  0.00    +0.000 A 
ATOM      5  C   UNL     1       3.173   2.929  17.101  0.00  0.00    +0.000 A 
ATOM      6  C   UNL     1       3.140   2.422  18.404  0.00  0.00    +0.000 A 
ATOM      7  C   UNL     1       4.145   2.753  19.327  0.00  0.00    +0.000 A 
ATOM      8  C   UNL     1       5.190   3.601  18.932  0.00  0.00    +0.000 A 
BRANCH   3   9
ATOM      9  S   UNL     1       6.486   5.246  17.144  0.00  0.00    +0.000 S 
ATOM     10  O   UNL     1       7.724   4.507  17.013  0.00  0.00    +0.000 OA
ATOM     11  O   UNL     1       6.368   6.405  18.006  0.00  0.00    +0.000 OA
BRANCH   9  13
ATOM     12  C   UNL     1       5.042   6.836  15.517  0.00  0.00    +0.000 C 
ATOM     13  N   UNL     1       5.984   5.719  15.605  0.00  0.00    +0.000 NA
ATOM     14  H   UNL     1       6.741   5.721  14.925  0.00  0.00    +0.000 HD
ENDBRANCH   9  13
ENDBRANCH   3   9
ENDBRANCH   1   7
BRANCH   1  15
ATOM     15  O   UNL     1       2.716   2.357  21.143  0.00  0.00    +0.000 OA
BRANCH  15  16
ATOM     16  C   UNL     1       2.428   3.596  21.804  0.00  0.00    +0.000 C 
BRANCH  16  17
ATOM     17  C   UNL     1       1.736   4.536  20.813  0.00  0.00    +0.000 C 
ATOM     18  O   UNL     1       0.704   4.231  20.216  0.00  0.00    +0.000 OA
ATOM     19  N   UNL     1       2.384   5.740  20.607  0.00  0.00    +0.000 N 
ATOM     20  H   UNL     1       3.163   5.991  21.202  0.00  0.00    +0.000 HD
BRANCH  19  21
ATOM     21  C   UNL     1       1.826   6.742  19.724  0.00  0.00    +0.000 C 
ATOM     22  C   UNL     1       1.746   8.132  20.347  0.00  0.00    +0.000 C 
ATOM     23  C   UNL     1       1.535   9.044  19.145  0.00  0.00    +0.000 C 
ATOM     24  C   UNL     1       2.234   8.355  17.972  0.00  0.00    +0.000 C 
ATOM     25  C   UNL     1       2.683   6.987  18.486  0.00  0.00    +0.000 C 
ENDBRANCH  19  21
ENDBRANCH  16  17
ENDBRANCH  15  16
ENDBRANCH   1  15
TORSDOF 7
ENDMDL
MODEL 6
REMARK VINA RESULT:      -7.0      5.219      7.305
REMARK  Name = 
REMARK  8 active torsions:
REMARK  status: ('A' for Active; 'I' for Inactive)
REMARK    1  A    between atoms: C_1  and  N_2
REMARK    2  A    between atoms: N_2  and  S_3
REMARK    3  A    between atoms: S_3  and  C_6
REMARK    4  A    between atoms: C_10  and  C_11
REMARK    5  A    between atoms: C_11  and  O_13
REMARK    6  A    between atoms: O_13  and  C_14
REMARK    7  A    between atoms: C_14  and  C_15
REMARK    8  A    between atoms: N_17  and  C_18
REMARK                            x       y       z     vdW  Elec       q    Type
REMARK                         _______ _______ _______ _____ _____    ______ ____
ROOT
ATOM      1  C   UNL     1       2.237   7.855  18.924  0.00  0.00    +0.000 C 
ATOM      2  O   UNL     1       2.037   7.969  20.124  0.00  0.00    +0.000 OA
ENDROOT
BRANCH   1   7
ATOM      3  C   UNL     1       2.984   4.225  18.048  0.00  0.00    +0.000 A 
ATOM      4  C   UNL     1       4.078   4.378  17.192  0.00  0.00    +0.000 A 
ATOM      5  C   UNL     1       4.536   5.656  16.889  0.00  0.00    +0.000 A 
ATOM      6  C   UNL     1       3.907   6.775  17.445  0.00  0.00    +0.000 A 
ATOM      7  C   UNL     1       2.802   6.624  18.299  0.00  0.00    +0.000 A 
ATOM      8  C   UNL     1       2.330   5.337  18.593  0.00  0.00    +0.000 A 
BRANCH   3   9
ATOM      9  S   UNL     1       2.430   2.588  18.469  0.00  0.00    +0.000 S 
ATOM     10  O   UNL     1       3.334   1.625  17.876  0.00  0.00    +0.000 OA
ATOM     11  O   UNL     1       1.002   2.559  18.219  0.00  0.00    +0.000 OA
BRANCH   9  13
ATOM     12  C   UNL     1       1.444   2.680  20.975  0.00  0.00    +0.000 C 
ATOM     13  N   UNL     1       2.641   2.557  20.141  0.00  0.00    +0.000 NA
ATOM     14  H   UNL     1       3.323   1.863  20.441  0.00  0.00    +0.000 HD
ENDBRANCH   9  13
ENDBRANCH   3   9
ENDBRANCH   1   7
BRANCH   1  15
ATOM     15  O   UNL     1       1.894   8.762  17.979  0.00  0.00    +0.000 OA
BRANCH  15  16
ATOM     16  C   UNL     1       1.481  10.025  18.513  0.00  0.00    +0.000 C 
BRANCH  16  17
ATOM     17  C   UNL     1      -0.049  10.055  18.589  0.00  0.00    +0.000 C 
ATOM     18  O   UNL     1      -0.664   9.970  19.652  0.00  0.00    +0.000 OA
ATOM     19  N   UNL     1      -0.688  10.140  17.365  0.00  0.00    +0.000 N 
ATOM     20  H   UNL     1      -0.141  10.320  16.533  0.00  0.00    +0.000 HD
BRANCH  19  21
ATOM     21  C   UNL     1      -2.131  10.212  17.286  0.00  0.00    +0.000 C 
ATOM     22  C   UNL     1      -2.701  11.562  17.709  0.00  0.00    +0.000 C 
ATOM     23  C   UNL     1      -4.123  11.531  17.161  0.00  0.00    +0.000 C 
ATOM     24  C   UNL     1      -4.066  10.654  15.909  0.00  0.00    +0.000 C 
ATOM     25  C   UNL     1      -2.656  10.068  15.861  0.00  0.00    +0.000 C 
ENDBRANCH  19  21
ENDBRANCH  16  17
ENDBRANCH  15  16
ENDBRANCH   1  15
TORSDOF 7
ENDMDL
MODEL 7
REMARK VINA RESULT:      -6.9      1.348      2.183
REMARK  Name = 
REMARK  8 active torsions:
REMARK  status: ('A' for Active; 'I' for Inactive)
REMARK    1  A    between atoms: C_1  and  N_2
REMARK    2  A    between atoms: N_2  and  S_3
REMARK    3  A    between atoms: S_3  and  C_6
REMARK    4  A    between atoms: C_10  and  C_11
REMARK    5  A    between atoms: C_11  and  O_13
REMARK    6  A    between atoms: O_13  and  C_14
REMARK    7  A    between atoms: C_14  and  C_15
REMARK    8  A    between atoms: N_17  and  C_18
REMARK                            x       y       z     vdW  Elec       q    Type
REMARK                         _______ _______ _______ _____ _____    ______ ____
ROOT
ATOM      1  C   UNL     1       6.070   5.399  18.715  0.00  0.00    +0.000 C 
ATOM      2  O   UNL     1       6.863   4.545  19.079  0.00  0.00    +0.000 OA
ENDROOT
BRANCH   1   7
ATOM      3  C   UNL     1       2.603   3.827  18.838  0.00  0.00    +0.000 A 
ATOM      4  C   UNL     1       1.803   4.922  18.500  0.00  0.00    +0.000 A 
ATOM      5  C   UNL     1       2.397   6.157  18.266  0.00  0.00    +0.000 A 
ATOM      6  C   UNL     1       3.786   6.295  18.366  0.00  0.00    +0.000 A 
ATOM      7  C   UNL     1       4.591   5.200  18.715  0.00  0.00    +0.000 A 
ATOM      8  C   UNL     1       3.992   3.956  18.964  0.00  0.00    +0.000 A 
BRANCH   3   9
ATOM      9  S   UNL     1       1.844   2.238  19.090  0.00  0.00    +0.000 S 
ATOM     10  O   UNL     1       2.646   1.230  18.429  0.00  0.00    +0.000 OA
ATOM     11  O   UNL     1       0.432   2.405  18.809  0.00  0.00    +0.000 OA
BRANCH   9  13
ATOM     12  C   UNL     1       1.286   2.973  21.622  0.00  0.00    +0.000 C 
ATOM     13  N   UNL     1       1.996   2.029  20.756  0.00  0.00    +0.000 NA
ATOM     14  H   UNL     1       1.958   1.052  21.038  0.00  0.00    +0.000 HD
ENDBRANCH   9  13
ENDBRANCH   3   9
ENDBRANCH   1   7
BRANCH   1  15
ATOM     15  O   UNL     1       6.385   6.667  18.361  0.00  0.00    +0.000 OA
BRANCH  15  16
ATOM     16  C   UNL     1       7.344   6.749  17.299  0.00  0.00    +0.000 C 
BRANCH  16  17
ATOM     17  C   UNL     1       6.649   6.405  15.978  0.00  0.00    +0.000 C 
ATOM     18  O   UNL     1       5.560   6.879  15.656  0.00  0.00    +0.000 OA
ATOM     19  N   UNL     1       7.319   5.485  15.193  0.00  0.00    +0.000 N 
ATOM     20  H   UNL     1       8.260   5.211  15.446  0.00  0.00    +0.000 HD
BRANCH  19  21
ATOM     21  C   UNL     1       6.798   5.091  13.902  0.00  0.00    +0.000 C 
ATOM     22  C   UNL     1       7.876   4.909  12.837  0.00  0.00    +0.000 C 
ATOM     23  C   UNL     1       7.159   4.125  11.744  0.00  0.00    +0.000 C 
ATOM     24  C   UNL     1       6.105   3.280  12.461  0.00  0.00    +0.000 C 
ATOM     25  C   UNL     1       6.126   3.723  13.923  0.00  0.00    +0.000 C 
ENDBRANCH  19  21
ENDBRANCH  16  17
ENDBRANCH  15  16
ENDBRANCH   1  15
TORSDOF 7
ENDMDL
MODEL 8
REMARK VINA RESULT:      -6.9      5.477      7.724
REMARK  Name = 
REMARK  8 active torsions:
REMARK  status: ('A' for Active; 'I' for Inactive)
REMARK    1  A    between atoms: C_1  and  N_2
REMARK    2  A    between atoms: N_2  and  S_3
REMARK    3  A    between atoms: S_3  and  C_6
REMARK    4  A    between atoms: C_10  and  C_11
REMARK    5  A    between atoms: C_11  and  O_13
REMARK    6  A    between atoms: O_13  and  C_14
REMARK    7  A    between atoms: C_14  and  C_15
REMARK    8  A    between atoms: N_17  and  C_18
REMARK                            x       y       z     vdW  Elec       q    Type
REMARK                         _______ _______ _______ _____ _____    ______ ____
ROOT
ATOM      1  C   UNL     1       2.192   8.394  18.474  0.00  0.00    +0.000 C 
ATOM      2  O   UNL     1       2.444   8.668  17.311  0.00  0.00    +0.000 OA
ENDROOT
BRANCH   1   7
ATOM      3  C   UNL     1       3.659   4.949  19.166  0.00  0.00    +0.000 A 
ATOM      4  C   UNL     1       2.873   4.538  20.245  0.00  0.00    +0.000 A 
ATOM      5  C   UNL     1       1.900   5.394  20.749  0.00  0.00    +0.000 A 
ATOM      6  C   UNL     1       1.712   6.655  20.173  0.00  0.00    +0.000 A 
ATOM      7  C   UNL     1       2.507   7.075  19.094  0.00  0.00    +0.000 A 
ATOM      8  C   UNL     1       3.497   6.217  18.594  0.00  0.00    +0.000 A 
BRANCH   3   9
ATOM      9  S   UNL     1       4.871   3.833  18.494  0.00  0.00    +0.000 S 
ATOM     10  O   UNL     1       6.175   4.204  18.999  0.00  0.00    +0.000 OA
ATOM     11  O   UNL     1       4.595   3.730  17.074  0.00  0.00    +0.000 OA
BRANCH   9  13
ATOM     12  C   UNL     1       3.583   1.468  18.401  0.00  0.00    +0.000 C 
ATOM     13  N   UNL     1       4.429   2.363  19.192  0.00  0.00    +0.000 NA
ATOM     14  H   UNL     1       5.192   1.920  19.700  0.00  0.00    +0.000 HD
ENDBRANCH   9  13
ENDBRANCH   3   9
ENDBRANCH   1   7
BRANCH   1  15
ATOM     15  O   UNL     1       1.693   9.253  19.394  0.00  0.00    +0.000 OA
BRANCH  15  16
ATOM     16  C   UNL     1       1.127  10.442  18.830  0.00  0.00    +0.000 C 
BRANCH  16  17
ATOM     17  C   UNL     1      -0.385  10.248  18.681  0.00  0.00    +0.000 C 
ATOM     18  O   UNL     1      -1.114   9.954  19.628  0.00  0.00    +0.000 OA
ATOM     19  N   UNL     1      -0.863  10.385  17.391  0.00  0.00    +0.000 N 
ATOM     20  H   UNL     1      -0.246  10.737  16.670  0.00  0.00    +0.000 HD
BRANCH  19  21
ATOM     21  C   UNL     1      -2.277  10.263  17.106  0.00  0.00    +0.000 C 
ATOM     22  C   UNL     1      -3.073  11.528  17.410  0.00  0.00    +0.000 C 
ATOM     23  C   UNL     1      -4.386  11.304  16.668  0.00  0.00    +0.000 C 
ATOM     24  C   UNL     1      -4.036  10.434  15.459  0.00  0.00    +0.000 C 
ATOM     25  C   UNL     1      -2.569  10.041  15.626  0.00  0.00    +0.000 C 
ENDBRANCH  19  21
ENDBRANCH  16  17
ENDBRANCH  15  16
ENDBRANCH   1  15
TORSDOF 7
ENDMDL
MODEL 9
REMARK VINA RESULT:      -6.9      3.859      5.309
REMARK  Name = 
REMARK  8 active torsions:
REMARK  status: ('A' for Active; 'I' for Inactive)
REMARK    1  A    between atoms: C_1  and  N_2
REMARK    2  A    between atoms: N_2  and  S_3
REMARK    3  A    between atoms: S_3  and  C_6
REMARK    4  A    between atoms: C_10  and  C_11
REMARK    5  A    between atoms: C_11  and  O_13
REMARK    6  A    between atoms: O_13  and  C_14
REMARK    7  A    between atoms: C_14  and  C_15
REMARK    8  A    between atoms: N_17  and  C_18
REMARK                            x       y       z     vdW  Elec       q    Type
REMARK                         _______ _______ _______ _____ _____    ______ ____
ROOT
ATOM      1  C   UNL     1       2.035   4.229  20.317  0.00  0.00    +0.000 C 
ATOM      2  O   UNL     1       1.017   3.569  20.459  0.00  0.00    +0.000 OA
ENDROOT
BRANCH   1   7
ATOM      3  C   UNL     1       1.450   7.982  20.594  0.00  0.00    +0.000 A 
ATOM      4  C   UNL     1       1.916   8.415  19.350  0.00  0.00    +0.000 A 
ATOM      5  C   UNL     1       2.438   7.489  18.454  0.00  0.00    +0.000 A 
ATOM      6  C   UNL     1       2.490   6.135  18.799  0.00  0.00    +0.000 A 
ATOM      7  C   UNL     1       2.031   5.697  20.052  0.00  0.00    +0.000 A 
ATOM      8  C   UNL     1       1.517   6.632  20.962  0.00  0.00    +0.000 A 
BRANCH   3   9
ATOM      9  S   UNL     1       0.741   9.163  21.719  0.00  0.00    +0.000 S 
ATOM     10  O   UNL     1       1.739   9.527  22.702  0.00  0.00    +0.000 OA
ATOM     11  O   UNL     1      -0.559   8.644  22.098  0.00  0.00    +0.000 OA
BRANCH   9  13
ATOM     12  C   UNL     1       0.076  11.750  21.358  0.00  0.00    +0.000 C 
ATOM     13  N   UNL     1       0.470  10.493  20.719  0.00  0.00    +0.000 NA
ATOM     14  H   UNL     1       1.156  10.571  19.970  0.00  0.00    +0.000 HD
ENDBRANCH   9  13
ENDBRANCH   3   9
ENDBRANCH   1   7
BRANCH   1  15
ATOM     15  O   UNL     1       3.299   3.771  20.475  0.00  0.00    +0.000 OA
BRANCH  15  16
ATOM     16  C   UNL     1       3.562   2.548  19.776  0.00  0.00    +0.000 C 
BRANCH  16  17
ATOM     17  C   UNL     1       3.801   2.865  18.297  0.00  0.00    +0.000 C 
ATOM     18  O   UNL     1       3.042   2.486  17.405  0.00  0.00    +0.000 OA
ATOM     19  N   UNL     1       4.961   3.571  18.035  0.00  0.00    +0.000 N 
ATOM     20  H   UNL     1       5.491   3.955  18.807  0.00  0.00    +0.000 HD
BRANCH  19  21
ATOM     21  C   UNL     1       5.298   3.970  16.686  0.00  0.00    +0.000 C 
ATOM     22  C   UNL     1       4.788   5.359  16.313  0.00  0.00    +0.000 C 
ATOM     23  C   UNL     1       5.591   5.705  15.064  0.00  0.00    +0.000 C 
ATOM     24  C   UNL     1       6.929   4.980  15.217  0.00  0.00    +0.000 C 
ATOM     25  C   UNL     1       6.800   4.103  16.462  0.00  0.00    +0.000 C 
ENDBRANCH  19  21
ENDBRANCH  16  17
ENDBRANCH  15  16
ENDBRANCH   1  15
TORSDOF 7
ENDMDL
