MODEL 1
REMARK VINA RESULT:      -8.5      0.000      0.000
REMARK  Name = 
REMARK  6 active torsions:
REMARK  status: ('A' for Active; 'I' for Inactive)
REMARK    1  A    between atoms: C_1  and  C_2
REMARK    2  A    between atoms: C_10  and  N_11
REMARK    3  A    between atoms: N_11  and  S_12
REMARK    4  A    between atoms: S_12  and  C_13
REMARK    5  A    between atoms: C_18  and  N_19
REMARK    6  A    between atoms: N_19  and  C_20
REMARK                            x       y       z     vdW  Elec       q    Type
REMARK                         _______ _______ _______ _____ _____    ______ ____
ROOT
ATOM      1  C   UNL     1       4.713   1.680  21.061  0.00  0.00    +0.000 C 
ATOM      2  C   UNL     1       3.356   2.276  21.128  0.00  0.00    +0.000 A 
ATOM      3  N   UNL     1       2.470   2.018  22.070  0.00  0.00    +0.000 NA
ATOM      4  N   UNL     1       1.423   2.888  21.919  0.00  0.00    +0.000 NA
ATOM      5  C   UNL     1       1.680   3.655  20.886  0.00  0.00    +0.000 A 
ATOM      6  N   UNL     1       2.874   3.294  20.317  0.00  0.00    +0.000 N 
ATOM      7  C   UNL     1       3.454   3.851  19.155  0.00  0.00    +0.000 A 
ATOM      8  C   UNL     1       4.045   2.945  18.250  0.00  0.00    +0.000 A 
ATOM      9  C   UNL     1       4.706   3.395  17.111  0.00  0.00    +0.000 A 
ATOM     10  C   UNL     1       4.838   4.759  16.912  0.00  0.00    +0.000 A 
ATOM     11  C   UNL     1       4.247   5.657  17.798  0.00  0.00    +0.000 A 
ATOM     12  C   UNL     1       3.439   5.236  18.883  0.00  0.00    +0.000 A 
ATOM     13  C   UNL     1       2.762   6.353  19.689  0.00  0.00    +0.000 C 
ATOM     14  C   UNL     1       1.529   6.066  20.582  0.00  0.00    +0.000 C 
ATOM     15  C   UNL     1       0.833   4.741  20.353  0.00  0.00    +0.000 C 
ENDROOT
BRANCH  10  16
ATOM     16  N   UNL     1       5.493   5.234  15.744  0.00  0.00    +0.000 N 
ATOM     17  H   UNL     1       5.274   4.710  14.893  0.00  0.00    +0.000 HD
BRANCH  16  18
ATOM     18  S   UNL     1       7.187   5.371  15.848  0.00  0.00    +0.000 S 
ATOM     19  C   UNL     1       7.347   6.887  16.760  0.00  0.00    +0.000 C 
ATOM     20  O   UNL     1       7.737   4.294  16.642  0.00  0.00    +0.000 OA
ATOM     21  O   UNL     1       7.637   5.615  14.496  0.00  0.00    +0.000 OA
ENDBRANCH  16  18
ENDBRANCH  10  16
BRANCH  13  22
ATOM     22  N   UNL     1       2.392   7.454  18.759  0.00  0.00    +0.000 N 
ATOM     23  H   UNL     1       2.073   7.110  17.854  0.00  0.00    +0.000 HD
BRANCH  22  24
ATOM     24  C   UNL     1       1.628   8.528  19.237  0.00  0.00    +0.000 A 
ATOM     25  C   UNL     1       1.447   8.754  20.608  0.00  0.00    +0.000 A 
ATOM     26  C   UNL     1       0.578   9.745  21.068  0.00  0.00    +0.000 A 
ATOM     27  C   UNL     1      -0.075  10.563  20.156  0.00  0.00    +0.000 A 
ATOM     28 CL   UNL     1      -1.221  11.718  20.715  0.00  0.00    +0.000 Cl
ATOM     29  C   UNL     1       0.186  10.442  18.793  0.00  0.00    +0.000 A 
ATOM     30  C   UNL     1       1.048   9.441  18.334  0.00  0.00    +0.000 A 
ENDBRANCH  22  24
ENDBRANCH  13  22
TORSDOF 4
ENDMDL
MODEL 2
REMARK VINA RESULT:      -8.5      0.810      1.173
REMARK  Name = 
REMARK  6 active torsions:
REMARK  status: ('A' for Active; 'I' for Inactive)
REMARK    1  A    between atoms: C_1  and  C_2
REMARK    2  A    between atoms: C_10  and  N_11
REMARK    3  A    between atoms: N_11  and  S_12
REMARK    4  A    between atoms: S_12  and  C_13
REMARK    5  A    between atoms: C_18  and  N_19
REMARK    6  A    between atoms: N_19  and  C_20
REMARK                            x       y       z     vdW  Elec       q    Type
REMARK                         _______ _______ _______ _____ _____    ______ ____
ROOT
ATOM      1  C   UNL     1       4.742   1.947  20.660  0.00  0.00    +0.000 C 
ATOM      2  C   UNL     1       3.399   2.564  20.784  0.00  0.00    +0.000 A 
ATOM      3  N   UNL     1       2.537   2.297  21.746  0.00  0.00    +0.000 NA
ATOM      4  N   UNL     1       1.501   3.188  21.649  0.00  0.00    +0.000 NA
ATOM      5  C   UNL     1       1.741   3.977  20.628  0.00  0.00    +0.000 A 
ATOM      6  N   UNL     1       2.910   3.611  20.015  0.00  0.00    +0.000 N 
ATOM      7  C   UNL     1       3.465   4.187  18.849  0.00  0.00    +0.000 A 
ATOM      8  C   UNL     1       4.012   3.295  17.904  0.00  0.00    +0.000 A 
ATOM      9  C   UNL     1       4.646   3.763  16.757  0.00  0.00    +0.000 A 
ATOM     10  C   UNL     1       4.797   5.129  16.589  0.00  0.00    +0.000 A 
ATOM     11  C   UNL     1       4.249   6.014  17.515  0.00  0.00    +0.000 A 
ATOM     12  C   UNL     1       3.467   5.579  18.613  0.00  0.00    +0.000 A 
ATOM     13  C   UNL     1       2.834   6.686  19.468  0.00  0.00    +0.000 C 
ATOM     14  C   UNL     1       1.624   6.397  20.391  0.00  0.00    +0.000 C 
ATOM     15  C   UNL     1       0.897   5.091  20.149  0.00  0.00    +0.000 C 
ENDROOT
BRANCH  10  16
ATOM     16  N   UNL     1       5.425   5.624  15.414  0.00  0.00    +0.000 N 
ATOM     17  H   UNL     1       4.823   5.638  14.587  0.00  0.00    +0.000 HD
BRANCH  16  18
ATOM     18  S   UNL     1       6.885   4.864  14.980  0.00  0.00    +0.000 S 
ATOM     19  C   UNL     1       6.291   3.580  13.905  0.00  0.00    +0.000 C 
ATOM     20  O   UNL     1       7.718   5.762  14.210  0.00  0.00    +0.000 OA
ATOM     21  O   UNL     1       7.369   4.241  16.191  0.00  0.00    +0.000 OA
ENDBRANCH  16  18
ENDBRANCH  10  16
BRANCH  13  22
ATOM     22  N   UNL     1       2.457   7.817  18.577  0.00  0.00    +0.000 N 
ATOM     23  H   UNL     1       2.225   7.510  17.633  0.00  0.00    +0.000 HD
BRANCH  22  24
ATOM     24  C   UNL     1       1.591   8.810  19.060  0.00  0.00    +0.000 A 
ATOM     25  C   UNL     1       1.522   9.132  20.421  0.00  0.00    +0.000 A 
ATOM     26  C   UNL     1       0.563  10.026  20.904  0.00  0.00    +0.000 A 
ATOM     27  C   UNL     1      -0.299  10.654  20.015  0.00  0.00    +0.000 A 
ATOM     28 CL   UNL     1      -1.544  11.677  20.616  0.00  0.00    +0.000 Cl
ATOM     29  C   UNL     1      -0.166  10.447  18.645  0.00  0.00    +0.000 A 
ATOM     30  C   UNL     1       0.787   9.542  18.165  0.00  0.00    +0.000 A 
ENDBRANCH  22  24
ENDBRANCH  13  22
TORSDOF 4
ENDMDL
MODEL 3
REMARK VINA RESULT:      -8.4      0.834      1.487
REMARK  Name = 
REMARK  6 active torsions:
REMARK  status: ('A' for Active; 'I' for Inactive)
REMARK    1  A    between atoms: C_1  and  C_2
REMARK    2  A    between atoms: C_10  and  N_11
REMARK    3  A    between atoms: N_11  and  S_12
REMARK    4  A    between atoms: S_12  and  C_13
REMARK    5  A    between atoms: C_18  and  N_19
REMARK    6  A    between atoms: N_19  and  C_20
REMARK                            x       y       z     vdW  Elec       q    Type
REMARK                         _______ _______ _______ _____ _____    ______ ____
ROOT
ATOM      1  C   UNL     1       4.880   1.845  20.766  0.00  0.00    +0.000 C 
ATOM      2  C   UNL     1       3.517   2.409  20.919  0.00  0.00    +0.000 A 
ATOM      3  N   UNL     1       2.690   2.115  21.904  0.00  0.00    +0.000 NA
ATOM      4  N   UNL     1       1.617   2.963  21.828  0.00  0.00    +0.000 NA
ATOM      5  C   UNL     1       1.800   3.754  20.796  0.00  0.00    +0.000 A 
ATOM      6  N   UNL     1       2.968   3.430  20.156  0.00  0.00    +0.000 N 
ATOM      7  C   UNL     1       3.470   4.020  18.974  0.00  0.00    +0.000 A 
ATOM      8  C   UNL     1       4.030   3.144  18.021  0.00  0.00    +0.000 A 
ATOM      9  C   UNL     1       4.617   3.629  16.856  0.00  0.00    +0.000 A 
ATOM     10  C   UNL     1       4.709   4.998  16.676  0.00  0.00    +0.000 A 
ATOM     11  C   UNL     1       4.148   5.868  17.610  0.00  0.00    +0.000 A 
ATOM     12  C   UNL     1       3.411   5.409  18.730  0.00  0.00    +0.000 A 
ATOM     13  C   UNL     1       2.756   6.496  19.593  0.00  0.00    +0.000 C 
ATOM     14  C   UNL     1       1.581   6.166  20.547  0.00  0.00    +0.000 C 
ATOM     15  C   UNL     1       0.901   4.830  20.331  0.00  0.00    +0.000 C 
ENDROOT
BRANCH  10  16
ATOM     16  N   UNL     1       5.287   5.509  15.483  0.00  0.00    +0.000 N 
ATOM     17  H   UNL     1       4.670   5.481  14.667  0.00  0.00    +0.000 HD
BRANCH  16  18
ATOM     18  S   UNL     1       6.777   4.822  15.029  0.00  0.00    +0.000 S 
ATOM     19  C   UNL     1       6.253   3.680  13.774  0.00  0.00    +0.000 C 
ATOM     20  O   UNL     1       7.634   5.816  14.421  0.00  0.00    +0.000 OA
ATOM     21  O   UNL     1       7.210   4.054  16.176  0.00  0.00    +0.000 OA
ENDBRANCH  16  18
ENDBRANCH  10  16
BRANCH  13  22
ATOM     22  N   UNL     1       2.312   7.605  18.705  0.00  0.00    +0.000 N 
ATOM     23  H   UNL     1       1.874   7.268  17.849  0.00  0.00    +0.000 HD
BRANCH  22  24
ATOM     24  C   UNL     1       1.647   8.706  19.264  0.00  0.00    +0.000 A 
ATOM     25  C   UNL     1       1.175   9.763  18.475  0.00  0.00    +0.000 A 
ATOM     26  C   UNL     1       0.635  10.913  19.056  0.00  0.00    +0.000 A 
ATOM     27  C   UNL     1       0.507  10.990  20.436  0.00  0.00    +0.000 A 
ATOM     28 CL   UNL     1      -0.064  12.442  21.158  0.00  0.00    +0.000 Cl
ATOM     29  C   UNL     1       0.851   9.901  21.233  0.00  0.00    +0.000 A 
ATOM     30  C   UNL     1       1.402   8.755  20.651  0.00  0.00    +0.000 A 
ENDBRANCH  22  24
ENDBRANCH  13  22
TORSDOF 4
ENDMDL
MODEL 4
REMARK VINA RESULT:      -8.3      3.109      5.418
REMARK  Name = 
REMARK  6 active torsions:
REMARK  status: ('A' for Active; 'I' for Inactive)
REMARK    1  A    between atoms: C_1  and  C_2
REMARK    2  A    between atoms: C_10  and  N_11
REMARK    3  A    between atoms: N_11  and  S_12
REMARK    4  A    between atoms: S_12  and  C_13
REMARK    5  A    between atoms: C_18  and  N_19
REMARK    6  A    between atoms: N_19  and  C_20
REMARK                            x       y       z     vdW  Elec       q    Type
REMARK                         _______ _______ _______ _____ _____    ______ ____
ROOT
ATOM      1  C   UNL     1       5.471   3.472  13.806  0.00  0.00    +0.000 C 
ATOM      2  C   UNL     1       6.226   4.383  14.701  0.00  0.00    +0.000 A 
ATOM      3  N   UNL     1       7.325   5.028  14.359  0.00  0.00    +0.000 NA
ATOM      4  N   UNL     1       7.626   5.916  15.357  0.00  0.00    +0.000 NA
ATOM      5  C   UNL     1       6.714   5.795  16.294  0.00  0.00    +0.000 A 
ATOM      6  N   UNL     1       5.819   4.814  15.955  0.00  0.00    +0.000 N 
ATOM      7  C   UNL     1       4.735   4.358  16.739  0.00  0.00    +0.000 A 
ATOM      8  C   UNL     1       4.522   2.965  16.771  0.00  0.00    +0.000 A 
ATOM      9  C   UNL     1       3.439   2.418  17.453  0.00  0.00    +0.000 A 
ATOM     10  C   UNL     1       2.526   3.272  18.047  0.00  0.00    +0.000 A 
ATOM     11  C   UNL     1       2.737   4.649  18.027  0.00  0.00    +0.000 A 
ATOM     12  C   UNL     1       3.904   5.231  17.474  0.00  0.00    +0.000 A 
ATOM     13  C   UNL     1       4.040   6.751  17.643  0.00  0.00    +0.000 C 
ATOM     14  C   UNL     1       5.415   7.455  17.512  0.00  0.00    +0.000 C 
ATOM     15  C   UNL     1       6.632   6.556  17.557  0.00  0.00    +0.000 C 
ENDROOT
BRANCH  10  16
ATOM     16  N   UNL     1       1.426   2.729  18.765  0.00  0.00    +0.000 N 
ATOM     17  H   UNL     1       0.514   2.889  18.328  0.00  0.00    +0.000 HD
BRANCH  16  18
ATOM     18  S   UNL     1       1.307   3.193  20.399  0.00  0.00    +0.000 S 
ATOM     19  C   UNL     1       2.995   3.012  20.924  0.00  0.00    +0.000 C 
ATOM     20  O   UNL     1       0.937   4.587  20.507  0.00  0.00    +0.000 OA
ATOM     21  O   UNL     1       0.529   2.155  21.038  0.00  0.00    +0.000 OA
ENDBRANCH  16  18
ENDBRANCH  10  16
BRANCH  13  22
ATOM     22  N   UNL     1       3.465   7.137  18.960  0.00  0.00    +0.000 N 
ATOM     23  H   UNL     1       4.183   7.370  19.646  0.00  0.00    +0.000 HD
BRANCH  22  24
ATOM     24  C   UNL     1       2.365   8.007  19.000  0.00  0.00    +0.000 A 
ATOM     25  C   UNL     1       1.880   8.638  17.847  0.00  0.00    +0.000 A 
ATOM     26  C   UNL     1       0.872   9.601  17.922  0.00  0.00    +0.000 A 
ATOM     27  C   UNL     1       0.296   9.899  19.149  0.00  0.00    +0.000 A 
ATOM     28 CL   UNL     1      -0.875  11.154  19.258  0.00  0.00    +0.000 Cl
ATOM     29  C   UNL     1       0.672   9.193  20.289  0.00  0.00    +0.000 A 
ATOM     30  C   UNL     1       1.690   8.238  20.214  0.00  0.00    +0.000 A 
ENDBRANCH  22  24
ENDBRANCH  13  22
TORSDOF 4
ENDMDL
MODEL 5
REMARK VINA RESULT:      -7.9      2.944      5.315
REMARK  Name = 
REMARK  6 active torsions:
REMARK  status: ('A' for Active; 'I' for Inactive)
REMARK    1  A    between atoms: C_1  and  C_2
REMARK    2  A    between atoms: C_10  and  N_11
REMARK    3  A    between atoms: N_11  and  S_12
REMARK    4  A    between atoms: S_12  and  C_13
REMARK    5  A    between atoms: C_18  and  N_19
REMARK    6  A    between atoms: N_19  and  C_20
REMARK                            x       y       z     vdW  Elec       q    Type
REMARK                         _______ _______ _______ _____ _____    ______ ____
ROOT
ATOM      1  C   UNL     1       5.343   3.343  13.796  0.00  0.00    +0.000 C 
ATOM      2  C   UNL     1       6.105   4.321  14.611  0.00  0.00    +0.000 A 
ATOM      3  N   UNL     1       7.156   4.995  14.183  0.00  0.00    +0.000 NA
ATOM      4  N   UNL     1       7.472   5.935  15.127  0.00  0.00    +0.000 NA
ATOM      5  C   UNL     1       6.618   5.817  16.117  0.00  0.00    +0.000 A 
ATOM      6  N   UNL     1       5.748   4.788  15.868  0.00  0.00    +0.000 N 
ATOM      7  C   UNL     1       4.728   4.322  16.728  0.00  0.00    +0.000 A 
ATOM      8  C   UNL     1       4.576   2.924  16.827  0.00  0.00    +0.000 A 
ATOM      9  C   UNL     1       3.556   2.363  17.589  0.00  0.00    +0.000 A 
ATOM     10  C   UNL     1       2.640   3.204  18.198  0.00  0.00    +0.000 A 
ATOM     11  C   UNL     1       2.792   4.587  18.112  0.00  0.00    +0.000 A 
ATOM     12  C   UNL     1       3.902   5.191  17.472  0.00  0.00    +0.000 A 
ATOM     13  C   UNL     1       3.982   6.721  17.573  0.00  0.00    +0.000 C 
ATOM     14  C   UNL     1       5.316   7.473  17.338  0.00  0.00    +0.000 C 
ATOM     15  C   UNL     1       6.571   6.626  17.352  0.00  0.00    +0.000 C 
ENDROOT
BRANCH  10  16
ATOM     16  N   UNL     1       1.604   2.648  18.997  0.00  0.00    +0.000 N 
ATOM     17  H   UNL     1       0.659   2.920  18.714  0.00  0.00    +0.000 HD
BRANCH  16  18
ATOM     18  S   UNL     1       1.740   2.912  20.673  0.00  0.00    +0.000 S 
ATOM     19  C   UNL     1       1.379   4.649  20.771  0.00  0.00    +0.000 C 
ATOM     20  O   UNL     1       0.714   2.185  21.389  0.00  0.00    +0.000 OA
ATOM     21  O   UNL     1       3.142   2.732  20.977  0.00  0.00    +0.000 OA
ENDBRANCH  16  18
ENDBRANCH  10  16
BRANCH  13  22
ATOM     22  N   UNL     1       3.463   7.139  18.903  0.00  0.00    +0.000 N 
ATOM     23  H   UNL     1       4.209   7.334  19.570  0.00  0.00    +0.000 HD
BRANCH  22  24
ATOM     24  C   UNL     1       2.412   8.066  18.969  0.00  0.00    +0.000 A 
ATOM     25  C   UNL     1       1.755   8.354  20.172  0.00  0.00    +0.000 A 
ATOM     26  C   UNL     1       0.627   9.176  20.199  0.00  0.00    +0.000 A 
ATOM     27  C   UNL     1       0.180   9.769  19.026  0.00  0.00    +0.000 A 
ATOM     28 CL   UNL     1      -1.265  10.701  19.039  0.00  0.00    +0.000 Cl
ATOM     29  C   UNL     1       0.892   9.600  17.841  0.00  0.00    +0.000 A 
ATOM     30  C   UNL     1       2.014   8.767  17.813  0.00  0.00    +0.000 A 
ENDBRANCH  22  24
ENDBRANCH  13  22
TORSDOF 4
ENDMDL
MODEL 6
REMARK VINA RESULT:      -7.5      6.862      9.343
REMARK  Name = 
REMARK  6 active torsions:
REMARK  status: ('A' for Active; 'I' for Inactive)
REMARK    1  A    between atoms: C_1  and  C_2
REMARK    2  A    between atoms: C_10  and  N_11
REMARK    3  A    between atoms: N_11  and  S_12
REMARK    4  A    between atoms: S_12  and  C_13
REMARK    5  A    between atoms: C_18  and  N_19
REMARK    6  A    between atoms: N_19  and  C_20
REMARK                            x       y       z     vdW  Elec       q    Type
REMARK                         _______ _______ _______ _____ _____    ______ ____
ROOT
ATOM      1  C   UNL     1       1.522   9.230  17.897  0.00  0.00    +0.000 C 
ATOM      2  C   UNL     1       1.184   9.015  19.325  0.00  0.00    +0.000 A 
ATOM      3  N   UNL     1       1.959   8.394  20.194  0.00  0.00    +0.000 NA
ATOM      4  N   UNL     1       1.419   8.559  21.441  0.00  0.00    +0.000 NA
ATOM      5  C   UNL     1       0.322   9.269  21.316  0.00  0.00    +0.000 A 
ATOM      6  N   UNL     1       0.097   9.558  19.995  0.00  0.00    +0.000 N 
ATOM      7  C   UNL     1      -1.013  10.253  19.464  0.00  0.00    +0.000 A 
ATOM      8  C   UNL     1      -1.568   9.738  18.274  0.00  0.00    +0.000 A 
ATOM      9  C   UNL     1      -2.617  10.388  17.630  0.00  0.00    +0.000 A 
ATOM     10  C   UNL     1      -3.066  11.594  18.138  0.00  0.00    +0.000 A 
ATOM     11  C   UNL     1      -2.529  12.101  19.320  0.00  0.00    +0.000 A 
ATOM     12  C   UNL     1      -1.567  11.394  20.083  0.00  0.00    +0.000 A 
ATOM     13  C   UNL     1      -1.169  12.034  21.420  0.00  0.00    +0.000 C 
ATOM     14  C   UNL     1      -0.506  11.200  22.545  0.00  0.00    +0.000 C 
ATOM     15  C   UNL     1      -0.589   9.696  22.398  0.00  0.00    +0.000 C 
ENDROOT
BRANCH  10  16
ATOM     16  N   UNL     1      -4.150  12.260  17.504  0.00  0.00    +0.000 N 
ATOM     17  H   UNL     1      -3.980  13.248  17.302  0.00  0.00    +0.000 HD
BRANCH  16  18
ATOM     18  S   UNL     1      -5.654  12.142  18.293  0.00  0.00    +0.000 S 
ATOM     19  C   UNL     1      -6.746  12.745  17.028  0.00  0.00    +0.000 C 
ATOM     20  O   UNL     1      -5.981  10.760  18.565  0.00  0.00    +0.000 OA
ATOM     21  O   UNL     1      -5.611  13.129  19.349  0.00  0.00    +0.000 OA
ENDBRANCH  16  18
ENDBRANCH  10  16
BRANCH  13  22
ATOM     22  N   UNL     1      -2.366  12.699  22.004  0.00  0.00    +0.000 N 
ATOM     23  H   UNL     1      -3.112  12.039  22.223  0.00  0.00    +0.000 HD
BRANCH  22  24
ATOM     24  C   UNL     1      -2.192  13.677  22.994  0.00  0.00    +0.000 A 
ATOM     25  C   UNL     1      -1.176  14.639  22.912  0.00  0.00    +0.000 A 
ATOM     26  C   UNL     1      -0.931  15.521  23.966  0.00  0.00    +0.000 A 
ATOM     27  C   UNL     1      -1.743  15.490  25.092  0.00  0.00    +0.000 A 
ATOM     28 CL   UNL     1      -1.382  16.507  26.431  0.00  0.00    +0.000 Cl
ATOM     29  C   UNL     1      -2.838  14.630  25.142  0.00  0.00    +0.000 A 
ATOM     30  C   UNL     1      -3.074  13.739  24.090  0.00  0.00    +0.000 A 
ENDBRANCH  22  24
ENDBRANCH  13  22
TORSDOF 4
ENDMDL
MODEL 7
REMARK VINA RESULT:      -7.4      6.544      8.862
REMARK  Name = 
REMARK  6 active torsions:
REMARK  status: ('A' for Active; 'I' for Inactive)
REMARK    1  A    between atoms: C_1  and  C_2
REMARK    2  A    between atoms: C_10  and  N_11
REMARK    3  A    between atoms: N_11  and  S_12
REMARK    4  A    between atoms: S_12  and  C_13
REMARK    5  A    between atoms: C_18  and  N_19
REMARK    6  A    between atoms: N_19  and  C_20
REMARK                            x       y       z     vdW  Elec       q    Type
REMARK                         _______ _______ _______ _____ _____    ______ ____
ROOT
ATOM      1  C   UNL     1       1.723   8.922  20.772  0.00  0.00    +0.000 C 
ATOM      2  C   UNL     1       0.774   9.462  21.776  0.00  0.00    +0.000 A 
ATOM      3  N   UNL     1       0.893   9.306  23.080  0.00  0.00    +0.000 NA
ATOM      4  N   UNL     1      -0.042  10.098  23.692  0.00  0.00    +0.000 NA
ATOM      5  C   UNL     1      -0.723  10.716  22.754  0.00  0.00    +0.000 A 
ATOM      6  N   UNL     1      -0.279  10.328  21.517  0.00  0.00    +0.000 N 
ATOM      7  C   UNL     1      -0.806  10.733  20.270  0.00  0.00    +0.000 A 
ATOM      8  C   UNL     1      -0.939   9.731  19.286  0.00  0.00    +0.000 A 
ATOM      9  C   UNL     1      -1.379  10.037  18.002  0.00  0.00    +0.000 A 
ATOM     10  C   UNL     1      -1.621  11.362  17.679  0.00  0.00    +0.000 A 
ATOM     11  C   UNL     1      -1.502  12.354  18.650  0.00  0.00    +0.000 A 
ATOM     12  C   UNL     1      -1.203  12.061  20.004  0.00  0.00    +0.000 A 
ATOM     13  C   UNL     1      -1.230  13.254  20.970  0.00  0.00    +0.000 C 
ATOM     14  C   UNL     1      -1.376  13.047  22.499  0.00  0.00    +0.000 C 
ATOM     15  C   UNL     1      -1.831  11.674  22.946  0.00  0.00    +0.000 C 
ENDROOT
BRANCH  10  16
ATOM     16  N   UNL     1      -2.091  11.689  16.378  0.00  0.00    +0.000 N 
ATOM     17  H   UNL     1      -2.285  12.684  16.236  0.00  0.00    +0.000 HD
BRANCH  16  18
ATOM     18  S   UNL     1      -3.447  10.813  15.839  0.00  0.00    +0.000 S 
ATOM     19  C   UNL     1      -4.758  11.678  16.668  0.00  0.00    +0.000 C 
ATOM     20  O   UNL     1      -3.621  10.969  14.411  0.00  0.00    +0.000 OA
ATOM     21  O   UNL     1      -3.324   9.505  16.444  0.00  0.00    +0.000 OA
ENDBRANCH  16  18
ENDBRANCH  10  16
BRANCH  13  22
ATOM     22  N   UNL     1      -2.305  14.189  20.542  0.00  0.00    +0.000 N 
ATOM     23  H   UNL     1      -2.297  14.359  19.536  0.00  0.00    +0.000 HD
BRANCH  22  24
ATOM     24  C   UNL     1      -3.598  14.032  21.062  0.00  0.00    +0.000 A 
ATOM     25  C   UNL     1      -4.431  12.978  20.666  0.00  0.00    +0.000 A 
ATOM     26  C   UNL     1      -5.760  12.910  21.090  0.00  0.00    +0.000 A 
ATOM     27  C   UNL     1      -6.251  13.867  21.967  0.00  0.00    +0.000 A 
ATOM     28 CL   UNL     1      -7.912  13.842  22.412  0.00  0.00    +0.000 Cl
ATOM     29  C   UNL     1      -5.406  14.851  22.475  0.00  0.00    +0.000 A 
ATOM     30  C   UNL     1      -4.079  14.925  22.040  0.00  0.00    +0.000 A 
ENDBRANCH  22  24
ENDBRANCH  13  22
TORSDOF 4
ENDMDL
MODEL 8
REMARK VINA RESULT:      -7.3      5.355      7.723
REMARK  Name = 
REMARK  6 active torsions:
REMARK  status: ('A' for Active; 'I' for Inactive)
REMARK    1  A    between atoms: C_1  and  C_2
REMARK    2  A    between atoms: C_10  and  N_11
REMARK    3  A    between atoms: N_11  and  S_12
REMARK    4  A    between atoms: S_12  and  C_13
REMARK    5  A    between atoms: C_18  and  N_19
REMARK    6  A    between atoms: N_19  and  C_20
REMARK                            x       y       z     vdW  Elec       q    Type
REMARK                         _______ _______ _______ _____ _____    ______ ____
ROOT
ATOM      1  C   UNL     1       1.808   5.621  21.053  0.00  0.00    +0.000 C 
ATOM      2  C   UNL     1       2.279   6.471  19.931  0.00  0.00    +0.000 A 
ATOM      3  N   UNL     1       3.028   6.045  18.932  0.00  0.00    +0.000 NA
ATOM      4  N   UNL     1       3.098   7.043  17.997  0.00  0.00    +0.000 NA
ATOM      5  C   UNL     1       2.401   8.063  18.442  0.00  0.00    +0.000 A 
ATOM      6  N   UNL     1       1.887   7.777  19.679  0.00  0.00    +0.000 N 
ATOM      7  C   UNL     1       1.133   8.649  20.498  0.00  0.00    +0.000 A 
ATOM      8  C   UNL     1       1.441   8.644  21.874  0.00  0.00    +0.000 A 
ATOM      9  C   UNL     1       0.710   9.411  22.777  0.00  0.00    +0.000 A 
ATOM     10  C   UNL     1      -0.377  10.131  22.313  0.00  0.00    +0.000 A 
ATOM     11  C   UNL     1      -0.679  10.147  20.952  0.00  0.00    +0.000 A 
ATOM     12  C   UNL     1       0.132   9.502  19.986  0.00  0.00    +0.000 A 
ATOM     13  C   UNL     1      -0.270   9.719  18.520  0.00  0.00    +0.000 C 
ATOM     14  C   UNL     1       0.736   9.477  17.367  0.00  0.00    +0.000 C 
ATOM     15  C   UNL     1       2.192   9.359  17.765  0.00  0.00    +0.000 C 
ENDROOT
BRANCH  10  16
ATOM     16  N   UNL     1      -1.121  10.935  23.219  0.00  0.00    +0.000 N 
ATOM     17  H   UNL     1      -2.042  10.559  23.460  0.00  0.00    +0.000 HD
BRANCH  16  18
ATOM     18  S   UNL     1      -1.328  12.563  22.765  0.00  0.00    +0.000 S 
ATOM     19  C   UNL     1      -3.092  12.637  22.572  0.00  0.00    +0.000 C 
ATOM     20  O   UNL     1      -0.943  13.446  23.843  0.00  0.00    +0.000 OA
ATOM     21  O   UNL     1      -0.733  12.673  21.451  0.00  0.00    +0.000 OA
ENDBRANCH  16  18
ENDBRANCH  10  16
BRANCH  13  22
ATOM     22  N   UNL     1      -0.795  11.103  18.371  0.00  0.00    +0.000 N 
ATOM     23  H   UNL     1      -0.178  11.698  17.819  0.00  0.00    +0.000 HD
BRANCH  22  24
ATOM     24  C   UNL     1      -2.152  11.293  18.072  0.00  0.00    +0.000 A 
ATOM     25  C   UNL     1      -2.690  10.942  16.827  0.00  0.00    +0.000 A 
ATOM     26  C   UNL     1      -4.009  11.258  16.495  0.00  0.00    +0.000 A 
ATOM     27  C   UNL     1      -4.823  11.878  17.433  0.00  0.00    +0.000 A 
ATOM     28 CL   UNL     1      -6.416  12.358  16.994  0.00  0.00    +0.000 Cl
ATOM     29  C   UNL     1      -4.350  12.123  18.720  0.00  0.00    +0.000 A 
ATOM     30  C   UNL     1      -3.025  11.816  19.046  0.00  0.00    +0.000 A 
ENDBRANCH  22  24
ENDBRANCH  13  22
TORSDOF 4
ENDMDL
MODEL 9
REMARK VINA RESULT:      -7.3      6.560      8.848
REMARK  Name = 
REMARK  6 active torsions:
REMARK  status: ('A' for Active; 'I' for Inactive)
REMARK    1  A    between atoms: C_1  and  C_2
REMARK    2  A    between atoms: C_10  and  N_11
REMARK    3  A    between atoms: N_11  and  S_12
REMARK    4  A    between atoms: S_12  and  C_13
REMARK    5  A    between atoms: C_18  and  N_19
REMARK    6  A    between atoms: N_19  and  C_20
REMARK                            x       y       z     vdW  Elec       q    Type
REMARK                         _______ _______ _______ _____ _____    ______ ____
ROOT
ATOM      1  C   UNL     1       1.802   8.756  20.340  0.00  0.00    +0.000 C 
ATOM      2  C   UNL     1       0.995   9.252  21.482  0.00  0.00    +0.000 A 
ATOM      3  N   UNL     1       1.275   9.028  22.751  0.00  0.00    +0.000 NA
ATOM      4  N   UNL     1       0.437   9.795  23.515  0.00  0.00    +0.000 NA
ATOM      5  C   UNL     1      -0.345  10.469  22.704  0.00  0.00    +0.000 A 
ATOM      6  N   UNL     1      -0.067  10.141  21.402  0.00  0.00    +0.000 N 
ATOM      7  C   UNL     1      -0.740  10.616  20.254  0.00  0.00    +0.000 A 
ATOM      8  C   UNL     1      -1.012   9.669  19.245  0.00  0.00    +0.000 A 
ATOM      9  C   UNL     1      -1.605  10.047  18.045  0.00  0.00    +0.000 A 
ATOM     10  C   UNL     1      -1.863  11.389  17.822  0.00  0.00    +0.000 A 
ATOM     11  C   UNL     1      -1.606  12.327  18.819  0.00  0.00    +0.000 A 
ATOM     12  C   UNL     1      -1.144  11.961  20.108  0.00  0.00    +0.000 A 
ATOM     13  C   UNL     1      -1.029  13.102  21.129  0.00  0.00    +0.000 C 
ATOM     14  C   UNL     1      -0.985  12.817  22.651  0.00  0.00    +0.000 C 
ATOM     15  C   UNL     1      -1.404  11.427  23.082  0.00  0.00    +0.000 C 
ENDROOT
BRANCH  10  16
ATOM     16  N   UNL     1      -2.487  11.789  16.609  0.00  0.00    +0.000 N 
ATOM     17  H   UNL     1      -2.559  12.802  16.484  0.00  0.00    +0.000 HD
BRANCH  16  18
ATOM     18  S   UNL     1      -4.023  11.119  16.311  0.00  0.00    +0.000 S 
ATOM     19  C   UNL     1      -3.729  10.268  14.780  0.00  0.00    +0.000 C 
ATOM     20  O   UNL     1      -4.359  10.142  17.325  0.00  0.00    +0.000 OA
ATOM     21  O   UNL     1      -4.887  12.245  16.035  0.00  0.00    +0.000 OA
ENDBRANCH  16  18
ENDBRANCH  10  16
BRANCH  13  22
ATOM     22  N   UNL     1      -2.134  14.069  20.888  0.00  0.00    +0.000 N 
ATOM     23  H   UNL     1      -2.283  14.252  19.896  0.00  0.00    +0.000 HD
BRANCH  22  24
ATOM     24  C   UNL     1      -3.330  13.937  21.608  0.00  0.00    +0.000 A 
ATOM     25  C   UNL     1      -3.603  14.719  22.738  0.00  0.00    +0.000 A 
ATOM     26  C   UNL     1      -4.735  14.485  23.521  0.00  0.00    +0.000 A 
ATOM     27  C   UNL     1      -5.640  13.503  23.144  0.00  0.00    +0.000 A 
ATOM     28 CL   UNL     1      -6.982  13.146  24.159  0.00  0.00    +0.000 Cl
ATOM     29  C   UNL     1      -5.457  12.800  21.956  0.00  0.00    +0.000 A 
ATOM     30  C   UNL     1      -4.316  13.027  21.179  0.00  0.00    +0.000 A 
ENDBRANCH  22  24
ENDBRANCH  13  22
TORSDOF 4
ENDMDL
