MODEL 1
REMARK VINA RESULT:      -5.3      0.000      0.000
REMARK  Name = 
REMARK  8 active torsions:
REMARK  status: ('A' for Active; 'I' for Inactive)
REMARK    1  A    between atoms: C_1  and  N_2
REMARK    2  A    between atoms: N_2  and  C_3
REMARK    3  A    between atoms: N_2  and  C_4
REMARK    4  A    between atoms: C_4  and  C_5
REMARK    5  A    between atoms: C_8  and  C_9
REMARK    6  A    between atoms: C_9  and  N_10
REMARK    7  A    between atoms: N_10  and  C_11
REMARK    8  A    between atoms: N_10  and  C_12
REMARK                            x       y       z     vdW  Elec       q    Type
REMARK                         _______ _______ _______ _____ _____    ______ ____
ROOT
ATOM      1  C   UNL     1       3.767   5.346  19.437  0.00  0.00    +0.000 C 
ATOM      2  C   UNL     1       3.033   6.059  18.287  0.00  0.00    +0.000 C 
ATOM      3  C   UNL     1       4.175   6.633  17.451  0.00  0.00    +0.000 C 
ATOM      4  C   UNL     1       5.200   5.492  17.404  0.00  0.00    +0.000 C 
ATOM      5  C   UNL     1       5.054   4.938  18.788  0.00  0.00    +0.000 C 
ATOM      6  O   UNL     1       5.932   4.313  19.363  0.00  0.00    +0.000 OA
ENDROOT
BRANCH   1   7
ATOM      7  C   UNL     1       2.939   4.207  20.089  0.00  0.00    +0.000 C 
BRANCH   7   9
ATOM      8  C   UNL     1       2.868   2.039  18.903  0.00  0.00    +0.000 C 
ATOM      9  N   UNL     1       2.192   3.329  19.148  0.00  0.00    +0.000 NA
ATOM     10  C   UNL     1       0.868   3.015  19.714  0.00  0.00    +0.000 C 
ENDBRANCH   7   9
ENDBRANCH   1   7
BRANCH   4  11
ATOM     11  C   UNL     1       4.886   4.398  16.350  0.00  0.00    +0.000 C 
BRANCH  11  12
ATOM     12  N   UNL     1       6.077   3.935  15.599  0.00  0.00    +0.000 NA
ATOM     13  C   UNL     1       5.880   4.042  14.146  0.00  0.00    +0.000 C 
ATOM     14  C   UNL     1       7.245   4.744  16.003  0.00  0.00    +0.000 C 
ENDBRANCH  11  12
ENDBRANCH   4  11
TORSDOF 4
ENDMDL
MODEL 2
REMARK VINA RESULT:      -5.3      1.194      1.721
REMARK  Name = 
REMARK  8 active torsions:
REMARK  status: ('A' for Active; 'I' for Inactive)
REMARK    1  A    between atoms: C_1  and  N_2
REMARK    2  A    between atoms: N_2  and  C_3
REMARK    3  A    between atoms: N_2  and  C_4
REMARK    4  A    between atoms: C_4  and  C_5
REMARK    5  A    between atoms: C_8  and  C_9
REMARK    6  A    between atoms: C_9  and  N_10
REMARK    7  A    between atoms: N_10  and  C_11
REMARK    8  A    between atoms: N_10  and  C_12
REMARK                            x       y       z     vdW  Elec       q    Type
REMARK                         _______ _______ _______ _____ _____    ______ ____
ROOT
ATOM      1  C   UNL     1       3.323   4.288  19.071  0.00  0.00    +0.000 C 
ATOM      2  C   UNL     1       2.481   5.282  18.251  0.00  0.00    +0.000 C 
ATOM      3  C   UNL     1       3.349   6.539  18.236  0.00  0.00    +0.000 C 
ATOM      4  C   UNL     1       4.763   6.001  17.977  0.00  0.00    +0.000 C 
ATOM      5  C   UNL     1       4.722   4.733  18.772  0.00  0.00    +0.000 C 
ATOM      6  O   UNL     1       5.717   4.181  19.217  0.00  0.00    +0.000 OA
ENDROOT
BRANCH   1   7
ATOM      7  C   UNL     1       2.998   2.801  18.763  0.00  0.00    +0.000 C 
BRANCH   7   9
ATOM      8  C   UNL     1       1.763   2.845  20.904  0.00  0.00    +0.000 C 
ATOM      9  N   UNL     1       1.926   2.187  19.592  0.00  0.00    +0.000 NA
ATOM     10  C   UNL     1       0.634   2.306  18.892  0.00  0.00    +0.000 C 
ENDBRANCH   7   9
ENDBRANCH   1   7
BRANCH   4  11
ATOM     11  C   UNL     1       5.062   5.694  16.485  0.00  0.00    +0.000 C 
BRANCH  11  12
ATOM     12  N   UNL     1       6.445   6.029  16.073  0.00  0.00    +0.000 NA
ATOM     13  C   UNL     1       7.197   6.669  17.163  0.00  0.00    +0.000 C 
ATOM     14  C   UNL     1       7.136   4.791  15.654  0.00  0.00    +0.000 C 
ENDBRANCH  11  12
ENDBRANCH   4  11
TORSDOF 4
ENDMDL
MODEL 3
REMARK VINA RESULT:      -5.2      2.047      5.045
REMARK  Name = 
REMARK  8 active torsions:
REMARK  status: ('A' for Active; 'I' for Inactive)
REMARK    1  A    between atoms: C_1  and  N_2
REMARK    2  A    between atoms: N_2  and  C_3
REMARK    3  A    between atoms: N_2  and  C_4
REMARK    4  A    between atoms: C_4  and  C_5
REMARK    5  A    between atoms: C_8  and  C_9
REMARK    6  A    between atoms: C_9  and  N_10
REMARK    7  A    between atoms: N_10  and  C_11
REMARK    8  A    between atoms: N_10  and  C_12
REMARK                            x       y       z     vdW  Elec       q    Type
REMARK                         _______ _______ _______ _____ _____    ______ ____
ROOT
ATOM      1  C   UNL     1       4.685   3.813  18.237  0.00  0.00    +0.000 C 
ATOM      2  C   UNL     1       3.490   4.005  17.285  0.00  0.00    +0.000 C 
ATOM      3  C   UNL     1       2.869   2.611  17.225  0.00  0.00    +0.000 C 
ATOM      4  C   UNL     1       2.895   2.137  18.685  0.00  0.00    +0.000 C 
ATOM      5  C   UNL     1       4.204   2.712  19.133  0.00  0.00    +0.000 C 
ATOM      6  O   UNL     1       4.856   2.263  20.063  0.00  0.00    +0.000 OA
ENDROOT
BRANCH   1   7
ATOM      7  C   UNL     1       5.132   5.121  18.942  0.00  0.00    +0.000 C 
BRANCH   7   9
ATOM      8  C   UNL     1       7.323   4.732  17.864  0.00  0.00    +0.000 C 
ATOM      9  N   UNL     1       6.396   5.726  18.441  0.00  0.00    +0.000 NA
ATOM     10  C   UNL     1       6.088   6.693  17.371  0.00  0.00    +0.000 C 
ENDBRANCH   7   9
ENDBRANCH   1   7
BRANCH   4  11
ATOM     11  C   UNL     1       1.736   2.692  19.554  0.00  0.00    +0.000 C 
BRANCH  11  12
ATOM     12  N   UNL     1       2.190   3.548  20.676  0.00  0.00    +0.000 NA
ATOM     13  C   UNL     1       1.601   4.893  20.606  0.00  0.00    +0.000 C 
ATOM     14  C   UNL     1       1.813   2.907  21.953  0.00  0.00    +0.000 C 
ENDBRANCH  11  12
ENDBRANCH   4  11
TORSDOF 4
ENDMDL
MODEL 4
REMARK VINA RESULT:      -5.2      0.611      1.096
REMARK  Name = 
REMARK  8 active torsions:
REMARK  status: ('A' for Active; 'I' for Inactive)
REMARK    1  A    between atoms: C_1  and  N_2
REMARK    2  A    between atoms: N_2  and  C_3
REMARK    3  A    between atoms: N_2  and  C_4
REMARK    4  A    between atoms: C_4  and  C_5
REMARK    5  A    between atoms: C_8  and  C_9
REMARK    6  A    between atoms: C_9  and  N_10
REMARK    7  A    between atoms: N_10  and  C_11
REMARK    8  A    between atoms: N_10  and  C_12
REMARK                            x       y       z     vdW  Elec       q    Type
REMARK                         _______ _______ _______ _____ _____    ______ ____
ROOT
ATOM      1  C   UNL     1       3.433   5.111  19.446  0.00  0.00    +0.000 C 
ATOM      2  C   UNL     1       2.678   5.934  18.387  0.00  0.00    +0.000 C 
ATOM      3  C   UNL     1       3.773   6.819  17.793  0.00  0.00    +0.000 C 
ATOM      4  C   UNL     1       4.964   5.865  17.631  0.00  0.00    +0.000 C 
ATOM      5  C   UNL     1       4.810   5.026  18.862  0.00  0.00    +0.000 C 
ATOM      6  O   UNL     1       5.733   4.425  19.390  0.00  0.00    +0.000 OA
ENDROOT
BRANCH   1   7
ATOM      7  C   UNL     1       2.750   3.759  19.783  0.00  0.00    +0.000 C 
BRANCH   7   9
ATOM      8  C   UNL     1       3.229   1.718  18.473  0.00  0.00    +0.000 C 
ATOM      9  N   UNL     1       2.375   2.915  18.617  0.00  0.00    +0.000 NA
ATOM     10  C   UNL     1       0.992   2.433  18.783  0.00  0.00    +0.000 C 
ENDBRANCH   7   9
ENDBRANCH   1   7
BRANCH   4  11
ATOM     11  C   UNL     1       4.898   4.976  16.361  0.00  0.00    +0.000 C 
BRANCH  11  12
ATOM     12  N   UNL     1       6.100   5.077  15.500  0.00  0.00    +0.000 NA
ATOM     13  C   UNL     1       7.325   4.725  16.232  0.00  0.00    +0.000 C 
ATOM     14  C   UNL     1       5.938   4.175  14.340  0.00  0.00    +0.000 C 
ENDBRANCH  11  12
ENDBRANCH   4  11
TORSDOF 4
ENDMDL
MODEL 5
REMARK VINA RESULT:      -5.2      1.309      1.671
REMARK  Name = 
REMARK  8 active torsions:
REMARK  status: ('A' for Active; 'I' for Inactive)
REMARK    1  A    between atoms: C_1  and  N_2
REMARK    2  A    between atoms: N_2  and  C_3
REMARK    3  A    between atoms: N_2  and  C_4
REMARK    4  A    between atoms: C_4  and  C_5
REMARK    5  A    between atoms: C_8  and  C_9
REMARK    6  A    between atoms: C_9  and  N_10
REMARK    7  A    between atoms: N_10  and  C_11
REMARK    8  A    between atoms: N_10  and  C_12
REMARK                            x       y       z     vdW  Elec       q    Type
REMARK                         _______ _______ _______ _____ _____    ______ ____
ROOT
ATOM      1  C   UNL     1       3.168   5.252  19.320  0.00  0.00    +0.000 C 
ATOM      2  C   UNL     1       2.408   5.945  18.175  0.00  0.00    +0.000 C 
ATOM      3  C   UNL     1       3.297   7.143  17.845  0.00  0.00    +0.000 C 
ATOM      4  C   UNL     1       4.717   6.561  17.871  0.00  0.00    +0.000 C 
ATOM      5  C   UNL     1       4.594   5.594  19.009  0.00  0.00    +0.000 C 
ATOM      6  O   UNL     1       5.543   5.211  19.676  0.00  0.00    +0.000 OA
ENDROOT
BRANCH   1   7
ATOM      7  C   UNL     1       2.843   3.740  19.455  0.00  0.00    +0.000 C 
BRANCH   7   9
ATOM      8  C   UNL     1       0.848   2.416  18.839  0.00  0.00    +0.000 C 
ATOM      9  N   UNL     1       1.427   3.408  19.767  0.00  0.00    +0.000 NA
ATOM     10  C   UNL     1       1.344   2.826  21.118  0.00  0.00    +0.000 C 
ENDBRANCH   7   9
ENDBRANCH   1   7
BRANCH   4  11
ATOM     11  C   UNL     1       5.121   5.815  16.571  0.00  0.00    +0.000 C 
BRANCH  11  12
ATOM     12  N   UNL     1       6.566   5.910  16.256  0.00  0.00    +0.000 NA
ATOM     13  C   UNL     1       7.244   6.905  17.101  0.00  0.00    +0.000 C 
ATOM     14  C   UNL     1       7.189   4.585  16.453  0.00  0.00    +0.000 C 
ENDBRANCH  11  12
ENDBRANCH   4  11
TORSDOF 4
ENDMDL
MODEL 6
REMARK VINA RESULT:      -5.2      1.637      5.109
REMARK  Name = 
REMARK  8 active torsions:
REMARK  status: ('A' for Active; 'I' for Inactive)
REMARK    1  A    between atoms: C_1  and  N_2
REMARK    2  A    between atoms: N_2  and  C_3
REMARK    3  A    between atoms: N_2  and  C_4
REMARK    4  A    between atoms: C_4  and  C_5
REMARK    5  A    between atoms: C_8  and  C_9
REMARK    6  A    between atoms: C_9  and  N_10
REMARK    7  A    between atoms: N_10  and  C_11
REMARK    8  A    between atoms: N_10  and  C_12
REMARK                            x       y       z     vdW  Elec       q    Type
REMARK                         _______ _______ _______ _____ _____    ______ ____
ROOT
ATOM      1  C   UNL     1       4.700   5.085  17.520  0.00  0.00    +0.000 C 
ATOM      2  C   UNL     1       3.955   6.294  18.114  0.00  0.00    +0.000 C 
ATOM      3  C   UNL     1       2.485   5.928  17.911  0.00  0.00    +0.000 C 
ATOM      4  C   UNL     1       2.422   4.446  18.304  0.00  0.00    +0.000 C 
ATOM      5  C   UNL     1       3.734   3.965  17.764  0.00  0.00    +0.000 C 
ATOM      6  O   UNL     1       3.955   2.804  17.456  0.00  0.00    +0.000 OA
ENDROOT
BRANCH   1   7
ATOM      7  C   UNL     1       6.128   4.893  18.097  0.00  0.00    +0.000 C 
BRANCH   7   9
ATOM      8  C   UNL     1       6.999   4.880  15.783  0.00  0.00    +0.000 C 
ATOM      9  N   UNL     1       7.248   5.260  17.189  0.00  0.00    +0.000 NA
ATOM     10  C   UNL     1       7.438   6.722  17.207  0.00  0.00    +0.000 C 
ENDBRANCH   7   9
ENDBRANCH   1   7
BRANCH   4  11
ATOM     11  C   UNL     1       2.345   4.196  19.833  0.00  0.00    +0.000 C 
BRANCH  11  12
ATOM     12  N   UNL     1       1.148   3.429  20.252  0.00  0.00    +0.000 NA
ATOM     13  C   UNL     1       0.712   2.490  19.208  0.00  0.00    +0.000 C 
ATOM     14  C   UNL     1       1.463   2.684  21.489  0.00  0.00    +0.000 C 
ENDBRANCH  11  12
ENDBRANCH   4  11
TORSDOF 4
ENDMDL
MODEL 7
REMARK VINA RESULT:      -5.2      1.491      5.308
REMARK  Name = 
REMARK  8 active torsions:
REMARK  status: ('A' for Active; 'I' for Inactive)
REMARK    1  A    between atoms: C_1  and  N_2
REMARK    2  A    between atoms: N_2  and  C_3
REMARK    3  A    between atoms: N_2  and  C_4
REMARK    4  A    between atoms: C_4  and  C_5
REMARK    5  A    between atoms: C_8  and  C_9
REMARK    6  A    between atoms: C_9  and  N_10
REMARK    7  A    between atoms: N_10  and  C_11
REMARK    8  A    between atoms: N_10  and  C_12
REMARK                            x       y       z     vdW  Elec       q    Type
REMARK                         _______ _______ _______ _____ _____    ______ ____
ROOT
ATOM      1  C   UNL     1       5.065   4.448  17.472  0.00  0.00    +0.000 C 
ATOM      2  C   UNL     1       3.811   3.656  17.061  0.00  0.00    +0.000 C 
ATOM      3  C   UNL     1       3.833   2.458  18.008  0.00  0.00    +0.000 C 
ATOM      4  C   UNL     1       4.205   3.073  19.364  0.00  0.00    +0.000 C 
ATOM      5  C   UNL     1       5.187   4.118  18.929  0.00  0.00    +0.000 C 
ATOM      6  O   UNL     1       6.058   4.571  19.655  0.00  0.00    +0.000 OA
ENDROOT
BRANCH   1   7
ATOM      7  C   UNL     1       4.987   5.958  17.119  0.00  0.00    +0.000 C 
BRANCH   7   9
ATOM      8  C   UNL     1       7.115   7.189  17.379  0.00  0.00    +0.000 C 
ATOM      9  N   UNL     1       6.184   6.527  16.443  0.00  0.00    +0.000 NA
ATOM     10  C   UNL     1       6.939   5.445  15.786  0.00  0.00    +0.000 C 
ENDBRANCH   7   9
ENDBRANCH   1   7
BRANCH   4  11
ATOM     11  C   UNL     1       3.014   3.730  20.112  0.00  0.00    +0.000 C 
BRANCH  11  12
ATOM     12  N   UNL     1       1.875   2.810  20.342  0.00  0.00    +0.000 NA
ATOM     13  C   UNL     1       1.551   2.693  21.771  0.00  0.00    +0.000 C 
ATOM     14  C   UNL     1       0.696   3.311  19.605  0.00  0.00    +0.000 C 
ENDBRANCH  11  12
ENDBRANCH   4  11
TORSDOF 4
ENDMDL
MODEL 8
REMARK VINA RESULT:      -5.2      1.381      5.223
REMARK  Name = 
REMARK  8 active torsions:
REMARK  status: ('A' for Active; 'I' for Inactive)
REMARK    1  A    between atoms: C_1  and  N_2
REMARK    2  A    between atoms: N_2  and  C_3
REMARK    3  A    between atoms: N_2  and  C_4
REMARK    4  A    between atoms: C_4  and  C_5
REMARK    5  A    between atoms: C_8  and  C_9
REMARK    6  A    between atoms: C_9  and  N_10
REMARK    7  A    between atoms: N_10  and  C_11
REMARK    8  A    between atoms: N_10  and  C_12
REMARK                            x       y       z     vdW  Elec       q    Type
REMARK                         _______ _______ _______ _____ _____    ______ ____
ROOT
ATOM      1  C   UNL     1       4.935   4.339  17.325  0.00  0.00    +0.000 C 
ATOM      2  C   UNL     1       3.544   3.739  17.050  0.00  0.00    +0.000 C 
ATOM      3  C   UNL     1       3.379   2.719  18.175  0.00  0.00    +0.000 C 
ATOM      4  C   UNL     1       3.904   3.456  19.415  0.00  0.00    +0.000 C 
ATOM      5  C   UNL     1       5.044   4.220  18.815  0.00  0.00    +0.000 C 
ATOM      6  O   UNL     1       6.008   4.610  19.456  0.00  0.00    +0.000 OA
ENDROOT
BRANCH   1   7
ATOM      7  C   UNL     1       5.123   5.763  16.738  0.00  0.00    +0.000 C 
BRANCH   7   9
ATOM      8  C   UNL     1       7.391   6.680  17.091  0.00  0.00    +0.000 C 
ATOM      9  N   UNL     1       6.455   6.047  16.140  0.00  0.00    +0.000 NA
ATOM     10  C   UNL     1       7.078   4.784  15.706  0.00  0.00    +0.000 C 
ENDBRANCH   7   9
ENDBRANCH   1   7
BRANCH   4  11
ATOM     11  C   UNL     1       2.879   4.430  20.055  0.00  0.00    +0.000 C 
BRANCH  11  12
ATOM     12  N   UNL     1       1.870   3.758  20.907  0.00  0.00    +0.000 NA
ATOM     13  C   UNL     1       0.711   3.306  20.123  0.00  0.00    +0.000 C 
ATOM     14  C   UNL     1       2.499   2.600  21.575  0.00  0.00    +0.000 C 
ENDBRANCH  11  12
ENDBRANCH   4  11
TORSDOF 4
ENDMDL
MODEL 9
REMARK VINA RESULT:      -5.1      1.734      5.125
REMARK  Name = 
REMARK  8 active torsions:
REMARK  status: ('A' for Active; 'I' for Inactive)
REMARK    1  A    between atoms: C_1  and  N_2
REMARK    2  A    between atoms: N_2  and  C_3
REMARK    3  A    between atoms: N_2  and  C_4
REMARK    4  A    between atoms: C_4  and  C_5
REMARK    5  A    between atoms: C_8  and  C_9
REMARK    6  A    between atoms: C_9  and  N_10
REMARK    7  A    between atoms: N_10  and  C_11
REMARK    8  A    between atoms: N_10  and  C_12
REMARK                            x       y       z     vdW  Elec       q    Type
REMARK                         _______ _______ _______ _____ _____    ______ ____
ROOT
ATOM      1  C   UNL     1       4.035   4.840  16.881  0.00  0.00    +0.000 C 
ATOM      2  C   UNL     1       4.163   6.206  17.579  0.00  0.00    +0.000 C 
ATOM      3  C   UNL     1       2.764   6.436  18.148  0.00  0.00    +0.000 C 
ATOM      4  C   UNL     1       2.378   5.068  18.727  0.00  0.00    +0.000 C 
ATOM      5  C   UNL     1       2.987   4.158  17.706  0.00  0.00    +0.000 C 
ATOM      6  O   UNL     1       2.598   3.019  17.497  0.00  0.00    +0.000 OA
ENDROOT
BRANCH   1   7
ATOM      7  C   UNL     1       5.386   4.089  16.736  0.00  0.00    +0.000 C 
BRANCH   7   9
ATOM      8  C   UNL     1       7.670   4.582  17.544  0.00  0.00    +0.000 C 
ATOM      9  N   UNL     1       6.593   4.948  16.601  0.00  0.00    +0.000 NA
ATOM     10  C   UNL     1       7.149   4.806  15.243  0.00  0.00    +0.000 C 
ENDBRANCH   7   9
ENDBRANCH   1   7
BRANCH   4  11
ATOM     11  C   UNL     1       2.975   4.781  20.130  0.00  0.00    +0.000 C 
BRANCH  11  12
ATOM     12  N   UNL     1       2.042   4.080  21.043  0.00  0.00    +0.000 NA
ATOM     13  C   UNL     1       0.727   3.868  20.420  0.00  0.00    +0.000 C 
ATOM     14  C   UNL     1       2.627   2.776  21.421  0.00  0.00    +0.000 C 
ENDBRANCH  11  12
ENDBRANCH   4  11
TORSDOF 4
ENDMDL
