MODEL 1
REMARK VINA RESULT:      -8.3      0.000      0.000
REMARK  Name = 
REMARK  6 active torsions:
REMARK  status: ('A' for Active; 'I' for Inactive)
REMARK    1  A    between atoms: C_2  and  C_3
REMARK    2  A    between atoms: C_7  and  O_8
REMARK    3  A    between atoms: O_8  and  C_9
REMARK    4  A    between atoms: N_14  and  C_15
REMARK    5  A    between atoms: N_18  and  C_19
REMARK    6  A    between atoms: C_19  and  C_20
REMARK                            x       y       z     vdW  Elec       q    Type
REMARK                         _______ _______ _______ _____ _____    ______ ____
ROOT
ATOM      1  C   UNL     1      -2.553  11.526  17.944  0.00  0.00    +0.000 A 
ATOM      2  C   UNL     1      -2.405  12.552  18.840  0.00  0.00    +0.000 A 
ATOM      3  C   UNL     1      -1.288  12.464  19.628  0.00  0.00    +0.000 A 
ATOM      4  N   UNL     1      -0.397  11.451  19.558  0.00  0.00    +0.000 NA
ATOM      5  C   UNL     1      -0.661  10.471  18.689  0.00  0.00    +0.000 A 
ATOM      6  N   UNL     1       0.134   9.379  18.560  0.00  0.00    +0.000 N 
ATOM      7  N   UNL     1      -1.727  10.467  17.882  0.00  0.00    +0.000 NA
ATOM      8  H   UNL     1      -0.266   8.725  17.899  0.00  0.00    +0.000 HD
ENDROOT
BRANCH   6   9
ATOM      9  C   UNL     1       1.461   9.093  19.074  0.00  0.00    +0.000 C 
ATOM     10  C   UNL     1       2.367   8.391  18.069  0.00  0.00    +0.000 C 
ATOM     11  C   UNL     1       2.532   6.895  18.310  0.00  0.00    +0.000 C 
ATOM     12  N   UNL     1       2.855   6.589  19.718  0.00  0.00    +0.000 NA
ATOM     13  C   UNL     1       1.718   7.002  20.558  0.00  0.00    +0.000 C 
ATOM     14  C   UNL     1       1.482   8.510  20.485  0.00  0.00    +0.000 C 
BRANCH  12  15
ATOM     15  C   UNL     1       3.088   5.126  19.824  0.00  0.00    +0.000 C 
BRANCH  15  16
ATOM     16  C   UNL     1       3.733   4.513  18.609  0.00  0.00    +0.000 A 
ATOM     17  N   UNL     1       2.995   3.757  17.776  0.00  0.00    +0.000 NA
ATOM     18  N   UNL     1       3.833   3.480  16.765  0.00  0.00    +0.000 N 
ATOM     19  C   UNL     1       5.073   4.044  16.886  0.00  0.00    +0.000 A 
ATOM     20  C   UNL     1       6.179   4.042  16.031  0.00  0.00    +0.000 A 
ATOM     21  C   UNL     1       7.319   4.727  16.463  0.00  0.00    +0.000 A 
ATOM     22  C   UNL     1       7.350   5.358  17.706  0.00  0.00    +0.000 A 
ATOM     23  C   UNL     1       6.227   5.348  18.548  0.00  0.00    +0.000 A 
ATOM     24  C   UNL     1       5.059   4.692  18.117  0.00  0.00    +0.000 A 
ATOM     25  H   UNL     1       3.488   2.915  15.998  0.00  0.00    +0.000 HD
ENDBRANCH  15  16
ENDBRANCH  12  15
ENDBRANCH   6   9
BRANCH   1  26
ATOM     26  O   UNL     1      -3.638  11.595  17.077  0.00  0.00    +0.000 OA
BRANCH  26  31
ATOM     27  C   UNL     1      -6.708  10.952  19.067  0.00  0.00    +0.000 A 
ATOM     28  C   UNL     1      -7.525  11.968  18.564  0.00  0.00    +0.000 A 
ATOM     29  C   UNL     1      -7.040  12.829  17.578  0.00  0.00    +0.000 A 
ATOM     30  C   UNL     1      -5.733  12.684  17.106  0.00  0.00    +0.000 A 
ATOM     31  C   UNL     1      -4.902  11.687  17.624  0.00  0.00    +0.000 A 
ATOM     32  C   UNL     1      -5.403  10.800  18.584  0.00  0.00    +0.000 A 
BRANCH  27  34
ATOM     33  N   UNL     1      -7.603   9.350  20.897  0.00  0.00    +0.000 NA
ATOM     34  C   UNL     1      -7.204  10.061  20.076  0.00  0.00    +0.000 C 
ENDBRANCH  27  34
ENDBRANCH  26  31
ENDBRANCH   1  26
TORSDOF 6
ENDMDL
MODEL 2
REMARK VINA RESULT:      -8.3      3.272     11.091
REMARK  Name = 
REMARK  6 active torsions:
REMARK  status: ('A' for Active; 'I' for Inactive)
REMARK    1  A    between atoms: C_2  and  C_3
REMARK    2  A    between atoms: C_7  and  O_8
REMARK    3  A    between atoms: O_8  and  C_9
REMARK    4  A    between atoms: N_14  and  C_15
REMARK    5  A    between atoms: N_18  and  C_19
REMARK    6  A    between atoms: C_19  and  C_20
REMARK                            x       y       z     vdW  Elec       q    Type
REMARK                         _______ _______ _______ _____ _____    ______ ____
ROOT
ATOM      1  C   UNL     1       2.821   5.690  19.103  0.00  0.00    +0.000 A 
ATOM      2  C   UNL     1       2.420   5.739  20.412  0.00  0.00    +0.000 A 
ATOM      3  C   UNL     1       1.808   6.909  20.778  0.00  0.00    +0.000 A 
ATOM      4  N   UNL     1       1.617   7.951  19.940  0.00  0.00    +0.000 NA
ATOM      5  C   UNL     1       2.093   7.825  18.698  0.00  0.00    +0.000 A 
ATOM      6  N   UNL     1       2.003   8.819  17.780  0.00  0.00    +0.000 N 
ATOM      7  N   UNL     1       2.708   6.725  18.251  0.00  0.00    +0.000 NA
ATOM      8  H   UNL     1       2.475   8.556  16.924  0.00  0.00    +0.000 HD
ENDROOT
BRANCH   6   9
ATOM      9  C   UNL     1       1.249  10.059  17.780  0.00  0.00    +0.000 C 
ATOM     10  C   UNL     1       1.882  11.159  18.625  0.00  0.00    +0.000 C 
ATOM     11  C   UNL     1       1.216  11.374  19.978  0.00  0.00    +0.000 C 
ATOM     12  N   UNL     1      -0.253  11.481  19.867  0.00  0.00    +0.000 NA
ATOM     13  C   UNL     1      -0.777  10.198  19.369  0.00  0.00    +0.000 C 
ATOM     14  C   UNL     1      -0.257   9.884  17.966  0.00  0.00    +0.000 C 
BRANCH  12  15
ATOM     15  C   UNL     1      -0.790  11.783  21.218  0.00  0.00    +0.000 C 
BRANCH  15  16
ATOM     16  C   UNL     1      -2.117  12.496  21.212  0.00  0.00    +0.000 A 
ATOM     17  N   UNL     1      -2.577  13.031  20.067  0.00  0.00    +0.000 NA
ATOM     18  N   UNL     1      -3.805  13.469  20.387  0.00  0.00    +0.000 N 
ATOM     19  C   UNL     1      -4.178  13.218  21.678  0.00  0.00    +0.000 A 
ATOM     20  C   UNL     1      -5.374  13.457  22.360  0.00  0.00    +0.000 A 
ATOM     21  C   UNL     1      -5.429  13.074  23.703  0.00  0.00    +0.000 A 
ATOM     22  C   UNL     1      -4.323  12.504  24.334  0.00  0.00    +0.000 A 
ATOM     23  C   UNL     1      -3.132  12.272  23.629  0.00  0.00    +0.000 A 
ATOM     24  C   UNL     1      -3.068  12.621  22.268  0.00  0.00    +0.000 A 
ATOM     25  H   UNL     1      -4.358  13.914  19.663  0.00  0.00    +0.000 HD
ENDBRANCH  15  16
ENDBRANCH  12  15
ENDBRANCH   6   9
BRANCH   1  26
ATOM     26  O   UNL     1       3.394   4.504  18.661  0.00  0.00    +0.000 OA
BRANCH  26  31
ATOM     27  C   UNL     1       6.006   4.325  16.026  0.00  0.00    +0.000 A 
ATOM     28  C   UNL     1       7.122   4.693  16.783  0.00  0.00    +0.000 A 
ATOM     29  C   UNL     1       6.979   4.980  18.141  0.00  0.00    +0.000 A 
ATOM     30  C   UNL     1       5.718   4.915  18.739  0.00  0.00    +0.000 A 
ATOM     31  C   UNL     1       4.594   4.575  17.983  0.00  0.00    +0.000 A 
ATOM     32  C   UNL     1       4.746   4.249  16.630  0.00  0.00    +0.000 A 
BRANCH  27  34
ATOM     33  N   UNL     1       6.266   3.790  13.503  0.00  0.00    +0.000 NA
ATOM     34  C   UNL     1       6.149   4.024  14.631  0.00  0.00    +0.000 C 
ENDBRANCH  27  34
ENDBRANCH  26  31
ENDBRANCH   1  26
TORSDOF 6
ENDMDL
MODEL 3
REMARK VINA RESULT:      -8.2      2.609      4.326
REMARK  Name = 
REMARK  6 active torsions:
REMARK  status: ('A' for Active; 'I' for Inactive)
REMARK    1  A    between atoms: C_2  and  C_3
REMARK    2  A    between atoms: C_7  and  O_8
REMARK    3  A    between atoms: O_8  and  C_9
REMARK    4  A    between atoms: N_14  and  C_15
REMARK    5  A    between atoms: N_18  and  C_19
REMARK    6  A    between atoms: C_19  and  C_20
REMARK                            x       y       z     vdW  Elec       q    Type
REMARK                         _______ _______ _______ _____ _____    ______ ____
ROOT
ATOM      1  C   UNL     1       1.241   9.473  19.419  0.00  0.00    +0.000 A 
ATOM      2  C   UNL     1       2.028   9.618  18.307  0.00  0.00    +0.000 A 
ATOM      3  C   UNL     1       2.643   8.467  17.890  0.00  0.00    +0.000 A 
ATOM      4  N   UNL     1       2.513   7.277  18.515  0.00  0.00    +0.000 NA
ATOM      5  C   UNL     1       1.767   7.252  19.623  0.00  0.00    +0.000 A 
ATOM      6  N   UNL     1       1.600   6.128  20.363  0.00  0.00    +0.000 N 
ATOM      7  N   UNL     1       1.132   8.324  20.109  0.00  0.00    +0.000 NA
ATOM      8  H   UNL     1       1.056   6.326  21.193  0.00  0.00    +0.000 HD
ENDROOT
BRANCH   6   9
ATOM      9  C   UNL     1       1.927   4.741  20.087  0.00  0.00    +0.000 C 
ATOM     10  C   UNL     1       3.354   4.362  20.467  0.00  0.00    +0.000 C 
ATOM     11  C   UNL     1       4.315   4.268  19.289  0.00  0.00    +0.000 C 
ATOM     12  N   UNL     1       3.762   3.465  18.180  0.00  0.00    +0.000 NA
ATOM     13  C   UNL     1       2.566   4.149  17.660  0.00  0.00    +0.000 C 
ATOM     14  C   UNL     1       1.467   4.242  18.718  0.00  0.00    +0.000 C 
BRANCH  12  15
ATOM     15  C   UNL     1       4.808   3.358  17.131  0.00  0.00    +0.000 C 
BRANCH  15  16
ATOM     16  C   UNL     1       5.473   4.663  16.784  0.00  0.00    +0.000 A 
ATOM     17  N   UNL     1       5.052   5.359  15.713  0.00  0.00    +0.000 NA
ATOM     18  N   UNL     1       5.761   6.498  15.769  0.00  0.00    +0.000 N 
ATOM     19  C   UNL     1       6.604   6.588  16.841  0.00  0.00    +0.000 A 
ATOM     20  C   UNL     1       7.445   7.618  17.275  0.00  0.00    +0.000 A 
ATOM     21  C   UNL     1       8.190   7.385  18.434  0.00  0.00    +0.000 A 
ATOM     22  C   UNL     1       8.113   6.165  19.106  0.00  0.00    +0.000 A 
ATOM     23  C   UNL     1       7.261   5.146  18.653  0.00  0.00    +0.000 A 
ATOM     24  C   UNL     1       6.477   5.373  17.507  0.00  0.00    +0.000 A 
ATOM     25  H   UNL     1       5.605   7.195  15.050  0.00  0.00    +0.000 HD
ENDBRANCH  15  16
ENDBRANCH  12  15
ENDBRANCH   6   9
BRANCH   1  26
ATOM     26  O   UNL     1       0.545  10.595  19.853  0.00  0.00    +0.000 OA
BRANCH  26  31
ATOM     27  C   UNL     1      -2.337  10.703  17.512  0.00  0.00    +0.000 A 
ATOM     28  C   UNL     1      -3.172  11.575  18.215  0.00  0.00    +0.000 A 
ATOM     29  C   UNL     1      -2.754  12.108  19.436  0.00  0.00    +0.000 A 
ATOM     30  C   UNL     1      -1.509  11.755  19.962  0.00  0.00    +0.000 A 
ATOM     31  C   UNL     1      -0.681  10.862  19.277  0.00  0.00    +0.000 A 
ATOM     32  C   UNL     1      -1.085  10.361  18.034  0.00  0.00    +0.000 A 
BRANCH  27  34
ATOM     33  N   UNL     1      -3.107   9.711  15.244  0.00  0.00    +0.000 NA
ATOM     34  C   UNL     1      -2.760  10.158  16.254  0.00  0.00    +0.000 C 
ENDBRANCH  27  34
ENDBRANCH  26  31
ENDBRANCH   1  26
TORSDOF 6
ENDMDL
MODEL 4
REMARK VINA RESULT:      -8.2      8.241     11.806
REMARK  Name = 
REMARK  6 active torsions:
REMARK  status: ('A' for Active; 'I' for Inactive)
REMARK    1  A    between atoms: C_2  and  C_3
REMARK    2  A    between atoms: C_7  and  O_8
REMARK    3  A    between atoms: O_8  and  C_9
REMARK    4  A    between atoms: N_14  and  C_15
REMARK    5  A    between atoms: N_18  and  C_19
REMARK    6  A    between atoms: C_19  and  C_20
REMARK                            x       y       z     vdW  Elec       q    Type
REMARK                         _______ _______ _______ _____ _____    ______ ____
ROOT
ATOM      1  C   UNL     1       6.818   7.170  17.242  0.00  0.00    +0.000 A 
ATOM      2  C   UNL     1       7.373   6.274  18.118  0.00  0.00    +0.000 A 
ATOM      3  C   UNL     1       8.316   6.806  18.958  0.00  0.00    +0.000 A 
ATOM      4  N   UNL     1       8.697   8.102  18.935  0.00  0.00    +0.000 NA
ATOM      5  C   UNL     1       8.135   8.882  18.008  0.00  0.00    +0.000 A 
ATOM      6  N   UNL     1       8.470  10.188  17.855  0.00  0.00    +0.000 N 
ATOM      7  N   UNL     1       7.211   8.453  17.142  0.00  0.00    +0.000 NA
ATOM      8  H   UNL     1       7.984  10.589  17.063  0.00  0.00    +0.000 HD
ENDROOT
BRANCH   6   9
ATOM      9  C   UNL     1       9.248  11.082  18.694  0.00  0.00    +0.000 C 
ATOM     10  C   UNL     1       8.797  12.536  18.619  0.00  0.00    +0.000 C 
ATOM     11  C   UNL     1       9.687  13.427  17.762  0.00  0.00    +0.000 C 
ATOM     12  N   UNL     1      11.118  13.264  18.087  0.00  0.00    +0.000 NA
ATOM     13  C   UNL     1      11.515  11.882  17.765  0.00  0.00    +0.000 C 
ATOM     14  C   UNL     1      10.758  10.866  18.620  0.00  0.00    +0.000 C 
BRANCH  12  15
ATOM     15  C   UNL     1      11.884  14.239  17.269  0.00  0.00    +0.000 C 
BRANCH  15  16
ATOM     16  C   UNL     1      11.527  15.679  17.525  0.00  0.00    +0.000 A 
ATOM     17  N   UNL     1      11.029  16.427  16.525  0.00  0.00    +0.000 NA
ATOM     18  N   UNL     1      10.715  17.590  17.118  0.00  0.00    +0.000 N 
ATOM     19  C   UNL     1      10.959  17.625  18.463  0.00  0.00    +0.000 A 
ATOM     20  C   UNL     1      10.715  18.610  19.424  0.00  0.00    +0.000 A 
ATOM     21  C   UNL     1      11.093  18.324  20.739  0.00  0.00    +0.000 A 
ATOM     22  C   UNL     1      11.711  17.116  21.063  0.00  0.00    +0.000 A 
ATOM     23  C   UNL     1      11.945  16.141  20.082  0.00  0.00    +0.000 A 
ATOM     24  C   UNL     1      11.541  16.396  18.758  0.00  0.00    +0.000 A 
ATOM     25  H   UNL     1      10.309  18.324  16.549  0.00  0.00    +0.000 HD
ENDBRANCH  15  16
ENDBRANCH  12  15
ENDBRANCH   6   9
BRANCH   1  26
ATOM     26  O   UNL     1       5.813   6.699  16.407  0.00  0.00    +0.000 OA
BRANCH  26  31
ATOM     27  C   UNL     1       2.996   4.565  17.550  0.00  0.00    +0.000 A 
ATOM     28  C   UNL     1       2.189   5.544  18.137  0.00  0.00    +0.000 A 
ATOM     29  C   UNL     1       2.597   6.878  18.130  0.00  0.00    +0.000 A 
ATOM     30  C   UNL     1       3.817   7.233  17.551  0.00  0.00    +0.000 A 
ATOM     31  C   UNL     1       4.641   6.256  16.985  0.00  0.00    +0.000 A 
ATOM     32  C   UNL     1       4.212   4.924  16.958  0.00  0.00    +0.000 A 
BRANCH  27  34
ATOM     33  N   UNL     1       2.236   2.087  17.541  0.00  0.00    +0.000 NA
ATOM     34  C   UNL     1       2.578   3.192  17.549  0.00  0.00    +0.000 C 
ENDBRANCH  27  34
ENDBRANCH  26  31
ENDBRANCH   1  26
TORSDOF 6
ENDMDL
MODEL 5
REMARK VINA RESULT:      -8.2      1.603      1.863
REMARK  Name = 
REMARK  6 active torsions:
REMARK  status: ('A' for Active; 'I' for Inactive)
REMARK    1  A    between atoms: C_2  and  C_3
REMARK    2  A    between atoms: C_7  and  O_8
REMARK    3  A    between atoms: O_8  and  C_9
REMARK    4  A    between atoms: N_14  and  C_15
REMARK    5  A    between atoms: N_18  and  C_19
REMARK    6  A    between atoms: C_19  and  C_20
REMARK                            x       y       z     vdW  Elec       q    Type
REMARK                         _______ _______ _______ _____ _____    ______ ____
ROOT
ATOM      1  C   UNL     1      -2.572  11.817  18.907  0.00  0.00    +0.000 A 
ATOM      2  C   UNL     1      -2.317  12.762  19.865  0.00  0.00    +0.000 A 
ATOM      3  C   UNL     1      -1.126  12.600  20.523  0.00  0.00    +0.000 A 
ATOM      4  N   UNL     1      -0.263  11.591  20.276  0.00  0.00    +0.000 NA
ATOM      5  C   UNL     1      -0.629  10.690  19.361  0.00  0.00    +0.000 A 
ATOM      6  N   UNL     1       0.131   9.608  19.059  0.00  0.00    +0.000 N 
ATOM      7  N   UNL     1      -1.773  10.761  18.671  0.00  0.00    +0.000 NA
ATOM      8  H   UNL     1      -0.344   9.015  18.391  0.00  0.00    +0.000 HD
ENDROOT
BRANCH   6   9
ATOM      9  C   UNL     1       1.500   9.271  19.407  0.00  0.00    +0.000 C 
ATOM     10  C   UNL     1       2.361   8.898  18.206  0.00  0.00    +0.000 C 
ATOM     11  C   UNL     1       2.597   7.401  18.042  0.00  0.00    +0.000 C 
ATOM     12  N   UNL     1       3.026   6.763  19.304  0.00  0.00    +0.000 NA
ATOM     13  C   UNL     1       1.933   6.886  20.284  0.00  0.00    +0.000 C 
ATOM     14  C   UNL     1       1.638   8.349  20.616  0.00  0.00    +0.000 C 
BRANCH  12  15
ATOM     15  C   UNL     1       3.319   5.336  19.014  0.00  0.00    +0.000 C 
BRANCH  15  16
ATOM     16  C   UNL     1       4.731   5.074  18.562  0.00  0.00    +0.000 A 
ATOM     17  N   UNL     1       5.626   4.578  19.435  0.00  0.00    +0.000 NA
ATOM     18  N   UNL     1       6.718   4.357  18.686  0.00  0.00    +0.000 N 
ATOM     19  C   UNL     1       6.568   4.659  17.361  0.00  0.00    +0.000 A 
ATOM     20  C   UNL     1       7.433   4.513  16.273  0.00  0.00    +0.000 A 
ATOM     21  C   UNL     1       6.962   4.929  15.025  0.00  0.00    +0.000 A 
ATOM     22  C   UNL     1       5.692   5.489  14.885  0.00  0.00    +0.000 A 
ATOM     23  C   UNL     1       4.840   5.624  15.991  0.00  0.00    +0.000 A 
ATOM     24  C   UNL     1       5.283   5.181  17.251  0.00  0.00    +0.000 A 
ATOM     25  H   UNL     1       7.539   3.971  19.138  0.00  0.00    +0.000 HD
ENDBRANCH  15  16
ENDBRANCH  12  15
ENDBRANCH   6   9
BRANCH   1  26
ATOM     26  O   UNL     1      -3.739  11.966  18.166  0.00  0.00    +0.000 OA
BRANCH  26  31
ATOM     27  C   UNL     1      -6.510  12.011  20.639  0.00  0.00    +0.000 A 
ATOM     28  C   UNL     1      -7.407  11.155  19.995  0.00  0.00    +0.000 A 
ATOM     29  C   UNL     1      -7.066  10.582  18.769  0.00  0.00    +0.000 A 
ATOM     30  C   UNL     1      -5.835  10.878  18.178  0.00  0.00    +0.000 A 
ATOM     31  C   UNL     1      -4.944  11.755  18.803  0.00  0.00    +0.000 A 
ATOM     32  C   UNL     1      -5.272  12.296  20.052  0.00  0.00    +0.000 A 
BRANCH  27  34
ATOM     33  N   UNL     1      -7.127  13.062  22.926  0.00  0.00    +0.000 NA
ATOM     34  C   UNL     1      -6.853  12.597  21.902  0.00  0.00    +0.000 C 
ENDBRANCH  27  34
ENDBRANCH  26  31
ENDBRANCH   1  26
TORSDOF 6
ENDMDL
MODEL 6
REMARK VINA RESULT:      -8.1      7.593     11.122
REMARK  Name = 
REMARK  6 active torsions:
REMARK  status: ('A' for Active; 'I' for Inactive)
REMARK    1  A    between atoms: C_2  and  C_3
REMARK    2  A    between atoms: C_7  and  O_8
REMARK    3  A    between atoms: O_8  and  C_9
REMARK    4  A    between atoms: N_14  and  C_15
REMARK    5  A    between atoms: N_18  and  C_19
REMARK    6  A    between atoms: C_19  and  C_20
REMARK                            x       y       z     vdW  Elec       q    Type
REMARK                         _______ _______ _______ _____ _____    ______ ____
ROOT
ATOM      1  C   UNL     1       8.712  11.602  18.180  0.00  0.00    +0.000 A 
ATOM      2  C   UNL     1       9.403  11.463  19.355  0.00  0.00    +0.000 A 
ATOM      3  C   UNL     1       9.537  10.170  19.789  0.00  0.00    +0.000 A 
ATOM      4  N   UNL     1       9.025   9.102  19.138  0.00  0.00    +0.000 NA
ATOM      5  C   UNL     1       8.322   9.349  18.030  0.00  0.00    +0.000 A 
ATOM      6  N   UNL     1       7.721   8.364  17.316  0.00  0.00    +0.000 N 
ATOM      7  N   UNL     1       8.133  10.575  17.532  0.00  0.00    +0.000 NA
ATOM      8  H   UNL     1       7.186   8.756  16.550  0.00  0.00    +0.000 HD
ENDROOT
BRANCH   6   9
ATOM      9  C   UNL     1       7.845   6.920  17.381  0.00  0.00    +0.000 C 
ATOM     10  C   UNL     1       7.361   6.206  16.125  0.00  0.00    +0.000 C 
ATOM     11  C   UNL     1       5.987   5.561  16.257  0.00  0.00    +0.000 C 
ATOM     12  N   UNL     1       5.869   4.749  17.485  0.00  0.00    +0.000 NA
ATOM     13  C   UNL     1       6.001   5.641  18.649  0.00  0.00    +0.000 C 
ATOM     14  C   UNL     1       7.377   6.303  18.698  0.00  0.00    +0.000 C 
BRANCH  12  15
ATOM     15  C   UNL     1       4.536   4.093  17.469  0.00  0.00    +0.000 C 
BRANCH  15  16
ATOM     16  C   UNL     1       4.202   3.339  18.730  0.00  0.00    +0.000 A 
ATOM     17  N   UNL     1       5.158   2.623  19.348  0.00  0.00    +0.000 NA
ATOM     18  N   UNL     1       4.563   2.194  20.473  0.00  0.00    +0.000 N 
ATOM     19  C   UNL     1       3.274   2.621  20.629  0.00  0.00    +0.000 A 
ATOM     20  C   UNL     1       2.359   2.444  21.672  0.00  0.00    +0.000 A 
ATOM     21  C   UNL     1       1.096   3.020  21.515  0.00  0.00    +0.000 A 
ATOM     22  C   UNL     1       0.762   3.717  20.353  0.00  0.00    +0.000 A 
ATOM     23  C   UNL     1       1.697   3.883  19.320  0.00  0.00    +0.000 A 
ATOM     24  C   UNL     1       2.985   3.339  19.473  0.00  0.00    +0.000 A 
ATOM     25  H   UNL     1       5.105   1.627  21.114  0.00  0.00    +0.000 HD
ENDBRANCH  15  16
ENDBRANCH  12  15
ENDBRANCH   6   9
BRANCH   1  26
ATOM     26  O   UNL     1       8.597  12.886  17.662  0.00  0.00    +0.000 OA
BRANCH  26  31
ATOM     27  C   UNL     1      10.952  15.716  18.153  0.00  0.00    +0.000 A 
ATOM     28  C   UNL     1      12.062  15.213  17.468  0.00  0.00    +0.000 A 
ATOM     29  C   UNL     1      11.996  13.959  16.860  0.00  0.00    +0.000 A 
ATOM     30  C   UNL     1      10.826  13.201  16.948  0.00  0.00    +0.000 A 
ATOM     31  C   UNL     1       9.721  13.686  17.653  0.00  0.00    +0.000 A 
ATOM     32  C   UNL     1       9.776  14.961  18.229  0.00  0.00    +0.000 A 
BRANCH  27  34
ATOM     33  N   UNL     1      11.068  18.052  19.270  0.00  0.00    +0.000 NA
ATOM     34  C   UNL     1      11.013  17.007  18.775  0.00  0.00    +0.000 C 
ENDBRANCH  27  34
ENDBRANCH  26  31
ENDBRANCH   1  26
TORSDOF 6
ENDMDL
MODEL 7
REMARK VINA RESULT:      -8.1      6.267     11.622
REMARK  Name = 
REMARK  6 active torsions:
REMARK  status: ('A' for Active; 'I' for Inactive)
REMARK    1  A    between atoms: C_2  and  C_3
REMARK    2  A    between atoms: C_7  and  O_8
REMARK    3  A    between atoms: O_8  and  C_9
REMARK    4  A    between atoms: N_14  and  C_15
REMARK    5  A    between atoms: N_18  and  C_19
REMARK    6  A    between atoms: C_19  and  C_20
REMARK                            x       y       z     vdW  Elec       q    Type
REMARK                         _______ _______ _______ _____ _____    ______ ____
ROOT
ATOM      1  C   UNL     1       8.527  15.134  18.066  0.00  0.00    +0.000 A 
ATOM      2  C   UNL     1       8.746  16.452  18.370  0.00  0.00    +0.000 A 
ATOM      3  C   UNL     1       7.618  17.155  18.702  0.00  0.00    +0.000 A 
ATOM      4  N   UNL     1       6.377  16.620  18.720  0.00  0.00    +0.000 NA
ATOM      5  C   UNL     1       6.264  15.340  18.355  0.00  0.00    +0.000 A 
ATOM      6  N   UNL     1       5.067  14.706  18.289  0.00  0.00    +0.000 N 
ATOM      7  N   UNL     1       7.305  14.575  18.011  0.00  0.00    +0.000 NA
ATOM      8  H   UNL     1       5.182  13.765  17.934  0.00  0.00    +0.000 HD
ENDROOT
BRANCH   6   9
ATOM      9  C   UNL     1       3.751  15.090  18.767  0.00  0.00    +0.000 C 
ATOM     10  C   UNL     1       3.568  14.906  20.269  0.00  0.00    +0.000 C 
ATOM     11  C   UNL     1       2.765  13.671  20.659  0.00  0.00    +0.000 C 
ATOM     12  N   UNL     1       1.510  13.557  19.889  0.00  0.00    +0.000 NA
ATOM     13  C   UNL     1       1.849  13.375  18.467  0.00  0.00    +0.000 C 
ATOM     14  C   UNL     1       2.593  14.587  17.907  0.00  0.00    +0.000 C 
BRANCH  12  15
ATOM     15  C   UNL     1       0.763  12.383  20.409  0.00  0.00    +0.000 C 
BRANCH  15  16
ATOM     16  C   UNL     1      -0.674  12.316  19.963  0.00  0.00    +0.000 A 
ATOM     17  N   UNL     1      -1.555  13.221  20.425  0.00  0.00    +0.000 NA
ATOM     18  N   UNL     1      -2.682  12.950  19.747  0.00  0.00    +0.000 N 
ATOM     19  C   UNL     1      -2.568  11.929  18.845  0.00  0.00    +0.000 A 
ATOM     20  C   UNL     1      -3.478  11.399  17.925  0.00  0.00    +0.000 A 
ATOM     21  C   UNL     1      -3.037  10.334  17.135  0.00  0.00    +0.000 A 
ATOM     22  C   UNL     1      -1.752   9.811  17.284  0.00  0.00    +0.000 A 
ATOM     23  C   UNL     1      -0.855  10.360  18.213  0.00  0.00    +0.000 A 
ATOM     24  C   UNL     1      -1.269  11.454  18.995  0.00  0.00    +0.000 A 
ATOM     25  H   UNL     1      -3.500  13.520  19.929  0.00  0.00    +0.000 HD
ENDBRANCH  15  16
ENDBRANCH  12  15
ENDBRANCH   6   9
BRANCH   1  26
ATOM     26  O   UNL     1       9.644  14.357  17.779  0.00  0.00    +0.000 OA
BRANCH  26  31
ATOM     27  C   UNL     1       9.281  10.786  18.735  0.00  0.00    +0.000 A 
ATOM     28  C   UNL     1      10.073  10.775  19.886  0.00  0.00    +0.000 A 
ATOM     29  C   UNL     1      10.696  11.947  20.316  0.00  0.00    +0.000 A 
ATOM     30  C   UNL     1      10.540  13.128  19.586  0.00  0.00    +0.000 A 
ATOM     31  C   UNL     1       9.771  13.141  18.419  0.00  0.00    +0.000 A 
ATOM     32  C   UNL     1       9.116  11.973  18.012  0.00  0.00    +0.000 A 
BRANCH  27  34
ATOM     33  N   UNL     1       8.112   8.612  17.945  0.00  0.00    +0.000 NA
ATOM     34  C   UNL     1       8.634   9.585  18.292  0.00  0.00    +0.000 C 
ENDBRANCH  27  34
ENDBRANCH  26  31
ENDBRANCH   1  26
TORSDOF 6
ENDMDL
MODEL 8
REMARK VINA RESULT:      -8.0      6.277     10.975
REMARK  Name = 
REMARK  6 active torsions:
REMARK  status: ('A' for Active; 'I' for Inactive)
REMARK    1  A    between atoms: C_2  and  C_3
REMARK    2  A    between atoms: C_7  and  O_8
REMARK    3  A    between atoms: O_8  and  C_9
REMARK    4  A    between atoms: N_14  and  C_15
REMARK    5  A    between atoms: N_18  and  C_19
REMARK    6  A    between atoms: C_19  and  C_20
REMARK                            x       y       z     vdW  Elec       q    Type
REMARK                         _______ _______ _______ _____ _____    ______ ____
ROOT
ATOM      1  C   UNL     1       8.707  11.232  17.989  0.00  0.00    +0.000 A 
ATOM      2  C   UNL     1       9.375  11.111  19.179  0.00  0.00    +0.000 A 
ATOM      3  C   UNL     1       9.431   9.835  19.676  0.00  0.00    +0.000 A 
ATOM      4  N   UNL     1       8.867   8.768  19.069  0.00  0.00    +0.000 NA
ATOM      5  C   UNL     1       8.191   9.000  17.940  0.00  0.00    +0.000 A 
ATOM      6  N   UNL     1       7.544   8.017  17.265  0.00  0.00    +0.000 N 
ATOM      7  N   UNL     1       8.078  10.210  17.382  0.00  0.00    +0.000 NA
ATOM      8  H   UNL     1       7.041   8.401  16.475  0.00  0.00    +0.000 HD
ENDROOT
BRANCH   6   9
ATOM      9  C   UNL     1       7.585   6.573  17.402  0.00  0.00    +0.000 C 
ATOM     10  C   UNL     1       6.848   5.833  16.291  0.00  0.00    +0.000 C 
ATOM     11  C   UNL     1       5.479   5.299  16.693  0.00  0.00    +0.000 C 
ATOM     12  N   UNL     1       5.521   4.562  17.973  0.00  0.00    +0.000 NA
ATOM     13  C   UNL     1       5.907   5.502  19.039  0.00  0.00    +0.000 C 
ATOM     14  C   UNL     1       7.311   6.062  18.815  0.00  0.00    +0.000 C 
BRANCH  12  15
ATOM     15  C   UNL     1       4.167   4.006  18.221  0.00  0.00    +0.000 C 
BRANCH  15  16
ATOM     16  C   UNL     1       3.311   4.845  19.133  0.00  0.00    +0.000 A 
ATOM     17  N   UNL     1       3.047   4.412  20.380  0.00  0.00    +0.000 NA
ATOM     18  N   UNL     1       2.379   5.433  20.940  0.00  0.00    +0.000 N 
ATOM     19  C   UNL     1       2.221   6.521  20.128  0.00  0.00    +0.000 A 
ATOM     20  C   UNL     1       1.650   7.776  20.360  0.00  0.00    +0.000 A 
ATOM     21  C   UNL     1       1.647   8.681  19.294  0.00  0.00    +0.000 A 
ATOM     22  C   UNL     1       2.168   8.328  18.049  0.00  0.00    +0.000 A 
ATOM     23  C   UNL     1       2.738   7.063  17.840  0.00  0.00    +0.000 A 
ATOM     24  C   UNL     1       2.781   6.150  18.909  0.00  0.00    +0.000 A 
ATOM     25  H   UNL     1       2.076   5.336  21.902  0.00  0.00    +0.000 HD
ENDBRANCH  15  16
ENDBRANCH  12  15
ENDBRANCH   6   9
BRANCH   1  26
ATOM     26  O   UNL     1       8.671  12.494  17.409  0.00  0.00    +0.000 OA
BRANCH  26  31
ATOM     27  C   UNL     1      10.820  15.301  18.549  0.00  0.00    +0.000 A 
ATOM     28  C   UNL     1      11.996  14.983  17.865  0.00  0.00    +0.000 A 
ATOM     29  C   UNL     1      12.041  13.856  17.042  0.00  0.00    +0.000 A 
ATOM     30  C   UNL     1      10.916  13.039  16.916  0.00  0.00    +0.000 A 
ATOM     31  C   UNL     1       9.744  13.336  17.618  0.00  0.00    +0.000 A 
ATOM     32  C   UNL     1       9.689  14.488  18.411  0.00  0.00    +0.000 A 
BRANCH  27  34
ATOM     33  N   UNL     1      10.722  17.392  20.078  0.00  0.00    +0.000 NA
ATOM     34  C   UNL     1      10.767  16.462  19.391  0.00  0.00    +0.000 C 
ENDBRANCH  27  34
ENDBRANCH  26  31
ENDBRANCH   1  26
TORSDOF 6
ENDMDL
MODEL 9
REMARK VINA RESULT:      -8.0      2.411      3.345
REMARK  Name = 
REMARK  6 active torsions:
REMARK  status: ('A' for Active; 'I' for Inactive)
REMARK    1  A    between atoms: C_2  and  C_3
REMARK    2  A    between atoms: C_7  and  O_8
REMARK    3  A    between atoms: O_8  and  C_9
REMARK    4  A    between atoms: N_14  and  C_15
REMARK    5  A    between atoms: N_18  and  C_19
REMARK    6  A    between atoms: C_19  and  C_20
REMARK                            x       y       z     vdW  Elec       q    Type
REMARK                         _______ _______ _______ _____ _____    ______ ____
ROOT
ATOM      1  C   UNL     1      -3.679  11.389  17.605  0.00  0.00    +0.000 A 
ATOM      2  C   UNL     1      -3.543  10.440  16.626  0.00  0.00    +0.000 A 
ATOM      3  C   UNL     1      -2.329   9.804  16.612  0.00  0.00    +0.000 A 
ATOM      4  N   UNL     1      -1.326  10.083  17.473  0.00  0.00    +0.000 NA
ATOM      5  C   UNL     1      -1.538  11.063  18.355  0.00  0.00    +0.000 A 
ATOM      6  N   UNL     1      -0.591  11.465  19.239  0.00  0.00    +0.000 N 
ATOM      7  N   UNL     1      -2.687  11.742  18.442  0.00  0.00    +0.000 NA
ATOM      8  H   UNL     1      -0.920  12.257  19.777  0.00  0.00    +0.000 HD
ENDROOT
BRANCH   6   9
ATOM      9  C   UNL     1       0.680  10.874  19.617  0.00  0.00    +0.000 C 
ATOM     10  C   UNL     1       1.741  10.956  18.525  0.00  0.00    +0.000 C 
ATOM     11  C   UNL     1       1.966   9.653  17.768  0.00  0.00    +0.000 C 
ATOM     12  N   UNL     1       2.135   8.501  18.677  0.00  0.00    +0.000 NA
ATOM     13  C   UNL     1       0.882   8.311  19.427  0.00  0.00    +0.000 C 
ATOM     14  C   UNL     1       0.566   9.518  20.310  0.00  0.00    +0.000 C 
BRANCH  12  15
ATOM     15  C   UNL     1       2.442   7.309  17.847  0.00  0.00    +0.000 C 
BRANCH  15  16
ATOM     16  C   UNL     1       2.933   6.119  18.629  0.00  0.00    +0.000 A 
ATOM     17  N   UNL     1       3.970   6.263  19.474  0.00  0.00    +0.000 NA
ATOM     18  N   UNL     1       4.061   5.068  20.079  0.00  0.00    +0.000 N 
ATOM     19  C   UNL     1       3.114   4.162  19.688  0.00  0.00    +0.000 A 
ATOM     20  C   UNL     1       2.843   2.860  20.121  0.00  0.00    +0.000 A 
ATOM     21  C   UNL     1       1.783   2.192  19.501  0.00  0.00    +0.000 A 
ATOM     22  C   UNL     1       1.051   2.795  18.479  0.00  0.00    +0.000 A 
ATOM     23  C   UNL     1       1.341   4.103  18.062  0.00  0.00    +0.000 A 
ATOM     24  C   UNL     1       2.382   4.805  18.695  0.00  0.00    +0.000 A 
ATOM     25  H   UNL     1       4.783   4.938  20.777  0.00  0.00    +0.000 HD
ENDBRANCH  15  16
ENDBRANCH  12  15
ENDBRANCH   6   9
BRANCH   1  26
ATOM     26  O   UNL     1      -4.911  12.023  17.704  0.00  0.00    +0.000 OA
BRANCH  26  31
ATOM     27  C   UNL     1      -6.540  12.138  21.040  0.00  0.00    +0.000 A 
ATOM     28  C   UNL     1      -7.304  10.971  20.963  0.00  0.00    +0.000 A 
ATOM     29  C   UNL     1      -7.252  10.178  19.816  0.00  0.00    +0.000 A 
ATOM     30  C   UNL     1      -6.449  10.560  18.739  0.00  0.00    +0.000 A 
ATOM     31  C   UNL     1      -5.702  11.740  18.799  0.00  0.00    +0.000 A 
ATOM     32  C   UNL     1      -5.725  12.512  19.965  0.00  0.00    +0.000 A 
BRANCH  27  34
ATOM     33  N   UNL     1      -6.613  13.611  23.172  0.00  0.00    +0.000 NA
ATOM     34  C   UNL     1      -6.586  12.954  22.220  0.00  0.00    +0.000 C 
ENDBRANCH  27  34
ENDBRANCH  26  31
ENDBRANCH   1  26
TORSDOF 6
ENDMDL
