MODEL 1
REMARK VINA RESULT:      -8.2      0.000      0.000
REMARK  Name = 
REMARK  12 active torsions:
REMARK  status: ('A' for Active; 'I' for Inactive)
REMARK    1  A    between atoms: C_2  and  C_3
REMARK    2  A    between atoms: C_3  and  N_4
REMARK    3  A    between atoms: N_11  and  C_12
REMARK    4  A    between atoms: C_12  and  C_13
REMARK    5  A    between atoms: C_12  and  C_26
REMARK    6  A    between atoms: C_16  and  C_17
REMARK    7  A    between atoms: N_19  and  C_20
REMARK    8  A    between atoms: N_19  and  C_22
REMARK    9  A    between atoms: C_20  and  C_21
REMARK   10  A    between atoms: C_22  and  C_23
REMARK   11  A    between atoms: C_30  and  O_31
REMARK   12  A    between atoms: O_31  and  C_32
REMARK                            x       y       z     vdW  Elec       q    Type
REMARK                         _______ _______ _______ _____ _____    ______ ____
ROOT
ATOM      1  C   UNL     1       3.172   6.202  18.803  0.00  0.00    +0.000 C 
ENDROOT
BRANCH   1   9
ATOM      2  N   UNL     1       6.310   5.234  17.247  0.00  0.00    +0.000 NA
ATOM      3  C   UNL     1       6.511   5.873  15.943  0.00  0.00    +0.000 C 
ATOM      4  C   UNL     1       6.877   4.871  14.835  0.00  0.00    +0.000 C 
ATOM      5  C   UNL     1       5.910   3.695  14.753  0.00  0.00    +0.000 C 
ATOM      6  C   UNL     1       5.659   3.096  16.140  0.00  0.00    +0.000 C 
ATOM      7  C   UNL     1       5.298   4.169  17.191  0.00  0.00    +0.000 C 
ATOM      8  C   UNL     1       3.847   4.712  16.919  0.00  0.00    +0.000 C 
ATOM      9  N   UNL     1       3.470   6.083  17.335  0.00  0.00    +0.000 NA
ATOM     10  C   UNL     1       4.418   7.110  16.826  0.00  0.00    +0.000 C 
ATOM     11  C   UNL     1       5.286   6.758  15.595  0.00  0.00    +0.000 C 
BRANCH   2  12
ATOM     12  C   UNL     1       7.520   4.927  18.003  0.00  0.00    +0.000 C 
BRANCH  12  14
ATOM     13  C   UNL     1       8.193   7.299  18.590  0.00  0.00    +0.000 C 
ATOM     14  C   UNL     1       7.847   6.056  18.950  0.00  0.00    +0.000 C 
ENDBRANCH  12  14
ENDBRANCH   2  12
ENDBRANCH   1   9
BRANCH   1  15
ATOM     15  C   UNL     1       2.299   7.432  19.147  0.00  0.00    +0.000 A 
ATOM     16  C   UNL     1       2.010   8.476  18.252  0.00  0.00    +0.000 A 
ATOM     17  C   UNL     1       1.296   9.625  18.667  0.00  0.00    +0.000 A 
ATOM     18  C   UNL     1       0.909   9.790  20.000  0.00  0.00    +0.000 A 
ATOM     19  C   UNL     1       1.195   8.736  20.886  0.00  0.00    +0.000 A 
ATOM     20  C   UNL     1       1.832   7.568  20.462  0.00  0.00    +0.000 A 
BRANCH  18  21
ATOM     21  C   UNL     1       0.109  10.912  20.600  0.00  0.00    +0.000 C 
ATOM     22  O   UNL     1       0.654  11.485  21.546  0.00  0.00    +0.000 OA
ATOM     23  N   UNL     1      -1.145  11.366  20.138  0.00  0.00    +0.000 N 
BRANCH  23  24
ATOM     24  C   UNL     1      -1.865  10.831  18.978  0.00  0.00    +0.000 C 
ATOM     25  C   UNL     1      -1.713  11.575  17.654  0.00  0.00    +0.000 C 
ENDBRANCH  23  24
BRANCH  23  26
ATOM     26  C   UNL     1      -1.611  12.627  20.750  0.00  0.00    +0.000 C 
ATOM     27  C   UNL     1      -3.130  12.746  20.776  0.00  0.00    +0.000 C 
ENDBRANCH  23  26
ENDBRANCH  18  21
ENDBRANCH   1  15
BRANCH   1  28
ATOM     28  C   UNL     1       2.612   4.905  19.447  0.00  0.00    +0.000 A 
ATOM     29  C   UNL     1       1.284   4.479  19.254  0.00  0.00    +0.000 A 
ATOM     30  C   UNL     1       0.831   3.273  19.791  0.00  0.00    +0.000 A 
ATOM     31  C   UNL     1       1.687   2.486  20.561  0.00  0.00    +0.000 A 
ATOM     32  C   UNL     1       2.995   2.900  20.809  0.00  0.00    +0.000 A 
ATOM     33  C   UNL     1       3.452   4.105  20.256  0.00  0.00    +0.000 A 
BRANCH  32  34
ATOM     34  O   UNL     1       3.717   2.037  21.588  0.00  0.00    +0.000 OA
ATOM     35  C   UNL     1       4.852   1.421  20.996  0.00  0.00    +0.000 C 
ENDBRANCH  32  34
ENDBRANCH   1  28
TORSDOF 9
ENDMDL
MODEL 2
REMARK VINA RESULT:      -8.2      1.095      1.590
REMARK  Name = 
REMARK  12 active torsions:
REMARK  status: ('A' for Active; 'I' for Inactive)
REMARK    1  A    between atoms: C_2  and  C_3
REMARK    2  A    between atoms: C_3  and  N_4
REMARK    3  A    between atoms: N_11  and  C_12
REMARK    4  A    between atoms: C_12  and  C_13
REMARK    5  A    between atoms: C_12  and  C_26
REMARK    6  A    between atoms: C_16  and  C_17
REMARK    7  A    between atoms: N_19  and  C_20
REMARK    8  A    between atoms: N_19  and  C_22
REMARK    9  A    between atoms: C_20  and  C_21
REMARK   10  A    between atoms: C_22  and  C_23
REMARK   11  A    between atoms: C_30  and  O_31
REMARK   12  A    between atoms: O_31  and  C_32
REMARK                            x       y       z     vdW  Elec       q    Type
REMARK                         _______ _______ _______ _____ _____    ______ ____
ROOT
ATOM      1  C   UNL     1       3.240   6.261  18.736  0.00  0.00    +0.000 C 
ENDROOT
BRANCH   1   9
ATOM      2  N   UNL     1       6.360   5.225  17.185  0.00  0.00    +0.000 NA
ATOM      3  C   UNL     1       6.568   5.846  15.873  0.00  0.00    +0.000 C 
ATOM      4  C   UNL     1       6.916   4.825  14.777  0.00  0.00    +0.000 C 
ATOM      5  C   UNL     1       5.930   3.663  14.711  0.00  0.00    +0.000 C 
ATOM      6  C   UNL     1       5.674   3.085  16.105  0.00  0.00    +0.000 C 
ATOM      7  C   UNL     1       5.331   4.176  17.144  0.00  0.00    +0.000 C 
ATOM      8  C   UNL     1       3.888   4.738  16.868  0.00  0.00    +0.000 C 
ATOM      9  N   UNL     1       3.534   6.120  17.269  0.00  0.00    +0.000 NA
ATOM     10  C   UNL     1       4.496   7.125  16.745  0.00  0.00    +0.000 C 
ATOM     11  C   UNL     1       5.356   6.746  15.518  0.00  0.00    +0.000 C 
BRANCH   2  12
ATOM     12  C   UNL     1       7.566   4.909  17.942  0.00  0.00    +0.000 C 
BRANCH  12  14
ATOM     13  C   UNL     1       8.144   7.307  18.528  0.00  0.00    +0.000 C 
ATOM     14  C   UNL     1       7.906   6.038  18.886  0.00  0.00    +0.000 C 
ENDBRANCH  12  14
ENDBRANCH   2  12
ENDBRANCH   1   9
BRANCH   1  15
ATOM     15  C   UNL     1       2.411   7.524  19.070  0.00  0.00    +0.000 A 
ATOM     16  C   UNL     1       1.916   7.833  20.348  0.00  0.00    +0.000 A 
ATOM     17  C   UNL     1       1.070   8.949  20.560  0.00  0.00    +0.000 A 
ATOM     18  C   UNL     1       0.647   9.743  19.492  0.00  0.00    +0.000 A 
ATOM     19  C   UNL     1       1.155   9.431  18.218  0.00  0.00    +0.000 A 
ATOM     20  C   UNL     1       2.049   8.378  18.018  0.00  0.00    +0.000 A 
BRANCH  18  21
ATOM     21  C   UNL     1      -0.202  10.983  19.540  0.00  0.00    +0.000 C 
ATOM     22  O   UNL     1      -1.417  10.777  19.513  0.00  0.00    +0.000 OA
ATOM     23  N   UNL     1       0.280  12.305  19.661  0.00  0.00    +0.000 N 
BRANCH  23  24
ATOM     24  C   UNL     1       1.691  12.684  19.784  0.00  0.00    +0.000 C 
ATOM     25  C   UNL     1       2.500  12.806  18.496  0.00  0.00    +0.000 C 
ENDBRANCH  23  24
BRANCH  23  26
ATOM     26  C   UNL     1      -0.760  13.321  19.920  0.00  0.00    +0.000 C 
ATOM     27  C   UNL     1      -0.543  14.605  19.128  0.00  0.00    +0.000 C 
ENDBRANCH  23  26
ENDBRANCH  18  21
ENDBRANCH   1  15
BRANCH   1  28
ATOM     28  C   UNL     1       2.637   4.990  19.390  0.00  0.00    +0.000 A 
ATOM     29  C   UNL     1       1.290   4.617  19.214  0.00  0.00    +0.000 A 
ATOM     30  C   UNL     1       0.796   3.431  19.760  0.00  0.00    +0.000 A 
ATOM     31  C   UNL     1       1.628   2.613  20.523  0.00  0.00    +0.000 A 
ATOM     32  C   UNL     1       2.954   2.975  20.755  0.00  0.00    +0.000 A 
ATOM     33  C   UNL     1       3.452   4.160  20.193  0.00  0.00    +0.000 A 
BRANCH  32  34
ATOM     34  O   UNL     1       3.650   2.087  21.529  0.00  0.00    +0.000 OA
ATOM     35  C   UNL     1       4.764   1.439  20.934  0.00  0.00    +0.000 C 
ENDBRANCH  32  34
ENDBRANCH   1  28
TORSDOF 9
ENDMDL
MODEL 3
REMARK VINA RESULT:      -7.9      0.948      1.115
REMARK  Name = 
REMARK  12 active torsions:
REMARK  status: ('A' for Active; 'I' for Inactive)
REMARK    1  A    between atoms: C_2  and  C_3
REMARK    2  A    between atoms: C_3  and  N_4
REMARK    3  A    between atoms: N_11  and  C_12
REMARK    4  A    between atoms: C_12  and  C_13
REMARK    5  A    between atoms: C_12  and  C_26
REMARK    6  A    between atoms: C_16  and  C_17
REMARK    7  A    between atoms: N_19  and  C_20
REMARK    8  A    between atoms: N_19  and  C_22
REMARK    9  A    between atoms: C_20  and  C_21
REMARK   10  A    between atoms: C_22  and  C_23
REMARK   11  A    between atoms: C_30  and  O_31
REMARK   12  A    between atoms: O_31  and  C_32
REMARK                            x       y       z     vdW  Elec       q    Type
REMARK                         _______ _______ _______ _____ _____    ______ ____
ROOT
ATOM      1  C   UNL     1       3.111   6.167  19.031  0.00  0.00    +0.000 C 
ENDROOT
BRANCH   1   9
ATOM      2  N   UNL     1       6.216   5.259  17.373  0.00  0.00    +0.000 NA
ATOM      3  C   UNL     1       6.388   5.945  16.089  0.00  0.00    +0.000 C 
ATOM      4  C   UNL     1       6.731   4.984  14.939  0.00  0.00    +0.000 C 
ATOM      5  C   UNL     1       5.763   3.811  14.835  0.00  0.00    +0.000 C 
ATOM      6  C   UNL     1       5.543   3.162  16.205  0.00  0.00    +0.000 C 
ATOM      7  C   UNL     1       5.203   4.195  17.301  0.00  0.00    +0.000 C 
ATOM      8  C   UNL     1       3.746   4.746  17.080  0.00  0.00    +0.000 C 
ATOM      9  N   UNL     1       3.378   6.101  17.553  0.00  0.00    +0.000 NA
ATOM     10  C   UNL     1       4.314   7.146  17.061  0.00  0.00    +0.000 C 
ATOM     11  C   UNL     1       5.155   6.840  15.800  0.00  0.00    +0.000 C 
BRANCH   2  12
ATOM     12  C   UNL     1       7.442   4.927  18.092  0.00  0.00    +0.000 C 
BRANCH  12  14
ATOM     13  C   UNL     1       8.172   7.315  18.530  0.00  0.00    +0.000 C 
ATOM     14  C   UNL     1       7.869   6.084  18.963  0.00  0.00    +0.000 C 
ENDBRANCH  12  14
ENDBRANCH   2  12
ENDBRANCH   1   9
BRANCH   1  15
ATOM     15  C   UNL     1       2.221   7.367  19.434  0.00  0.00    +0.000 A 
ATOM     16  C   UNL     1       1.857   8.411  18.567  0.00  0.00    +0.000 A 
ATOM     17  C   UNL     1       1.131   9.534  19.033  0.00  0.00    +0.000 A 
ATOM     18  C   UNL     1       0.808   9.672  20.385  0.00  0.00    +0.000 A 
ATOM     19  C   UNL     1       1.168   8.617  21.242  0.00  0.00    +0.000 A 
ATOM     20  C   UNL     1       1.817   7.473  20.772  0.00  0.00    +0.000 A 
BRANCH  18  21
ATOM     21  C   UNL     1       0.007  10.763  21.038  0.00  0.00    +0.000 C 
ATOM     22  O   UNL     1      -0.703  10.390  21.975  0.00  0.00    +0.000 OA
ATOM     23  N   UNL     1       0.052  12.132  20.699  0.00  0.00    +0.000 N 
BRANCH  23  24
ATOM     24  C   UNL     1       0.910  12.721  19.665  0.00  0.00    +0.000 C 
ATOM     25  C   UNL     1       0.223  13.329  18.445  0.00  0.00    +0.000 C 
ENDBRANCH  23  24
BRANCH  23  26
ATOM     26  C   UNL     1      -0.650  13.027  21.640  0.00  0.00    +0.000 C 
ATOM     27  C   UNL     1       0.213  14.196  22.102  0.00  0.00    +0.000 C 
ENDBRANCH  23  26
ENDBRANCH  18  21
ENDBRANCH   1  15
BRANCH   1  28
ATOM     28  C   UNL     1       2.593   4.839  19.644  0.00  0.00    +0.000 A 
ATOM     29  C   UNL     1       1.263   4.402  19.489  0.00  0.00    +0.000 A 
ATOM     30  C   UNL     1       0.847   3.170  19.995  0.00  0.00    +0.000 A 
ATOM     31  C   UNL     1       1.742   2.365  20.698  0.00  0.00    +0.000 A 
ATOM     32  C   UNL     1       3.055   2.787  20.909  0.00  0.00    +0.000 A 
ATOM     33  C   UNL     1       3.474   4.019  20.387  0.00  0.00    +0.000 A 
BRANCH  32  34
ATOM     34  O   UNL     1       3.818   1.904  21.623  0.00  0.00    +0.000 OA
ATOM     35  C   UNL     1       4.969   1.372  20.983  0.00  0.00    +0.000 C 
ENDBRANCH  32  34
ENDBRANCH   1  28
TORSDOF 9
ENDMDL
MODEL 4
REMARK VINA RESULT:      -7.3      1.157      1.786
REMARK  Name = 
REMARK  12 active torsions:
REMARK  status: ('A' for Active; 'I' for Inactive)
REMARK    1  A    between atoms: C_2  and  C_3
REMARK    2  A    between atoms: C_3  and  N_4
REMARK    3  A    between atoms: N_11  and  C_12
REMARK    4  A    between atoms: C_12  and  C_13
REMARK    5  A    between atoms: C_12  and  C_26
REMARK    6  A    between atoms: C_16  and  C_17
REMARK    7  A    between atoms: N_19  and  C_20
REMARK    8  A    between atoms: N_19  and  C_22
REMARK    9  A    between atoms: C_20  and  C_21
REMARK   10  A    between atoms: C_22  and  C_23
REMARK   11  A    between atoms: C_30  and  O_31
REMARK   12  A    between atoms: O_31  and  C_32
REMARK                            x       y       z     vdW  Elec       q    Type
REMARK                         _______ _______ _______ _____ _____    ______ ____
ROOT
ATOM      1  C   UNL     1       3.136   6.252  18.579  0.00  0.00    +0.000 C 
ENDROOT
BRANCH   1   9
ATOM      2  N   UNL     1       6.363   5.203  17.276  0.00  0.00    +0.000 NA
ATOM      3  C   UNL     1       6.721   5.899  16.036  0.00  0.00    +0.000 C 
ATOM      4  C   UNL     1       7.146   4.940  14.913  0.00  0.00    +0.000 C 
ATOM      5  C   UNL     1       6.137   3.822  14.671  0.00  0.00    +0.000 C 
ATOM      6  C   UNL     1       5.724   3.165  15.990  0.00  0.00    +0.000 C 
ATOM      7  C   UNL     1       5.311   4.197  17.062  0.00  0.00    +0.000 C 
ATOM      8  C   UNL     1       3.922   4.830  16.684  0.00  0.00    +0.000 C 
ATOM      9  N   UNL     1       3.571   6.195  17.141  0.00  0.00    +0.000 NA
ATOM     10  C   UNL     1       4.612   7.196  16.785  0.00  0.00    +0.000 C 
ATOM     11  C   UNL     1       5.579   6.865  15.625  0.00  0.00    +0.000 C 
BRANCH   2  12
ATOM     12  C   UNL     1       7.476   4.793  18.125  0.00  0.00    +0.000 C 
BRANCH  12  14
ATOM     13  C   UNL     1       8.247   7.128  18.742  0.00  0.00    +0.000 C 
ATOM     14  C   UNL     1       7.838   5.900  19.087  0.00  0.00    +0.000 C 
ENDBRANCH  12  14
ENDBRANCH   2  12
ENDBRANCH   1   9
BRANCH   1  15
ATOM     15  C   UNL     1       2.334   7.531  18.920  0.00  0.00    +0.000 A 
ATOM     16  C   UNL     1       1.850   7.846  20.201  0.00  0.00    +0.000 A 
ATOM     17  C   UNL     1       1.029   8.978  20.419  0.00  0.00    +0.000 A 
ATOM     18  C   UNL     1       0.619   9.785  19.355  0.00  0.00    +0.000 A 
ATOM     19  C   UNL     1       1.117   9.468  18.079  0.00  0.00    +0.000 A 
ATOM     20  C   UNL     1       1.988   8.396  17.873  0.00  0.00    +0.000 A 
BRANCH  18  21
ATOM     21  C   UNL     1      -0.203  11.043  19.410  0.00  0.00    +0.000 C 
ATOM     22  O   UNL     1      -0.639  11.422  18.321  0.00  0.00    +0.000 OA
ATOM     23  N   UNL     1      -0.535  11.757  20.581  0.00  0.00    +0.000 N 
BRANCH  23  24
ATOM     24  C   UNL     1      -0.152  11.374  21.944  0.00  0.00    +0.000 C 
ATOM     25  C   UNL     1      -1.277  11.062  22.927  0.00  0.00    +0.000 C 
ENDBRANCH  23  24
BRANCH  23  26
ATOM     26  C   UNL     1      -1.542  12.821  20.393  0.00  0.00    +0.000 C 
ATOM     27  C   UNL     1      -0.933  14.218  20.384  0.00  0.00    +0.000 C 
ENDBRANCH  23  26
ENDBRANCH  18  21
ENDBRANCH   1  15
BRANCH   1  28
ATOM     28  C   UNL     1       2.411   4.973  19.076  0.00  0.00    +0.000 A 
ATOM     29  C   UNL     1       1.513   4.250  18.266  0.00  0.00    +0.000 A 
ATOM     30  C   UNL     1       0.930   3.066  18.719  0.00  0.00    +0.000 A 
ATOM     31  C   UNL     1       1.205   2.598  20.003  0.00  0.00    +0.000 A 
ATOM     32  C   UNL     1       2.055   3.312  20.848  0.00  0.00    +0.000 A 
ATOM     33  C   UNL     1       2.650   4.495  20.385  0.00  0.00    +0.000 A 
BRANCH  32  34
ATOM     34  O   UNL     1       2.225   2.745  22.081  0.00  0.00    +0.000 OA
ATOM     35  C   UNL     1       1.120   2.043  22.632  0.00  0.00    +0.000 C 
ENDBRANCH  32  34
ENDBRANCH   1  28
TORSDOF 9
ENDMDL
MODEL 5
REMARK VINA RESULT:      -7.3      1.462      2.087
REMARK  Name = 
REMARK  12 active torsions:
REMARK  status: ('A' for Active; 'I' for Inactive)
REMARK    1  A    between atoms: C_2  and  C_3
REMARK    2  A    between atoms: C_3  and  N_4
REMARK    3  A    between atoms: N_11  and  C_12
REMARK    4  A    between atoms: C_12  and  C_13
REMARK    5  A    between atoms: C_12  and  C_26
REMARK    6  A    between atoms: C_16  and  C_17
REMARK    7  A    between atoms: N_19  and  C_20
REMARK    8  A    between atoms: N_19  and  C_22
REMARK    9  A    between atoms: C_20  and  C_21
REMARK   10  A    between atoms: C_22  and  C_23
REMARK   11  A    between atoms: C_30  and  O_31
REMARK   12  A    between atoms: O_31  and  C_32
REMARK                            x       y       z     vdW  Elec       q    Type
REMARK                         _______ _______ _______ _____ _____    ______ ____
ROOT
ATOM      1  C   UNL     1       3.123   6.462  18.856  0.00  0.00    +0.000 C 
ENDROOT
BRANCH   1   9
ATOM      2  N   UNL     1       6.252   5.289  17.426  0.00  0.00    +0.000 NA
ATOM      3  C   UNL     1       6.486   5.816  16.078  0.00  0.00    +0.000 C 
ATOM      4  C   UNL     1       6.838   4.720  15.059  0.00  0.00    +0.000 C 
ATOM      5  C   UNL     1       5.839   3.567  15.057  0.00  0.00    +0.000 C 
ATOM      6  C   UNL     1       5.556   3.088  16.483  0.00  0.00    +0.000 C 
ATOM      7  C   UNL     1       5.211   4.250  17.441  0.00  0.00    +0.000 C 
ATOM      8  C   UNL     1       3.780   4.808  17.105  0.00  0.00    +0.000 C 
ATOM      9  N   UNL     1       3.436   6.218  17.406  0.00  0.00    +0.000 NA
ATOM     10  C   UNL     1       4.418   7.175  16.831  0.00  0.00    +0.000 C 
ATOM     11  C   UNL     1       5.291   6.703  15.644  0.00  0.00    +0.000 C 
BRANCH   2  12
ATOM     12  C   UNL     1       7.444   5.011  18.221  0.00  0.00    +0.000 C 
BRANCH  12  14
ATOM     13  C   UNL     1       8.127   7.445  18.405  0.00  0.00    +0.000 C 
ATOM     14  C   UNL     1       7.882   6.252  18.962  0.00  0.00    +0.000 C 
ENDBRANCH  12  14
ENDBRANCH   2  12
ENDBRANCH   1   9
BRANCH   1  15
ATOM     15  C   UNL     1       2.279   7.738  19.088  0.00  0.00    +0.000 A 
ATOM     16  C   UNL     1       1.745   8.120  20.330  0.00  0.00    +0.000 A 
ATOM     17  C   UNL     1       0.889   9.242  20.449  0.00  0.00    +0.000 A 
ATOM     18  C   UNL     1       0.495   9.968  19.323  0.00  0.00    +0.000 A 
ATOM     19  C   UNL     1       1.042   9.583  18.086  0.00  0.00    +0.000 A 
ATOM     20  C   UNL     1       1.946   8.525  17.977  0.00  0.00    +0.000 A 
BRANCH  18  21
ATOM     21  C   UNL     1      -0.359  11.204  19.271  0.00  0.00    +0.000 C 
ATOM     22  O   UNL     1      -1.570  10.990  19.176  0.00  0.00    +0.000 OA
ATOM     23  N   UNL     1       0.109  12.532  19.371  0.00  0.00    +0.000 N 
BRANCH  23  24
ATOM     24  C   UNL     1       1.508  12.924  19.569  0.00  0.00    +0.000 C 
ATOM     25  C   UNL     1       2.383  13.050  18.324  0.00  0.00    +0.000 C 
ENDBRANCH  23  24
BRANCH  23  26
ATOM     26  C   UNL     1      -0.948  13.551  19.526  0.00  0.00    +0.000 C 
ATOM     27  C   UNL     1      -1.106  14.027  20.966  0.00  0.00    +0.000 C 
ENDBRANCH  23  26
ENDBRANCH  18  21
ENDBRANCH   1  15
BRANCH   1  28
ATOM     28  C   UNL     1       2.522   5.235  19.593  0.00  0.00    +0.000 A 
ATOM     29  C   UNL     1       2.831   4.933  20.933  0.00  0.00    +0.000 A 
ATOM     30  C   UNL     1       2.221   3.861  21.587  0.00  0.00    +0.000 A 
ATOM     31  C   UNL     1       1.317   3.049  20.904  0.00  0.00    +0.000 A 
ATOM     32  C   UNL     1       1.022   3.293  19.563  0.00  0.00    +0.000 A 
ATOM     33  C   UNL     1       1.626   4.379  18.912  0.00  0.00    +0.000 A 
BRANCH  32  34
ATOM     34  O   UNL     1       0.129   2.412  19.017  0.00  0.00    +0.000 OA
ATOM     35  C   UNL     1       0.661   1.284  18.338  0.00  0.00    +0.000 C 
ENDBRANCH  32  34
ENDBRANCH   1  28
TORSDOF 9
ENDMDL
MODEL 6
REMARK VINA RESULT:      -7.3      0.861      1.021
REMARK  Name = 
REMARK  12 active torsions:
REMARK  status: ('A' for Active; 'I' for Inactive)
REMARK    1  A    between atoms: C_2  and  C_3
REMARK    2  A    between atoms: C_3  and  N_4
REMARK    3  A    between atoms: N_11  and  C_12
REMARK    4  A    between atoms: C_12  and  C_13
REMARK    5  A    between atoms: C_12  and  C_26
REMARK    6  A    between atoms: C_16  and  C_17
REMARK    7  A    between atoms: N_19  and  C_20
REMARK    8  A    between atoms: N_19  and  C_22
REMARK    9  A    between atoms: C_20  and  C_21
REMARK   10  A    between atoms: C_22  and  C_23
REMARK   11  A    between atoms: C_30  and  O_31
REMARK   12  A    between atoms: O_31  and  C_32
REMARK                            x       y       z     vdW  Elec       q    Type
REMARK                         _______ _______ _______ _____ _____    ______ ____
ROOT
ATOM      1  C   UNL     1       3.079   6.269  18.615  0.00  0.00    +0.000 C 
ENDROOT
BRANCH   1   9
ATOM      2  N   UNL     1       6.307   5.206  17.328  0.00  0.00    +0.000 NA
ATOM      3  C   UNL     1       6.654   5.866  16.066  0.00  0.00    +0.000 C 
ATOM      4  C   UNL     1       7.081   4.876  14.970  0.00  0.00    +0.000 C 
ATOM      5  C   UNL     1       6.080   3.744  14.767  0.00  0.00    +0.000 C 
ATOM      6  C   UNL     1       5.678   3.124  16.108  0.00  0.00    +0.000 C 
ATOM      7  C   UNL     1       5.263   4.186  17.150  0.00  0.00    +0.000 C 
ATOM      8  C   UNL     1       3.867   4.796  16.760  0.00  0.00    +0.000 C 
ATOM      9  N   UNL     1       3.508   6.172  17.177  0.00  0.00    +0.000 NA
ATOM     10  C   UNL     1       4.539   7.169  16.786  0.00  0.00    +0.000 C 
ATOM     11  C   UNL     1       5.503   6.810  15.631  0.00  0.00    +0.000 C 
BRANCH   2  12
ATOM     12  C   UNL     1       7.428   4.830  18.183  0.00  0.00    +0.000 C 
BRANCH  12  14
ATOM     13  C   UNL     1       8.216   7.197  18.640  0.00  0.00    +0.000 C 
ATOM     14  C   UNL     1       7.825   5.989  19.067  0.00  0.00    +0.000 C 
ENDBRANCH  12  14
ENDBRANCH   2  12
ENDBRANCH   1   9
BRANCH   1  15
ATOM     15  C   UNL     1       2.286   7.561  18.925  0.00  0.00    +0.000 A 
ATOM     16  C   UNL     1       2.078   8.604  18.008  0.00  0.00    +0.000 A 
ATOM     17  C   UNL     1       1.438   9.806  18.393  0.00  0.00    +0.000 A 
ATOM     18  C   UNL     1       1.048  10.022  19.717  0.00  0.00    +0.000 A 
ATOM     19  C   UNL     1       1.253   8.968  20.626  0.00  0.00    +0.000 A 
ATOM     20  C   UNL     1       1.815   7.752  20.232  0.00  0.00    +0.000 A 
BRANCH  18  21
ATOM     21  C   UNL     1       0.319  11.206  20.287  0.00  0.00    +0.000 C 
ATOM     22  O   UNL     1       0.969  11.872  21.096  0.00  0.00    +0.000 OA
ATOM     23  N   UNL     1      -0.985  11.616  19.933  0.00  0.00    +0.000 N 
BRANCH  23  24
ATOM     24  C   UNL     1      -1.834  10.967  18.930  0.00  0.00    +0.000 C 
ATOM     25  C   UNL     1      -1.928  11.626  17.557  0.00  0.00    +0.000 C 
ENDBRANCH  23  24
BRANCH  23  26
ATOM     26  C   UNL     1      -1.382  12.938  20.460  0.00  0.00    +0.000 C 
ATOM     27  C   UNL     1      -0.814  14.095  19.647  0.00  0.00    +0.000 C 
ENDBRANCH  23  26
ENDBRANCH  18  21
ENDBRANCH   1  15
BRANCH   1  28
ATOM     28  C   UNL     1       2.349   5.007  19.148  0.00  0.00    +0.000 A 
ATOM     29  C   UNL     1       1.466   4.252  18.352  0.00  0.00    +0.000 A 
ATOM     30  C   UNL     1       0.878   3.084  18.840  0.00  0.00    +0.000 A 
ATOM     31  C   UNL     1       1.133   2.667  20.146  0.00  0.00    +0.000 A 
ATOM     32  C   UNL     1       1.966   3.416  20.976  0.00  0.00    +0.000 A 
ATOM     33  C   UNL     1       2.567   4.581  20.478  0.00  0.00    +0.000 A 
BRANCH  32  34
ATOM     34  O   UNL     1       2.117   2.896  22.233  0.00  0.00    +0.000 OA
ATOM     35  C   UNL     1       1.112   2.003  22.692  0.00  0.00    +0.000 C 
ENDBRANCH  32  34
ENDBRANCH   1  28
TORSDOF 9
ENDMDL
MODEL 7
REMARK VINA RESULT:      -7.3      1.149      1.699
REMARK  Name = 
REMARK  12 active torsions:
REMARK  status: ('A' for Active; 'I' for Inactive)
REMARK    1  A    between atoms: C_2  and  C_3
REMARK    2  A    between atoms: C_3  and  N_4
REMARK    3  A    between atoms: N_11  and  C_12
REMARK    4  A    between atoms: C_12  and  C_13
REMARK    5  A    between atoms: C_12  and  C_26
REMARK    6  A    between atoms: C_16  and  C_17
REMARK    7  A    between atoms: N_19  and  C_20
REMARK    8  A    between atoms: N_19  and  C_22
REMARK    9  A    between atoms: C_20  and  C_21
REMARK   10  A    between atoms: C_22  and  C_23
REMARK   11  A    between atoms: C_30  and  O_31
REMARK   12  A    between atoms: O_31  and  C_32
REMARK                            x       y       z     vdW  Elec       q    Type
REMARK                         _______ _______ _______ _____ _____    ______ ____
ROOT
ATOM      1  C   UNL     1       3.092   6.344  19.122  0.00  0.00    +0.000 C 
ENDROOT
BRANCH   1   9
ATOM      2  N   UNL     1       6.202   5.323  17.541  0.00  0.00    +0.000 NA
ATOM      3  C   UNL     1       6.394   5.943  16.227  0.00  0.00    +0.000 C 
ATOM      4  C   UNL     1       6.736   4.923  15.128  0.00  0.00    +0.000 C 
ATOM      5  C   UNL     1       5.756   3.757  15.073  0.00  0.00    +0.000 C 
ATOM      6  C   UNL     1       5.516   3.178  16.470  0.00  0.00    +0.000 C 
ATOM      7  C   UNL     1       5.178   4.268  17.511  0.00  0.00    +0.000 C 
ATOM      8  C   UNL     1       3.730   4.823  17.249  0.00  0.00    +0.000 C 
ATOM      9  N   UNL     1       3.372   6.203  17.651  0.00  0.00    +0.000 NA
ATOM     10  C   UNL     1       4.324   7.213  17.118  0.00  0.00    +0.000 C 
ATOM     11  C   UNL     1       5.174   6.837  15.882  0.00  0.00    +0.000 C 
BRANCH   2  12
ATOM     12  C   UNL     1       7.417   5.013  18.287  0.00  0.00    +0.000 C 
BRANCH  12  14
ATOM     13  C   UNL     1       8.241   7.402  18.485  0.00  0.00    +0.000 C 
ATOM     14  C   UNL     1       7.897   6.231  19.038  0.00  0.00    +0.000 C 
ENDBRANCH  12  14
ENDBRANCH   2  12
ENDBRANCH   1   9
BRANCH   1  15
ATOM     15  C   UNL     1       2.245   7.594  19.461  0.00  0.00    +0.000 A 
ATOM     16  C   UNL     1       1.643   7.830  20.708  0.00  0.00    +0.000 A 
ATOM     17  C   UNL     1       0.790   8.941  20.915  0.00  0.00    +0.000 A 
ATOM     18  C   UNL     1       0.467   9.805  19.866  0.00  0.00    +0.000 A 
ATOM     19  C   UNL     1       1.082   9.566  18.624  0.00  0.00    +0.000 A 
ATOM     20  C   UNL     1       1.983   8.516  18.437  0.00  0.00    +0.000 A 
BRANCH  18  21
ATOM     21  C   UNL     1      -0.374  11.050  19.918  0.00  0.00    +0.000 C 
ATOM     22  O   UNL     1       0.123  11.981  20.556  0.00  0.00    +0.000 OA
ATOM     23  N   UNL     1      -1.614  11.232  19.270  0.00  0.00    +0.000 N 
BRANCH  23  24
ATOM     24  C   UNL     1      -2.277  10.240  18.416  0.00  0.00    +0.000 C 
ATOM     25  C   UNL     1      -2.301  10.512  16.914  0.00  0.00    +0.000 C 
ENDBRANCH  23  24
BRANCH  23  26
ATOM     26  C   UNL     1      -2.124  12.618  19.285  0.00  0.00    +0.000 C 
ATOM     27  C   UNL     1      -3.445  12.755  20.033  0.00  0.00    +0.000 C 
ENDBRANCH  23  26
ENDBRANCH  18  21
ENDBRANCH   1  15
BRANCH   1  28
ATOM     28  C   UNL     1       2.516   5.065  19.786  0.00  0.00    +0.000 A 
ATOM     29  C   UNL     1       2.859   4.674  21.094  0.00  0.00    +0.000 A 
ATOM     30  C   UNL     1       2.272   3.555  21.687  0.00  0.00    +0.000 A 
ATOM     31  C   UNL     1       1.357   2.784  20.971  0.00  0.00    +0.000 A 
ATOM     32  C   UNL     1       1.028   3.118  19.657  0.00  0.00    +0.000 A 
ATOM     33  C   UNL     1       1.609   4.251  19.069  0.00  0.00    +0.000 A 
BRANCH  32  34
ATOM     34  O   UNL     1       0.128   2.269  19.073  0.00  0.00    +0.000 OA
ATOM     35  C   UNL     1       0.645   1.263  18.215  0.00  0.00    +0.000 C 
ENDBRANCH  32  34
ENDBRANCH   1  28
TORSDOF 9
ENDMDL
MODEL 8
REMARK VINA RESULT:      -7.1      3.190      9.324
REMARK  Name = 
REMARK  12 active torsions:
REMARK  status: ('A' for Active; 'I' for Inactive)
REMARK    1  A    between atoms: C_2  and  C_3
REMARK    2  A    between atoms: C_3  and  N_4
REMARK    3  A    between atoms: N_11  and  C_12
REMARK    4  A    between atoms: C_12  and  C_13
REMARK    5  A    between atoms: C_12  and  C_26
REMARK    6  A    between atoms: C_16  and  C_17
REMARK    7  A    between atoms: N_19  and  C_20
REMARK    8  A    between atoms: N_19  and  C_22
REMARK    9  A    between atoms: C_20  and  C_21
REMARK   10  A    between atoms: C_22  and  C_23
REMARK   11  A    between atoms: C_30  and  O_31
REMARK   12  A    between atoms: O_31  and  C_32
REMARK                            x       y       z     vdW  Elec       q    Type
REMARK                         _______ _______ _______ _____ _____    ______ ____
ROOT
ATOM      1  C   UNL     1       0.009  11.147  18.708  0.00  0.00    +0.000 C 
ENDROOT
BRANCH   1   9
ATOM      2  N   UNL     1       1.989  14.185  18.953  0.00  0.00    +0.000 NA
ATOM      3  C   UNL     1       2.472  14.432  20.315  0.00  0.00    +0.000 C 
ATOM      4  C   UNL     1       2.167  15.855  20.809  0.00  0.00    +0.000 C 
ATOM      5  C   UNL     1       0.702  16.242  20.644  0.00  0.00    +0.000 C 
ATOM      6  C   UNL     1       0.203  15.902  19.236  0.00  0.00    +0.000 C 
ATOM      7  C   UNL     1       0.550  14.456  18.819  0.00  0.00    +0.000 C 
ATOM      8  C   UNL     1      -0.345  13.442  19.622  0.00  0.00    +0.000 C 
ATOM      9  N   UNL     1       0.137  12.067  19.890  0.00  0.00    +0.000 NA
ATOM     10  C   UNL     1       1.482  12.052  20.524  0.00  0.00    +0.000 C 
ATOM     11  C   UNL     1       1.955  13.323  21.267  0.00  0.00    +0.000 C 
BRANCH   2  12
ATOM     12  C   UNL     1       2.836  14.681  17.873  0.00  0.00    +0.000 C 
BRANCH  12  14
ATOM     13  C   UNL     1       5.332  15.122  17.903  0.00  0.00    +0.000 C 
ATOM     14  C   UNL     1       4.280  14.325  18.134  0.00  0.00    +0.000 C 
ENDBRANCH  12  14
ENDBRANCH   2  12
ENDBRANCH   1   9
BRANCH   1  15
ATOM     15  C   UNL     1       0.733   9.794  18.910  0.00  0.00    +0.000 A 
ATOM     16  C   UNL     1       0.838   9.127  20.142  0.00  0.00    +0.000 A 
ATOM     17  C   UNL     1       1.610   7.948  20.277  0.00  0.00    +0.000 A 
ATOM     18  C   UNL     1       2.346   7.443  19.202  0.00  0.00    +0.000 A 
ATOM     19  C   UNL     1       2.227   8.112  17.971  0.00  0.00    +0.000 A 
ATOM     20  C   UNL     1       1.407   9.231  17.817  0.00  0.00    +0.000 A 
BRANCH  18  21
ATOM     21  C   UNL     1       3.171   6.187  19.154  0.00  0.00    +0.000 C 
ATOM     22  O   UNL     1       4.348   6.356  18.827  0.00  0.00    +0.000 OA
ATOM     23  N   UNL     1       2.720   4.894  19.494  0.00  0.00    +0.000 N 
BRANCH  23  24
ATOM     24  C   UNL     1       1.375   4.565  19.975  0.00  0.00    +0.000 C 
ATOM     25  C   UNL     1       1.240   3.380  20.928  0.00  0.00    +0.000 C 
ENDBRANCH  23  24
BRANCH  23  26
ATOM     26  C   UNL     1       3.783   3.872  19.587  0.00  0.00    +0.000 C 
ATOM     27  C   UNL     1       3.859   2.983  18.351  0.00  0.00    +0.000 C 
ENDBRANCH  23  26
ENDBRANCH  18  21
ENDBRANCH   1  15
BRANCH   1  28
ATOM     28  C   UNL     1      -1.447  10.948  18.211  0.00  0.00    +0.000 A 
ATOM     29  C   UNL     1      -1.778  10.042  17.184  0.00  0.00    +0.000 A 
ATOM     30  C   UNL     1      -3.106   9.837  16.807  0.00  0.00    +0.000 A 
ATOM     31  C   UNL     1      -4.127  10.559  17.424  0.00  0.00    +0.000 A 
ATOM     32  C   UNL     1      -3.831  11.496  18.413  0.00  0.00    +0.000 A 
ATOM     33  C   UNL     1      -2.497  11.690  18.800  0.00  0.00    +0.000 A 
BRANCH  32  34
ATOM     34  O   UNL     1      -4.927  12.139  18.921  0.00  0.00    +0.000 OA
ATOM     35  C   UNL     1      -5.914  12.572  17.997  0.00  0.00    +0.000 C 
ENDBRANCH  32  34
ENDBRANCH   1  28
TORSDOF 9
ENDMDL
MODEL 9
REMARK VINA RESULT:      -7.1      3.277      9.310
REMARK  Name = 
REMARK  12 active torsions:
REMARK  status: ('A' for Active; 'I' for Inactive)
REMARK    1  A    between atoms: C_2  and  C_3
REMARK    2  A    between atoms: C_3  and  N_4
REMARK    3  A    between atoms: N_11  and  C_12
REMARK    4  A    between atoms: C_12  and  C_13
REMARK    5  A    between atoms: C_12  and  C_26
REMARK    6  A    between atoms: C_16  and  C_17
REMARK    7  A    between atoms: N_19  and  C_20
REMARK    8  A    between atoms: N_19  and  C_22
REMARK    9  A    between atoms: C_20  and  C_21
REMARK   10  A    between atoms: C_22  and  C_23
REMARK   11  A    between atoms: C_30  and  O_31
REMARK   12  A    between atoms: O_31  and  C_32
REMARK                            x       y       z     vdW  Elec       q    Type
REMARK                         _______ _______ _______ _____ _____    ______ ____
ROOT
ATOM      1  C   UNL     1       0.114  11.489  18.664  0.00  0.00    +0.000 C 
ENDROOT
BRANCH   1   9
ATOM      2  N   UNL     1       2.219  14.442  18.902  0.00  0.00    +0.000 NA
ATOM      3  C   UNL     1       2.692  14.686  20.268  0.00  0.00    +0.000 C 
ATOM      4  C   UNL     1       2.441  16.127  20.740  0.00  0.00    +0.000 C 
ATOM      5  C   UNL     1       0.997  16.574  20.548  0.00  0.00    +0.000 C 
ATOM      6  C   UNL     1       0.505  16.238  19.137  0.00  0.00    +0.000 C 
ATOM      7  C   UNL     1       0.795  14.773  18.743  0.00  0.00    +0.000 C 
ATOM      8  C   UNL     1      -0.155  13.809  19.545  0.00  0.00    +0.000 C 
ATOM      9  N   UNL     1       0.264  12.418  19.837  0.00  0.00    +0.000 NA
ATOM     10  C   UNL     1       1.597  12.353  20.492  0.00  0.00    +0.000 C 
ATOM     11  C   UNL     1       2.113  13.612  21.226  0.00  0.00    +0.000 C 
BRANCH   2  12
ATOM     12  C   UNL     1       3.102  14.887  17.829  0.00  0.00    +0.000 C 
BRANCH  12  14
ATOM     13  C   UNL     1       5.589  15.321  18.059  0.00  0.00    +0.000 C 
ATOM     14  C   UNL     1       4.531  14.504  18.133  0.00  0.00    +0.000 C 
ENDBRANCH  12  14
ENDBRANCH   2  12
ENDBRANCH   1   9
BRANCH   1  15
ATOM     15  C   UNL     1       0.968  10.205  18.794  0.00  0.00    +0.000 A 
ATOM     16  C   UNL     1       1.817   9.712  17.789  0.00  0.00    +0.000 A 
ATOM     17  C   UNL     1       2.484   8.472  17.932  0.00  0.00    +0.000 A 
ATOM     18  C   UNL     1       2.271   7.666  19.053  0.00  0.00    +0.000 A 
ATOM     19  C   UNL     1       1.428   8.172  20.058  0.00  0.00    +0.000 A 
ATOM     20  C   UNL     1       0.828   9.429  19.953  0.00  0.00    +0.000 A 
BRANCH  18  21
ATOM     21  C   UNL     1       2.928   6.356  19.390  0.00  0.00    +0.000 C 
ATOM     22  O   UNL     1       2.390   5.731  20.307  0.00  0.00    +0.000 OA
ATOM     23  N   UNL     1       4.038   5.797  18.721  0.00  0.00    +0.000 N 
BRANCH  23  24
ATOM     24  C   UNL     1       4.720   6.393  17.568  0.00  0.00    +0.000 C 
ATOM     25  C   UNL     1       6.245   6.450  17.607  0.00  0.00    +0.000 C 
ENDBRANCH  23  24
BRANCH  23  26
ATOM     26  C   UNL     1       4.345   4.401  19.091  0.00  0.00    +0.000 C 
ATOM     27  C   UNL     1       3.827   3.391  18.074  0.00  0.00    +0.000 C 
ENDBRANCH  23  26
ENDBRANCH  18  21
ENDBRANCH   1  15
BRANCH   1  28
ATOM     28  C   UNL     1      -1.358  11.162  18.295  0.00  0.00    +0.000 A 
ATOM     29  C   UNL     1      -1.701  10.136  17.393  0.00  0.00    +0.000 A 
ATOM     30  C   UNL     1      -3.036   9.823  17.134  0.00  0.00    +0.000 A 
ATOM     31  C   UNL     1      -4.056  10.553  17.744  0.00  0.00    +0.000 A 
ATOM     32  C   UNL     1      -3.751  11.605  18.607  0.00  0.00    +0.000 A 
ATOM     33  C   UNL     1      -2.409  11.908  18.877  0.00  0.00    +0.000 A 
BRANCH  32  34
ATOM     34  O   UNL     1      -4.848  12.241  19.123  0.00  0.00    +0.000 OA
ATOM     35  C   UNL     1      -6.032  11.471  19.279  0.00  0.00    +0.000 C 
ENDBRANCH  32  34
ENDBRANCH   1  28
TORSDOF 9
ENDMDL
