MODEL 1
REMARK VINA RESULT:      -7.2      0.000      0.000
REMARK  Name = 
REMARK  3 active torsions:
REMARK  status: ('A' for Active; 'I' for Inactive)
REMARK    1  A    between atoms: C_1  and  O_2
REMARK    2  A    between atoms: O_2  and  C_3
REMARK    3  A    between atoms: C_6  and  N_7
REMARK                            x       y       z     vdW  Elec       q    Type
REMARK                         _______ _______ _______ _____ _____    ______ ____
ROOT
ATOM      1  N   UNL     1       3.023   6.019  17.882  0.00  0.00    +0.000 N 
ATOM      2  C   UNL     1       2.429   4.680  17.861  0.00  0.00    +0.000 C 
ATOM      3  C   UNL     1       3.490   3.831  17.153  0.00  0.00    +0.000 C 
ATOM      4  N   UNL     1       4.537   4.758  16.804  0.00  0.00    +0.000 N 
ATOM      5  C   UNL     1       4.249   6.031  17.245  0.00  0.00    +0.000 A 
ATOM      6  N   UNL     1       5.053   7.024  17.033  0.00  0.00    +0.000 NA
ATOM      7  N   UNL     1       6.220   6.792  16.369  0.00  0.00    +0.000 N 
ATOM      8  C   UNL     1       6.640   5.574  15.882  0.00  0.00    +0.000 A 
ATOM      9  O   UNL     1       7.702   5.419  15.296  0.00  0.00    +0.000 OA
ATOM     10  C   UNL     1       5.676   4.408  16.129  0.00  0.00    +0.000 A 
ATOM     11  O   UNL     1       5.932   3.274  15.745  0.00  0.00    +0.000 OA
ATOM     12  H   UNL     1       6.826   7.591  16.222  0.00  0.00    +0.000 HD
ENDROOT
BRANCH   1  16
ATOM     13  C   UNL     1       1.191   9.175  20.058  0.00  0.00    +0.000 A 
ATOM     14  C   UNL     1       1.551   7.991  20.690  0.00  0.00    +0.000 A 
ATOM     15  C   UNL     1       2.164   6.957  19.973  0.00  0.00    +0.000 A 
ATOM     16  C   UNL     1       2.414   7.057  18.596  0.00  0.00    +0.000 A 
ATOM     17  C   UNL     1       2.017   8.255  17.974  0.00  0.00    +0.000 A 
ATOM     18  C   UNL     1       1.419   9.304  18.692  0.00  0.00    +0.000 A 
BRANCH  13  20
ATOM     19  C   UNL     1       0.057   9.619  22.084  0.00  0.00    +0.000 C 
ATOM     20  O   UNL     1       0.598  10.107  20.862  0.00  0.00    +0.000 OA
ENDBRANCH  13  20
ENDBRANCH   1  16
TORSDOF 2
ENDMDL
MODEL 2
REMARK VINA RESULT:      -7.1      0.215      1.118
REMARK  Name = 
REMARK  3 active torsions:
REMARK  status: ('A' for Active; 'I' for Inactive)
REMARK    1  A    between atoms: C_1  and  O_2
REMARK    2  A    between atoms: O_2  and  C_3
REMARK    3  A    between atoms: C_6  and  N_7
REMARK                            x       y       z     vdW  Elec       q    Type
REMARK                         _______ _______ _______ _____ _____    ______ ____
ROOT
ATOM      1  N   UNL     1       3.028   6.018  17.858  0.00  0.00    +0.000 N 
ATOM      2  C   UNL     1       2.423   4.683  17.860  0.00  0.00    +0.000 C 
ATOM      3  C   UNL     1       3.473   3.815  17.159  0.00  0.00    +0.000 C 
ATOM      4  N   UNL     1       4.526   4.728  16.792  0.00  0.00    +0.000 N 
ATOM      5  C   UNL     1       4.251   6.010  17.215  0.00  0.00    +0.000 A 
ATOM      6  N   UNL     1       5.061   6.994  16.984  0.00  0.00    +0.000 NA
ATOM      7  N   UNL     1       6.223   6.742  16.317  0.00  0.00    +0.000 N 
ATOM      8  C   UNL     1       6.631   5.514  15.847  0.00  0.00    +0.000 A 
ATOM      9  O   UNL     1       7.688   5.342  15.258  0.00  0.00    +0.000 OA
ATOM     10  C   UNL     1       5.659   4.359  16.116  0.00  0.00    +0.000 A 
ATOM     11  O   UNL     1       5.903   3.218  15.748  0.00  0.00    +0.000 OA
ATOM     12  H   UNL     1       6.834   7.534  16.155  0.00  0.00    +0.000 HD
ENDROOT
BRANCH   1  16
ATOM     13  C   UNL     1       1.197   9.211  19.980  0.00  0.00    +0.000 A 
ATOM     14  C   UNL     1       1.443   9.312  18.616  0.00  0.00    +0.000 A 
ATOM     15  C   UNL     1       2.036   8.255  17.918  0.00  0.00    +0.000 A 
ATOM     16  C   UNL     1       2.430   7.071  18.559  0.00  0.00    +0.000 A 
ATOM     17  C   UNL     1       2.195   7.003  19.944  0.00  0.00    +0.000 A 
ATOM     18  C   UNL     1       1.581   8.053  20.648  0.00  0.00    +0.000 A 
BRANCH  13  20
ATOM     19  C   UNL     1      -0.380  10.046  21.530  0.00  0.00    +0.000 C 
ATOM     20  O   UNL     1       0.617  10.308  20.550  0.00  0.00    +0.000 OA
ENDBRANCH  13  20
ENDBRANCH   1  16
TORSDOF 2
ENDMDL
MODEL 3
REMARK VINA RESULT:      -6.9      3.442      4.327
REMARK  Name = 
REMARK  3 active torsions:
REMARK  status: ('A' for Active; 'I' for Inactive)
REMARK    1  A    between atoms: C_1  and  O_2
REMARK    2  A    between atoms: O_2  and  C_3
REMARK    3  A    between atoms: C_6  and  N_7
REMARK                            x       y       z     vdW  Elec       q    Type
REMARK                         _______ _______ _______ _____ _____    ______ ____
ROOT
ATOM      1  N   UNL     1       5.376   4.758  17.283  0.00  0.00    +0.000 N 
ATOM      2  C   UNL     1       6.337   5.730  17.813  0.00  0.00    +0.000 C 
ATOM      3  C   UNL     1       7.253   6.011  16.617  0.00  0.00    +0.000 C 
ATOM      4  N   UNL     1       6.766   5.156  15.565  0.00  0.00    +0.000 N 
ATOM      5  C   UNL     1       5.663   4.436  15.971  0.00  0.00    +0.000 A 
ATOM      6  N   UNL     1       5.068   3.598  15.184  0.00  0.00    +0.000 NA
ATOM      7  N   UNL     1       5.541   3.442  13.915  0.00  0.00    +0.000 N 
ATOM      8  C   UNL     1       6.622   4.100  13.372  0.00  0.00    +0.000 A 
ATOM      9  O   UNL     1       7.003   3.927  12.224  0.00  0.00    +0.000 OA
ATOM     10  C   UNL     1       7.327   5.082  14.317  0.00  0.00    +0.000 A 
ATOM     11  O   UNL     1       8.302   5.728  13.958  0.00  0.00    +0.000 OA
ATOM     12  H   UNL     1       5.050   2.780  13.325  0.00  0.00    +0.000 HD
ENDROOT
BRANCH   1  16
ATOM     13  C   UNL     1       2.014   3.587  19.601  0.00  0.00    +0.000 A 
ATOM     14  C   UNL     1       3.283   3.104  19.895  0.00  0.00    +0.000 A 
ATOM     15  C   UNL     1       4.390   3.499  19.136  0.00  0.00    +0.000 A 
ATOM     16  C   UNL     1       4.266   4.368  18.042  0.00  0.00    +0.000 A 
ATOM     17  C   UNL     1       2.968   4.823  17.749  0.00  0.00    +0.000 A 
ATOM     18  C   UNL     1       1.855   4.445  18.519  0.00  0.00    +0.000 A 
BRANCH  13  20
ATOM     19  C   UNL     1       1.422   2.613  21.672  0.00  0.00    +0.000 C 
ATOM     20  O   UNL     1       1.013   3.125  20.410  0.00  0.00    +0.000 OA
ENDBRANCH  13  20
ENDBRANCH   1  16
TORSDOF 2
ENDMDL
MODEL 4
REMARK VINA RESULT:      -6.9      2.618      6.695
REMARK  Name = 
REMARK  3 active torsions:
REMARK  status: ('A' for Active; 'I' for Inactive)
REMARK    1  A    between atoms: C_1  and  O_2
REMARK    2  A    between atoms: O_2  and  C_3
REMARK    3  A    between atoms: C_6  and  N_7
REMARK                            x       y       z     vdW  Elec       q    Type
REMARK                         _______ _______ _______ _____ _____    ______ ____
ROOT
ATOM      1  N   UNL     1       4.234   3.841  17.792  0.00  0.00    +0.000 N 
ATOM      2  C   UNL     1       3.796   2.447  17.907  0.00  0.00    +0.000 C 
ATOM      3  C   UNL     1       2.657   2.515  18.929  0.00  0.00    +0.000 C 
ATOM      4  N   UNL     1       2.591   3.900  19.322  0.00  0.00    +0.000 N 
ATOM      5  C   UNL     1       3.516   4.661  18.642  0.00  0.00    +0.000 A 
ATOM      6  N   UNL     1       3.636   5.934  18.846  0.00  0.00    +0.000 NA
ATOM      7  N   UNL     1       2.810   6.532  19.750  0.00  0.00    +0.000 N 
ATOM      8  C   UNL     1       1.836   5.901  20.491  0.00  0.00    +0.000 A 
ATOM      9  O   UNL     1       1.117   6.487  21.287  0.00  0.00    +0.000 OA
ATOM     10  C   UNL     1       1.711   4.392  20.249  0.00  0.00    +0.000 A 
ATOM     11  O   UNL     1       0.885   3.714  20.847  0.00  0.00    +0.000 OA
ATOM     12  H   UNL     1       2.929   7.530  19.884  0.00  0.00    +0.000 HD
ENDROOT
BRANCH   1  16
ATOM     13  C   UNL     1       7.086   4.959  14.848  0.00  0.00    +0.000 A 
ATOM     14  C   UNL     1       7.424   4.942  16.195  0.00  0.00    +0.000 A 
ATOM     15  C   UNL     1       6.486   4.563  17.162  0.00  0.00    +0.000 A 
ATOM     16  C   UNL     1       5.170   4.215  16.822  0.00  0.00    +0.000 A 
ATOM     17  C   UNL     1       4.845   4.265  15.454  0.00  0.00    +0.000 A 
ATOM     18  C   UNL     1       5.788   4.625  14.477  0.00  0.00    +0.000 A 
BRANCH  13  20
ATOM     19  C   UNL     1       7.811   5.211  12.613  0.00  0.00    +0.000 C 
ATOM     20  O   UNL     1       8.084   5.350  14.002  0.00  0.00    +0.000 OA
ENDBRANCH  13  20
ENDBRANCH   1  16
TORSDOF 2
ENDMDL
MODEL 5
REMARK VINA RESULT:      -6.8      2.620      6.738
REMARK  Name = 
REMARK  3 active torsions:
REMARK  status: ('A' for Active; 'I' for Inactive)
REMARK    1  A    between atoms: C_1  and  O_2
REMARK    2  A    between atoms: O_2  and  C_3
REMARK    3  A    between atoms: C_6  and  N_7
REMARK                            x       y       z     vdW  Elec       q    Type
REMARK                         _______ _______ _______ _____ _____    ______ ____
ROOT
ATOM      1  N   UNL     1       4.228   3.853  17.780  0.00  0.00    +0.000 N 
ATOM      2  C   UNL     1       3.748   2.470  17.841  0.00  0.00    +0.000 C 
ATOM      3  C   UNL     1       2.585   2.541  18.835  0.00  0.00    +0.000 C 
ATOM      4  N   UNL     1       2.549   3.914  19.269  0.00  0.00    +0.000 N 
ATOM      5  C   UNL     1       3.513   4.668  18.636  0.00  0.00    +0.000 A 
ATOM      6  N   UNL     1       3.664   5.930  18.883  0.00  0.00    +0.000 NA
ATOM      7  N   UNL     1       2.831   6.525  19.783  0.00  0.00    +0.000 N 
ATOM      8  C   UNL     1       1.821   5.901  20.480  0.00  0.00    +0.000 A 
ATOM      9  O   UNL     1       1.098   6.483  21.275  0.00  0.00    +0.000 OA
ATOM     10  C   UNL     1       1.659   4.404  20.189  0.00  0.00    +0.000 A 
ATOM     11  O   UNL     1       0.799   3.733  20.744  0.00  0.00    +0.000 OA
ATOM     12  H   UNL     1       2.975   7.515  19.951  0.00  0.00    +0.000 HD
ENDROOT
BRANCH   1  16
ATOM     13  C   UNL     1       7.170   5.012  14.941  0.00  0.00    +0.000 A 
ATOM     14  C   UNL     1       5.872   4.718  14.541  0.00  0.00    +0.000 A 
ATOM     15  C   UNL     1       4.903   4.347  15.479  0.00  0.00    +0.000 A 
ATOM     16  C   UNL     1       5.200   4.229  16.845  0.00  0.00    +0.000 A 
ATOM     17  C   UNL     1       6.527   4.506  17.222  0.00  0.00    +0.000 A 
ATOM     18  C   UNL     1       7.500   4.898  16.287  0.00  0.00    +0.000 A 
BRANCH  13  20
ATOM     19  C   UNL     1       7.613   5.003  12.620  0.00  0.00    +0.000 C 
ATOM     20  O   UNL     1       8.026   5.357  13.934  0.00  0.00    +0.000 OA
ENDBRANCH  13  20
ENDBRANCH   1  16
TORSDOF 2
ENDMDL
MODEL 6
REMARK VINA RESULT:      -6.7      1.806      6.700
REMARK  Name = 
REMARK  3 active torsions:
REMARK  status: ('A' for Active; 'I' for Inactive)
REMARK    1  A    between atoms: C_1  and  O_2
REMARK    2  A    between atoms: O_2  and  C_3
REMARK    3  A    between atoms: C_6  and  N_7
REMARK                            x       y       z     vdW  Elec       q    Type
REMARK                         _______ _______ _______ _____ _____    ______ ____
ROOT
ATOM      1  N   UNL     1       2.804   6.925  18.797  0.00  0.00    +0.000 N 
ATOM      2  C   UNL     1       2.455   6.375  20.110  0.00  0.00    +0.000 C 
ATOM      3  C   UNL     1       1.518   7.433  20.701  0.00  0.00    +0.000 C 
ATOM      4  N   UNL     1       1.466   8.479  19.712  0.00  0.00    +0.000 N 
ATOM      5  C   UNL     1       2.218   8.161  18.602  0.00  0.00    +0.000 A 
ATOM      6  N   UNL     1       2.318   8.965  17.592  0.00  0.00    +0.000 NA
ATOM      7  N   UNL     1       1.644  10.149  17.628  0.00  0.00    +0.000 N 
ATOM      8  C   UNL     1       0.849  10.591  18.662  0.00  0.00    +0.000 A 
ATOM      9  O   UNL     1       0.261  11.663  18.642  0.00  0.00    +0.000 OA
ATOM     10  C   UNL     1       0.748   9.637  19.858  0.00  0.00    +0.000 A 
ATOM     11  O   UNL     1       0.074   9.913  20.842  0.00  0.00    +0.000 OA
ATOM     12  H   UNL     1       1.742  10.753  16.820  0.00  0.00    +0.000 HD
ENDROOT
BRANCH   1  16
ATOM     13  C   UNL     1       5.028   4.610  16.014  0.00  0.00    +0.000 A 
ATOM     14  C   UNL     1       5.260   5.974  16.151  0.00  0.00    +0.000 A 
ATOM     15  C   UNL     1       4.533   6.732  17.075  0.00  0.00    +0.000 A 
ATOM     16  C   UNL     1       3.532   6.162  17.876  0.00  0.00    +0.000 A 
ATOM     17  C   UNL     1       3.299   4.786  17.701  0.00  0.00    +0.000 A 
ATOM     18  C   UNL     1       4.038   4.016  16.789  0.00  0.00    +0.000 A 
BRANCH  13  20
ATOM     19  C   UNL     1       6.965   4.678  14.660  0.00  0.00    +0.000 C 
ATOM     20  O   UNL     1       5.797   3.980  15.077  0.00  0.00    +0.000 OA
ENDBRANCH  13  20
ENDBRANCH   1  16
TORSDOF 2
ENDMDL
MODEL 7
REMARK VINA RESULT:      -6.7      3.330      4.438
REMARK  Name = 
REMARK  3 active torsions:
REMARK  status: ('A' for Active; 'I' for Inactive)
REMARK    1  A    between atoms: C_1  and  O_2
REMARK    2  A    between atoms: O_2  and  C_3
REMARK    3  A    between atoms: C_6  and  N_7
REMARK                            x       y       z     vdW  Elec       q    Type
REMARK                         _______ _______ _______ _____ _____    ______ ____
ROOT
ATOM      1  N   UNL     1       5.463   4.736  17.388  0.00  0.00    +0.000 N 
ATOM      2  C   UNL     1       6.430   5.721  17.879  0.00  0.00    +0.000 C 
ATOM      3  C   UNL     1       7.304   6.005  16.653  0.00  0.00    +0.000 C 
ATOM      4  N   UNL     1       6.791   5.139  15.622  0.00  0.00    +0.000 N 
ATOM      5  C   UNL     1       5.710   4.411  16.068  0.00  0.00    +0.000 A 
ATOM      6  N   UNL     1       5.098   3.562  15.305  0.00  0.00    +0.000 NA
ATOM      7  N   UNL     1       5.530   3.403  14.022  0.00  0.00    +0.000 N 
ATOM      8  C   UNL     1       6.586   4.069  13.441  0.00  0.00    +0.000 A 
ATOM      9  O   UNL     1       6.930   3.893  12.282  0.00  0.00    +0.000 OA
ATOM     10  C   UNL     1       7.311   5.063  14.357  0.00  0.00    +0.000 A 
ATOM     11  O   UNL     1       8.267   5.717  13.961  0.00  0.00    +0.000 OA
ATOM     12  H   UNL     1       5.027   2.733  13.452  0.00  0.00    +0.000 HD
ENDROOT
BRANCH   1  16
ATOM     13  C   UNL     1       2.176   3.525  19.791  0.00  0.00    +0.000 A 
ATOM     14  C   UNL     1       2.063   4.605  18.925  0.00  0.00    +0.000 A 
ATOM     15  C   UNL     1       3.144   4.996  18.127  0.00  0.00    +0.000 A 
ATOM     16  C   UNL     1       4.383   4.340  18.185  0.00  0.00    +0.000 A 
ATOM     17  C   UNL     1       4.480   3.266  19.088  0.00  0.00    +0.000 A 
ATOM     18  C   UNL     1       3.393   2.856  19.878  0.00  0.00    +0.000 A 
BRANCH  13  20
ATOM     19  C   UNL     1       1.277   2.695  21.813  0.00  0.00    +0.000 C 
ATOM     20  O   UNL     1       1.055   3.243  20.520  0.00  0.00    +0.000 OA
ENDBRANCH  13  20
ENDBRANCH   1  16
TORSDOF 2
ENDMDL
MODEL 8
REMARK VINA RESULT:      -6.7      1.760      6.637
REMARK  Name = 
REMARK  3 active torsions:
REMARK  status: ('A' for Active; 'I' for Inactive)
REMARK    1  A    between atoms: C_1  and  O_2
REMARK    2  A    between atoms: O_2  and  C_3
REMARK    3  A    between atoms: C_6  and  N_7
REMARK                            x       y       z     vdW  Elec       q    Type
REMARK                         _______ _______ _______ _____ _____    ______ ____
ROOT
ATOM      1  N   UNL     1       2.926   6.771  18.805  0.00  0.00    +0.000 N 
ATOM      2  C   UNL     1       2.553   6.216  20.109  0.00  0.00    +0.000 C 
ATOM      3  C   UNL     1       1.587   7.260  20.678  0.00  0.00    +0.000 C 
ATOM      4  N   UNL     1       1.544   8.306  19.687  0.00  0.00    +0.000 N 
ATOM      5  C   UNL     1       2.327   7.999  18.596  0.00  0.00    +0.000 A 
ATOM      6  N   UNL     1       2.441   8.804  17.589  0.00  0.00    +0.000 NA
ATOM      7  N   UNL     1       1.750   9.979  17.609  0.00  0.00    +0.000 N 
ATOM      8  C   UNL     1       0.924  10.410  18.623  0.00  0.00    +0.000 A 
ATOM      9  O   UNL     1       0.322  11.473  18.589  0.00  0.00    +0.000 OA
ATOM     10  C   UNL     1       0.807   9.453  19.817  0.00  0.00    +0.000 A 
ATOM     11  O   UNL     1       0.107   9.720  20.784  0.00  0.00    +0.000 OA
ATOM     12  H   UNL     1       1.859  10.585  16.803  0.00  0.00    +0.000 HD
ENDROOT
BRANCH   1  16
ATOM     13  C   UNL     1       5.219   4.489  16.051  0.00  0.00    +0.000 A 
ATOM     14  C   UNL     1       4.176   3.907  16.762  0.00  0.00    +0.000 A 
ATOM     15  C   UNL     1       3.416   4.664  17.661  0.00  0.00    +0.000 A 
ATOM     16  C   UNL     1       3.686   6.019  17.902  0.00  0.00    +0.000 A 
ATOM     17  C   UNL     1       4.763   6.578  17.190  0.00  0.00    +0.000 A 
ATOM     18  C   UNL     1       5.517   5.829  16.272  0.00  0.00    +0.000 A 
BRANCH  13  20
ATOM     19  C   UNL     1       6.284   4.205  13.960  0.00  0.00    +0.000 C 
ATOM     20  O   UNL     1       5.889   3.648  15.208  0.00  0.00    +0.000 OA
ENDBRANCH  13  20
ENDBRANCH   1  16
TORSDOF 2
ENDMDL
MODEL 9
REMARK VINA RESULT:      -6.5      2.897      4.186
REMARK  Name = 
REMARK  3 active torsions:
REMARK  status: ('A' for Active; 'I' for Inactive)
REMARK    1  A    between atoms: C_1  and  O_2
REMARK    2  A    between atoms: O_2  and  C_3
REMARK    3  A    between atoms: C_6  and  N_7
REMARK                            x       y       z     vdW  Elec       q    Type
REMARK                         _______ _______ _______ _____ _____    ______ ____
ROOT
ATOM      1  N   UNL     1       3.060   6.310  19.078  0.00  0.00    +0.000 N 
ATOM      2  C   UNL     1       4.066   6.007  18.056  0.00  0.00    +0.000 C 
ATOM      3  C   UNL     1       4.447   4.553  18.353  0.00  0.00    +0.000 C 
ATOM      4  N   UNL     1       3.676   4.195  19.516  0.00  0.00    +0.000 N 
ATOM      5  C   UNL     1       2.865   5.233  19.921  0.00  0.00    +0.000 A 
ATOM      6  N   UNL     1       2.090   5.131  20.953  0.00  0.00    +0.000 NA
ATOM      7  N   UNL     1       2.070   3.955  21.643  0.00  0.00    +0.000 N 
ATOM      8  C   UNL     1       2.815   2.836  21.347  0.00  0.00    +0.000 A 
ATOM      9  O   UNL     1       2.755   1.802  21.997  0.00  0.00    +0.000 OA
ATOM     10  C   UNL     1       3.738   2.972  20.129  0.00  0.00    +0.000 A 
ATOM     11  O   UNL     1       4.453   2.050  19.763  0.00  0.00    +0.000 OA
ATOM     12  H   UNL     1       1.450   3.909  22.444  0.00  0.00    +0.000 HD
ENDROOT
BRANCH   1  16
ATOM     13  C   UNL     1       0.881   9.955  18.952  0.00  0.00    +0.000 A 
ATOM     14  C   UNL     1       1.517   9.468  17.817  0.00  0.00    +0.000 A 
ATOM     15  C   UNL     1       2.226   8.262  17.859  0.00  0.00    +0.000 A 
ATOM     16  C   UNL     1       2.347   7.514  19.039  0.00  0.00    +0.000 A 
ATOM     17  C   UNL     1       1.716   8.041  20.181  0.00  0.00    +0.000 A 
ATOM     18  C   UNL     1       0.986   9.241  20.141  0.00  0.00    +0.000 A 
BRANCH  13  20
ATOM     19  C   UNL     1      -1.132  11.050  18.371  0.00  0.00    +0.000 C 
ATOM     20  O   UNL     1       0.225  11.142  18.787  0.00  0.00    +0.000 OA
ENDBRANCH  13  20
ENDBRANCH   1  16
TORSDOF 2
ENDMDL
