MODEL 1
REMARK VINA RESULT:      -9.5      0.000      0.000
REMARK  Name = 
REMARK  3 active torsions:
REMARK  status: ('A' for Active; 'I' for Inactive)
REMARK    1  A    between atoms: C_1  and  C_2
REMARK    2  A    between atoms: C_5  and  C_6
REMARK    3  A    between atoms: N_11  and  C_12
REMARK                            x       y       z     vdW  Elec       q    Type
REMARK                         _______ _______ _______ _____ _____    ______ ____
ROOT
ATOM      1  C   UNL     1       7.189   4.467  16.343  0.00  0.00    +0.000 C 
ATOM      2  O   UNL     1       8.270   4.215  16.877  0.00  0.00    +0.000 OA
ATOM      3  N   UNL     1       6.062   4.782  17.114  0.00  0.00    +0.000 N 
ATOM      4  C   UNL     1       6.149   4.665  18.572  0.00  0.00    +0.000 C 
ATOM      5  C   UNL     1       5.243   5.684  19.285  0.00  0.00    +0.000 C 
ATOM      6  N   UNL     1       3.835   5.684  18.845  0.00  0.00    +0.000 NA
ATOM      7  C   UNL     1       3.816   5.900  17.387  0.00  0.00    +0.000 C 
ATOM      8  C   UNL     1       4.719   4.969  16.555  0.00  0.00    +0.000 C 
ENDROOT
BRANCH   6   9
ATOM      9  C   UNL     1       2.935   4.619  19.356  0.00  0.00    +0.000 C 
ATOM     10  C   UNL     1       1.937   4.122  18.265  0.00  0.00    +0.000 C 
ATOM     11  C   UNL     1       1.083   2.952  18.767  0.00  0.00    +0.000 C 
ATOM     12  C   UNL     1       2.001   1.781  19.139  0.00  0.00    +0.000 C 
ATOM     13  C   UNL     1       2.975   2.212  20.243  0.00  0.00    +0.000 C 
ATOM     14  C   UNL     1       2.170   2.645  21.478  0.00  0.00    +0.000 C 
ATOM     15  C   UNL     1       1.253   3.821  21.116  0.00  0.00    +0.000 C 
ATOM     16  C   UNL     1       0.288   3.410  19.998  0.00  0.00    +0.000 C 
ATOM     17  C   UNL     1       2.115   4.992  20.627  0.00  0.00    +0.000 C 
ATOM     18  C   UNL     1       3.827   3.394  19.739  0.00  0.00    +0.000 C 
ENDBRANCH   6   9
BRANCH   1  23
ATOM     19  C   UNL     1       8.262   6.121  11.923  0.00  0.00    +0.000 C 
ATOM     20  C   UNL     1       7.530   5.254  12.866  0.00  0.00    +0.000 A 
ATOM     21  C   UNL     1       6.686   4.176  12.717  0.00  0.00    +0.000 A 
ATOM     22  C   UNL     1       6.349   3.748  14.024  0.00  0.00    +0.000 A 
ATOM     23  C   UNL     1       7.062   4.550  14.900  0.00  0.00    +0.000 A 
ATOM     24  O   UNL     1       7.721   5.516  14.189  0.00  0.00    +0.000 OA
ENDBRANCH   1  23
TORSDOF 2
ENDMDL
MODEL 2
REMARK VINA RESULT:      -9.4      0.124      1.527
REMARK  Name = 
REMARK  3 active torsions:
REMARK  status: ('A' for Active; 'I' for Inactive)
REMARK    1  A    between atoms: C_1  and  C_2
REMARK    2  A    between atoms: C_5  and  C_6
REMARK    3  A    between atoms: N_11  and  C_12
REMARK                            x       y       z     vdW  Elec       q    Type
REMARK                         _______ _______ _______ _____ _____    ______ ____
ROOT
ATOM      1  C   UNL     1       7.199   4.452  16.349  0.00  0.00    +0.000 C 
ATOM      2  O   UNL     1       8.291   4.226  16.873  0.00  0.00    +0.000 OA
ATOM      3  N   UNL     1       6.072   4.738  17.132  0.00  0.00    +0.000 N 
ATOM      4  C   UNL     1       6.176   4.621  18.589  0.00  0.00    +0.000 C 
ATOM      5  C   UNL     1       5.252   5.617  19.312  0.00  0.00    +0.000 C 
ATOM      6  N   UNL     1       3.840   5.583  18.885  0.00  0.00    +0.000 NA
ATOM      7  C   UNL     1       3.802   5.800  17.428  0.00  0.00    +0.000 C 
ATOM      8  C   UNL     1       4.719   4.893  16.586  0.00  0.00    +0.000 C 
ENDROOT
BRANCH   6   9
ATOM      9  C   UNL     1       2.971   4.495  19.403  0.00  0.00    +0.000 C 
ATOM     10  C   UNL     1       2.081   4.973  20.592  0.00  0.00    +0.000 C 
ATOM     11  C   UNL     1       1.113   3.876  21.052  0.00  0.00    +0.000 C 
ATOM     12  C   UNL     1       0.187   3.501  19.889  0.00  0.00    +0.000 C 
ATOM     13  C   UNL     1       1.018   2.984  18.707  0.00  0.00    +0.000 C 
ATOM     14  C   UNL     1       1.807   1.744  19.156  0.00  0.00    +0.000 C 
ATOM     15  C   UNL     1       2.741   2.113  20.316  0.00  0.00    +0.000 C 
ATOM     16  C   UNL     1       1.924   2.651  21.497  0.00  0.00    +0.000 C 
ATOM     17  C   UNL     1       3.715   3.201  19.845  0.00  0.00    +0.000 C 
ATOM     18  C   UNL     1       1.997   4.084  18.251  0.00  0.00    +0.000 C 
ENDBRANCH   6   9
BRANCH   1  23
ATOM     19  C   UNL     1       8.227   6.100  11.917  0.00  0.00    +0.000 C 
ATOM     20  C   UNL     1       7.504   5.235  12.869  0.00  0.00    +0.000 A 
ATOM     21  C   UNL     1       6.656   4.160  12.730  0.00  0.00    +0.000 A 
ATOM     22  C   UNL     1       6.332   3.733  14.041  0.00  0.00    +0.000 A 
ATOM     23  C   UNL     1       7.056   4.534  14.908  0.00  0.00    +0.000 A 
ATOM     24  O   UNL     1       7.710   5.498  14.189  0.00  0.00    +0.000 OA
ENDBRANCH   1  23
TORSDOF 2
ENDMDL
MODEL 3
REMARK VINA RESULT:      -9.3      0.682      1.152
REMARK  Name = 
REMARK  3 active torsions:
REMARK  status: ('A' for Active; 'I' for Inactive)
REMARK    1  A    between atoms: C_1  and  C_2
REMARK    2  A    between atoms: C_5  and  C_6
REMARK    3  A    between atoms: N_11  and  C_12
REMARK                            x       y       z     vdW  Elec       q    Type
REMARK                         _______ _______ _______ _____ _____    ______ ____
ROOT
ATOM      1  C   UNL     1       7.208   4.422  16.318  0.00  0.00    +0.000 C 
ATOM      2  O   UNL     1       8.288   4.210  16.871  0.00  0.00    +0.000 OA
ATOM      3  N   UNL     1       6.070   4.751  17.067  0.00  0.00    +0.000 N 
ATOM      4  C   UNL     1       6.145   4.697  18.528  0.00  0.00    +0.000 C 
ATOM      5  C   UNL     1       5.217   5.731  19.190  0.00  0.00    +0.000 C 
ATOM      6  N   UNL     1       3.813   5.690  18.739  0.00  0.00    +0.000 NA
ATOM      7  C   UNL     1       3.804   5.845  17.274  0.00  0.00    +0.000 C 
ATOM      8  C   UNL     1       4.729   4.894  16.489  0.00  0.00    +0.000 C 
ENDROOT
BRANCH   6   9
ATOM      9  C   UNL     1       2.925   4.634  19.287  0.00  0.00    +0.000 C 
ATOM     10  C   UNL     1       1.924   4.098  18.218  0.00  0.00    +0.000 C 
ATOM     11  C   UNL     1       1.082   2.936  18.760  0.00  0.00    +0.000 C 
ATOM     12  C   UNL     1       2.012   1.783  19.158  0.00  0.00    +0.000 C 
ATOM     13  C   UNL     1       2.991   2.253  20.243  0.00  0.00    +0.000 C 
ATOM     14  C   UNL     1       2.191   2.715  21.471  0.00  0.00    +0.000 C 
ATOM     15  C   UNL     1       1.262   3.874  21.081  0.00  0.00    +0.000 C 
ATOM     16  C   UNL     1       0.292   3.423  19.983  0.00  0.00    +0.000 C 
ATOM     17  C   UNL     1       2.112   5.036  20.552  0.00  0.00    +0.000 C 
ATOM     18  C   UNL     1       3.830   3.427  19.699  0.00  0.00    +0.000 C 
ENDBRANCH   6   9
BRANCH   1  23
ATOM     19  C   UNL     1       5.439   3.049  12.028  0.00  0.00    +0.000 C 
ATOM     20  C   UNL     1       6.302   3.870  12.898  0.00  0.00    +0.000 A 
ATOM     21  C   UNL     1       7.089   4.981  12.691  0.00  0.00    +0.000 A 
ATOM     22  C   UNL     1       7.633   5.327  13.952  0.00  0.00    +0.000 A 
ATOM     23  C   UNL     1       7.092   4.443  14.872  0.00  0.00    +0.000 A 
ATOM     24  O   UNL     1       6.341   3.510  14.211  0.00  0.00    +0.000 OA
ENDBRANCH   1  23
TORSDOF 2
ENDMDL
MODEL 4
REMARK VINA RESULT:      -9.3      0.127      1.536
REMARK  Name = 
REMARK  3 active torsions:
REMARK  status: ('A' for Active; 'I' for Inactive)
REMARK    1  A    between atoms: C_1  and  C_2
REMARK    2  A    between atoms: C_5  and  C_6
REMARK    3  A    between atoms: N_11  and  C_12
REMARK                            x       y       z     vdW  Elec       q    Type
REMARK                         _______ _______ _______ _____ _____    ______ ____
ROOT
ATOM      1  C   UNL     1       7.205   4.453  16.274  0.00  0.00    +0.000 C 
ATOM      2  O   UNL     1       8.287   4.199  16.807  0.00  0.00    +0.000 OA
ATOM      3  N   UNL     1       6.071   4.738  17.047  0.00  0.00    +0.000 N 
ATOM      4  C   UNL     1       6.152   4.587  18.501  0.00  0.00    +0.000 C 
ATOM      5  C   UNL     1       5.232   5.579  19.234  0.00  0.00    +0.000 C 
ATOM      6  N   UNL     1       3.826   5.576  18.786  0.00  0.00    +0.000 NA
ATOM      7  C   UNL     1       3.813   5.827  17.334  0.00  0.00    +0.000 C 
ATOM      8  C   UNL     1       4.729   4.926  16.485  0.00  0.00    +0.000 C 
ENDROOT
BRANCH   6   9
ATOM      9  C   UNL     1       2.934   4.490  19.266  0.00  0.00    +0.000 C 
ATOM     10  C   UNL     1       3.736   3.235  19.729  0.00  0.00    +0.000 C 
ATOM     11  C   UNL     1       2.816   2.159  20.320  0.00  0.00    +0.000 C 
ATOM     12  C   UNL     1       2.090   2.734  21.542  0.00  0.00    +0.000 C 
ATOM     13  C   UNL     1       1.251   3.950  21.127  0.00  0.00    +0.000 C 
ATOM     14  C   UNL     1       0.219   3.509  20.076  0.00  0.00    +0.000 C 
ATOM     15  C   UNL     1       0.939   2.939  18.847  0.00  0.00    +0.000 C 
ATOM     16  C   UNL     1       1.797   1.735  19.253  0.00  0.00    +0.000 C 
ATOM     17  C   UNL     1       1.847   4.024  18.254  0.00  0.00    +0.000 C 
ATOM     18  C   UNL     1       2.176   5.026  20.524  0.00  0.00    +0.000 C 
ENDBRANCH   6   9
BRANCH   1  23
ATOM     19  C   UNL     1       8.330   6.178  11.894  0.00  0.00    +0.000 C 
ATOM     20  C   UNL     1       7.576   5.308  12.816  0.00  0.00    +0.000 A 
ATOM     21  C   UNL     1       6.709   4.253  12.641  0.00  0.00    +0.000 A 
ATOM     22  C   UNL     1       6.357   3.804  13.938  0.00  0.00    +0.000 A 
ATOM     23  C   UNL     1       7.085   4.571  14.833  0.00  0.00    +0.000 A 
ATOM     24  O   UNL     1       7.768   5.537  14.145  0.00  0.00    +0.000 OA
ENDBRANCH   1  23
TORSDOF 2
ENDMDL
MODEL 5
REMARK VINA RESULT:      -9.2      0.700      1.923
REMARK  Name = 
REMARK  3 active torsions:
REMARK  status: ('A' for Active; 'I' for Inactive)
REMARK    1  A    between atoms: C_1  and  C_2
REMARK    2  A    between atoms: C_5  and  C_6
REMARK    3  A    between atoms: N_11  and  C_12
REMARK                            x       y       z     vdW  Elec       q    Type
REMARK                         _______ _______ _______ _____ _____    ______ ____
ROOT
ATOM      1  C   UNL     1       7.221   4.402  16.307  0.00  0.00    +0.000 C 
ATOM      2  O   UNL     1       8.314   4.217  16.844  0.00  0.00    +0.000 OA
ATOM      3  N   UNL     1       6.085   4.700  17.071  0.00  0.00    +0.000 N 
ATOM      4  C   UNL     1       6.181   4.645  18.532  0.00  0.00    +0.000 C 
ATOM      5  C   UNL     1       5.236   5.652  19.209  0.00  0.00    +0.000 C 
ATOM      6  N   UNL     1       3.828   5.576  18.776  0.00  0.00    +0.000 NA
ATOM      7  C   UNL     1       3.794   5.733  17.311  0.00  0.00    +0.000 C 
ATOM      8  C   UNL     1       4.733   4.809  16.512  0.00  0.00    +0.000 C 
ENDROOT
BRANCH   6   9
ATOM      9  C   UNL     1       2.975   4.496  19.334  0.00  0.00    +0.000 C 
ATOM     10  C   UNL     1       2.123   4.987  20.544  0.00  0.00    +0.000 C 
ATOM     11  C   UNL     1       1.169   3.897  21.048  0.00  0.00    +0.000 C 
ATOM     12  C   UNL     1       0.207   3.509  19.918  0.00  0.00    +0.000 C 
ATOM     13  C   UNL     1       1.000   2.977  18.717  0.00  0.00    +0.000 C 
ATOM     14  C   UNL     1       1.803   1.742  19.156  0.00  0.00    +0.000 C 
ATOM     15  C   UNL     1       2.773   2.125  20.282  0.00  0.00    +0.000 C 
ATOM     16  C   UNL     1       1.993   2.677  21.481  0.00  0.00    +0.000 C 
ATOM     17  C   UNL     1       3.731   3.206  19.767  0.00  0.00    +0.000 C 
ATOM     18  C   UNL     1       1.965   4.071  18.218  0.00  0.00    +0.000 C 
ENDBRANCH   6   9
BRANCH   1  23
ATOM     19  C   UNL     1       5.391   3.029  12.042  0.00  0.00    +0.000 C 
ATOM     20  C   UNL     1       6.267   3.849  12.900  0.00  0.00    +0.000 A 
ATOM     21  C   UNL     1       7.051   4.959  12.681  0.00  0.00    +0.000 A 
ATOM     22  C   UNL     1       7.614   5.305  13.934  0.00  0.00    +0.000 A 
ATOM     23  C   UNL     1       7.085   4.423  14.863  0.00  0.00    +0.000 A 
ATOM     24  O   UNL     1       6.324   3.490  14.212  0.00  0.00    +0.000 OA
ENDBRANCH   1  23
TORSDOF 2
ENDMDL
MODEL 6
REMARK VINA RESULT:      -9.1      0.715      1.904
REMARK  Name = 
REMARK  3 active torsions:
REMARK  status: ('A' for Active; 'I' for Inactive)
REMARK    1  A    between atoms: C_1  and  C_2
REMARK    2  A    between atoms: C_5  and  C_6
REMARK    3  A    between atoms: N_11  and  C_12
REMARK                            x       y       z     vdW  Elec       q    Type
REMARK                         _______ _______ _______ _____ _____    ______ ____
ROOT
ATOM      1  C   UNL     1       7.229   4.391  16.196  0.00  0.00    +0.000 C 
ATOM      2  O   UNL     1       8.318   4.200  16.739  0.00  0.00    +0.000 OA
ATOM      3  N   UNL     1       6.091   4.696  16.955  0.00  0.00    +0.000 N 
ATOM      4  C   UNL     1       6.180   4.642  18.416  0.00  0.00    +0.000 C 
ATOM      5  C   UNL     1       5.238   5.656  19.087  0.00  0.00    +0.000 C 
ATOM      6  N   UNL     1       3.831   5.588  18.648  0.00  0.00    +0.000 NA
ATOM      7  C   UNL     1       3.806   5.744  17.183  0.00  0.00    +0.000 C 
ATOM      8  C   UNL     1       4.742   4.813  16.389  0.00  0.00    +0.000 C 
ENDROOT
BRANCH   6   9
ATOM      9  C   UNL     1       2.969   4.513  19.203  0.00  0.00    +0.000 C 
ATOM     10  C   UNL     1       3.792   3.251  19.604  0.00  0.00    +0.000 C 
ATOM     11  C   UNL     1       2.912   2.187  20.272  0.00  0.00    +0.000 C 
ATOM     12  C   UNL     1       2.292   2.773  21.546  0.00  0.00    +0.000 C 
ATOM     13  C   UNL     1       1.436   3.997  21.195  0.00  0.00    +0.000 C 
ATOM     14  C   UNL     1       0.318   3.564  20.232  0.00  0.00    +0.000 C 
ATOM     15  C   UNL     1       0.931   2.982  18.951  0.00  0.00    +0.000 C 
ATOM     16  C   UNL     1       1.806   1.770  19.291  0.00  0.00    +0.000 C 
ATOM     17  C   UNL     1       1.799   4.055  18.283  0.00  0.00    +0.000 C 
ATOM     18  C   UNL     1       2.320   5.061  20.516  0.00  0.00    +0.000 C 
ENDBRANCH   6   9
BRANCH   1  23
ATOM     19  C   UNL     1       5.389   3.047  11.927  0.00  0.00    +0.000 C 
ATOM     20  C   UNL     1       6.279   3.851  12.786  0.00  0.00    +0.000 A 
ATOM     21  C   UNL     1       7.088   4.943  12.568  0.00  0.00    +0.000 A 
ATOM     22  C   UNL     1       7.652   5.280  13.823  0.00  0.00    +0.000 A 
ATOM     23  C   UNL     1       7.100   4.411  14.751  0.00  0.00    +0.000 A 
ATOM     24  O   UNL     1       6.322   3.493  14.099  0.00  0.00    +0.000 OA
ENDBRANCH   1  23
TORSDOF 2
ENDMDL
MODEL 7
REMARK VINA RESULT:      -7.3      4.376      7.311
REMARK  Name = 
REMARK  3 active torsions:
REMARK  status: ('A' for Active; 'I' for Inactive)
REMARK    1  A    between atoms: C_1  and  C_2
REMARK    2  A    between atoms: C_5  and  C_6
REMARK    3  A    between atoms: N_11  and  C_12
REMARK                            x       y       z     vdW  Elec       q    Type
REMARK                         _______ _______ _______ _____ _____    ______ ____
ROOT
ATOM      1  C   UNL     1       1.363   8.614  20.585  0.00  0.00    +0.000 C 
ATOM      2  O   UNL     1       1.272   8.428  21.799  0.00  0.00    +0.000 OA
ATOM      3  N   UNL     1       1.979   7.666  19.756  0.00  0.00    +0.000 N 
ATOM      4  C   UNL     1       2.645   6.516  20.372  0.00  0.00    +0.000 C 
ATOM      5  C   UNL     1       2.588   5.270  19.472  0.00  0.00    +0.000 C 
ATOM      6  N   UNL     1       3.068   5.472  18.091  0.00  0.00    +0.000 NA
ATOM      7  C   UNL     1       2.293   6.578  17.501  0.00  0.00    +0.000 C 
ATOM      8  C   UNL     1       2.233   7.877  18.327  0.00  0.00    +0.000 C 
ENDROOT
BRANCH   6   9
ATOM      9  C   UNL     1       4.533   5.504  17.850  0.00  0.00    +0.000 C 
ATOM     10  C   UNL     1       5.007   4.307  16.969  0.00  0.00    +0.000 C 
ATOM     11  C   UNL     1       6.502   4.403  16.637  0.00  0.00    +0.000 C 
ATOM     12  C   UNL     1       6.761   5.698  15.857  0.00  0.00    +0.000 C 
ATOM     13  C   UNL     1       6.348   6.909  16.703  0.00  0.00    +0.000 C 
ATOM     14  C   UNL     1       7.173   6.917  18.000  0.00  0.00    +0.000 C 
ATOM     15  C   UNL     1       6.913   5.627  18.790  0.00  0.00    +0.000 C 
ATOM     16  C   UNL     1       7.303   4.407  17.947  0.00  0.00    +0.000 C 
ATOM     17  C   UNL     1       5.419   5.544  19.130  0.00  0.00    +0.000 C 
ATOM     18  C   UNL     1       4.848   6.806  17.044  0.00  0.00    +0.000 C 
ENDBRANCH   6   9
BRANCH   1  23
ATOM     19  C   UNL     1       1.307  12.991  18.522  0.00  0.00    +0.000 C 
ATOM     20  C   UNL     1       0.674  11.742  18.984  0.00  0.00    +0.000 A 
ATOM     21  C   UNL     1      -0.575  11.185  18.819  0.00  0.00    +0.000 A 
ATOM     22  C   UNL     1      -0.544   9.931  19.476  0.00  0.00    +0.000 A 
ATOM     23  C   UNL     1       0.747   9.764  19.950  0.00  0.00    +0.000 A 
ATOM     24  O   UNL     1       1.464  10.906  19.713  0.00  0.00    +0.000 OA
ENDBRANCH   1  23
TORSDOF 2
ENDMDL
MODEL 8
REMARK VINA RESULT:      -7.2      4.459      7.413
REMARK  Name = 
REMARK  3 active torsions:
REMARK  status: ('A' for Active; 'I' for Inactive)
REMARK    1  A    between atoms: C_1  and  C_2
REMARK    2  A    between atoms: C_5  and  C_6
REMARK    3  A    between atoms: N_11  and  C_12
REMARK                            x       y       z     vdW  Elec       q    Type
REMARK                         _______ _______ _______ _____ _____    ______ ____
ROOT
ATOM      1  C   UNL     1       1.261   8.711  20.568  0.00  0.00    +0.000 C 
ATOM      2  O   UNL     1       1.163   8.503  21.778  0.00  0.00    +0.000 OA
ATOM      3  N   UNL     1       1.901   7.788  19.729  0.00  0.00    +0.000 N 
ATOM      4  C   UNL     1       2.582   6.639  20.331  0.00  0.00    +0.000 C 
ATOM      5  C   UNL     1       2.554   5.407  19.410  0.00  0.00    +0.000 C 
ATOM      6  N   UNL     1       3.041   5.641  18.038  0.00  0.00    +0.000 NA
ATOM      7  C   UNL     1       2.252   6.743  17.459  0.00  0.00    +0.000 C 
ATOM      8  C   UNL     1       2.163   8.026  18.306  0.00  0.00    +0.000 C 
ENDROOT
BRANCH   6   9
ATOM      9  C   UNL     1       4.508   5.702  17.809  0.00  0.00    +0.000 C 
ATOM     10  C   UNL     1       5.315   5.508  19.130  0.00  0.00    +0.000 C 
ATOM     11  C   UNL     1       6.826   5.468  18.871  0.00  0.00    +0.000 C 
ATOM     12  C   UNL     1       7.146   4.289  17.944  0.00  0.00    +0.000 C 
ATOM     13  C   UNL     1       6.406   4.458  16.611  0.00  0.00    +0.000 C 
ATOM     14  C   UNL     1       6.858   5.770  15.950  0.00  0.00    +0.000 C 
ATOM     15  C   UNL     1       6.535   6.955  16.870  0.00  0.00    +0.000 C 
ATOM     16  C   UNL     1       7.253   6.788  18.214  0.00  0.00    +0.000 C 
ATOM     17  C   UNL     1       5.021   6.997  17.114  0.00  0.00    +0.000 C 
ATOM     18  C   UNL     1       4.887   4.508  16.873  0.00  0.00    +0.000 C 
ENDBRANCH   6   9
BRANCH   1  23
ATOM     19  C   UNL     1       1.149  13.116  18.568  0.00  0.00    +0.000 C 
ATOM     20  C   UNL     1       0.532  11.851  19.009  0.00  0.00    +0.000 A 
ATOM     21  C   UNL     1      -0.708  11.278  18.831  0.00  0.00    +0.000 A 
ATOM     22  C   UNL     1      -0.660  10.015  19.470  0.00  0.00    +0.000 A 
ATOM     23  C   UNL     1       0.631   9.860  19.947  0.00  0.00    +0.000 A 
ATOM     24  O   UNL     1       1.331  11.016  19.730  0.00  0.00    +0.000 OA
ENDBRANCH   1  23
TORSDOF 2
ENDMDL
MODEL 9
REMARK VINA RESULT:      -7.2      4.556      7.623
REMARK  Name = 
REMARK  3 active torsions:
REMARK  status: ('A' for Active; 'I' for Inactive)
REMARK    1  A    between atoms: C_1  and  C_2
REMARK    2  A    between atoms: C_5  and  C_6
REMARK    3  A    between atoms: N_11  and  C_12
REMARK                            x       y       z     vdW  Elec       q    Type
REMARK                         _______ _______ _______ _____ _____    ______ ____
ROOT
ATOM      1  C   UNL     1       1.301   8.665  20.721  0.00  0.00    +0.000 C 
ATOM      2  O   UNL     1       1.190   8.383  21.915  0.00  0.00    +0.000 OA
ATOM      3  N   UNL     1       1.912   7.775  19.826  0.00  0.00    +0.000 N 
ATOM      4  C   UNL     1       2.549   6.567  20.355  0.00  0.00    +0.000 C 
ATOM      5  C   UNL     1       2.482   5.398  19.357  0.00  0.00    +0.000 C 
ATOM      6  N   UNL     1       2.984   5.702  18.004  0.00  0.00    +0.000 NA
ATOM      7  C   UNL     1       2.237   6.866  17.494  0.00  0.00    +0.000 C 
ATOM      8  C   UNL     1       2.189   8.095  18.421  0.00  0.00    +0.000 C 
ENDROOT
BRANCH   6   9
ATOM      9  C   UNL     1       4.453   5.725  17.783  0.00  0.00    +0.000 C 
ATOM     10  C   UNL     1       5.247   5.476  19.103  0.00  0.00    +0.000 C 
ATOM     11  C   UNL     1       6.757   5.397  18.850  0.00  0.00    +0.000 C 
ATOM     12  C   UNL     1       7.048   4.232  17.896  0.00  0.00    +0.000 C 
ATOM     13  C   UNL     1       6.320   4.455  16.564  0.00  0.00    +0.000 C 
ATOM     14  C   UNL     1       6.814   5.768  15.937  0.00  0.00    +0.000 C 
ATOM     15  C   UNL     1       6.521   6.940  16.884  0.00  0.00    +0.000 C 
ATOM     16  C   UNL     1       7.227   6.719  18.227  0.00  0.00    +0.000 C 
ATOM     17  C   UNL     1       5.007   7.020  17.122  0.00  0.00    +0.000 C 
ATOM     18  C   UNL     1       4.802   4.543  16.821  0.00  0.00    +0.000 C 
ENDBRANCH   6   9
BRANCH   1  23
ATOM     19  C   UNL     1      -2.167  11.311  18.626  0.00  0.00    +0.000 C 
ATOM     20  C   UNL     1      -0.840  11.125  19.244  0.00  0.00    +0.000 A 
ATOM     21  C   UNL     1       0.148  11.987  19.664  0.00  0.00    +0.000 A 
ATOM     22  C   UNL     1       1.170  11.182  20.224  0.00  0.00    +0.000 A 
ATOM     23  C   UNL     1       0.716   9.874  20.173  0.00  0.00    +0.000 A 
ATOM     24  O   UNL     1      -0.478   9.839  19.505  0.00  0.00    +0.000 OA
ENDBRANCH   1  23
TORSDOF 2
ENDMDL
