MODEL 1
REMARK VINA RESULT:      -6.9      0.000      0.000
REMARK  Name = 
REMARK  9 active torsions:
REMARK  status: ('A' for Active; 'I' for Inactive)
REMARK    1  A    between atoms: C_1  and  C_2
REMARK    2  A    between atoms: C_2  and  C_3
REMARK    3  A    between atoms: C_2  and  C_4
REMARK    4  A    between atoms: C_2  and  N_5
REMARK    5  A    between atoms: C_6  and  C_8
REMARK    6  A    between atoms: C_8  and  C_9
REMARK    7  A    between atoms: C_9  and  S_10
REMARK    8  A    between atoms: S_10  and  C_11
REMARK    9  A    between atoms: C_14  and  C_15
REMARK                            x       y       z     vdW  Elec       q    Type
REMARK                         _______ _______ _______ _____ _____    ______ ____
ROOT
ATOM      1  S   UNL     1       5.842   6.620  17.390  0.00  0.00    +0.000 S 
ENDROOT
BRANCH   1   2
ATOM      2  C   UNL     1       6.368   5.790  15.951  0.00  0.00    +0.000 A 
ATOM      3  N   UNL     1       7.594   5.810  15.468  0.00  0.00    +0.000 NA
ATOM      4  N   UNL     1       7.580   5.050  14.316  0.00  0.00    +0.000 NA
ATOM      5  C   UNL     1       6.344   4.610  14.165  0.00  0.00    +0.000 A 
ATOM      6  O   UNL     1       5.521   5.038  15.180  0.00  0.00    +0.000 OA
BRANCH   5   7
ATOM      7  C   UNL     1       5.906   3.801  13.067  0.00  0.00    +0.000 A 
ATOM      8  C   UNL     1       6.652   2.942  12.273  0.00  0.00    +0.000 A 
ATOM      9  C   UNL     1       5.776   2.386  11.308  0.00  0.00    +0.000 A 
ATOM     10  C   UNL     1       4.542   2.928  11.565  0.00  0.00    +0.000 A 
ATOM     11  O   UNL     1       4.606   3.779  12.621  0.00  0.00    +0.000 OA
ENDBRANCH   5   7
ENDBRANCH   1   2
BRANCH   1  12
ATOM     12  C   UNL     1       4.701   5.384  18.084  0.00  0.00    +0.000 C 
BRANCH  12  13
ATOM     13  C   UNL     1       5.448   4.284  18.842  0.00  0.00    +0.000 C 
BRANCH  13  15
ATOM     14  N   UNL     1       3.175   3.866  19.622  0.00  0.00    +0.000 N 
ATOM     15  C   UNL     1       4.444   3.342  19.480  0.00  0.00    +0.000 C 
ATOM     16  O   UNL     1       4.751   2.208  19.838  0.00  0.00    +0.000 OA
ATOM     17  H   UNL     1       3.008   4.812  19.302  0.00  0.00    +0.000 HD
BRANCH  14  19
ATOM     18  C   UNL     1       2.359   2.717  21.667  0.00  0.00    +0.000 C 
ATOM     19  C   UNL     1       2.047   3.120  20.216  0.00  0.00    +0.000 C 
ATOM     20  C   UNL     1       1.718   1.870  19.381  0.00  0.00    +0.000 C 
ATOM     21  C   UNL     1       0.798   4.022  20.234  0.00  0.00    +0.000 C 
ENDBRANCH  14  19
ENDBRANCH  13  15
ENDBRANCH  12  13
ENDBRANCH   1  12
TORSDOF 6
ENDMDL
MODEL 2
REMARK VINA RESULT:      -6.8      1.474      1.945
REMARK  Name = 
REMARK  9 active torsions:
REMARK  status: ('A' for Active; 'I' for Inactive)
REMARK    1  A    between atoms: C_1  and  C_2
REMARK    2  A    between atoms: C_2  and  C_3
REMARK    3  A    between atoms: C_2  and  C_4
REMARK    4  A    between atoms: C_2  and  N_5
REMARK    5  A    between atoms: C_6  and  C_8
REMARK    6  A    between atoms: C_8  and  C_9
REMARK    7  A    between atoms: C_9  and  S_10
REMARK    8  A    between atoms: S_10  and  C_11
REMARK    9  A    between atoms: C_14  and  C_15
REMARK                            x       y       z     vdW  Elec       q    Type
REMARK                         _______ _______ _______ _____ _____    ______ ____
ROOT
ATOM      1  S   UNL     1       6.984   4.662  17.895  0.00  0.00    +0.000 S 
ENDROOT
BRANCH   1   2
ATOM      2  C   UNL     1       6.930   4.695  16.154  0.00  0.00    +0.000 A 
ATOM      3  N   UNL     1       7.509   5.602  15.393  0.00  0.00    +0.000 NA
ATOM      4  N   UNL     1       7.205   5.277  14.087  0.00  0.00    +0.000 NA
ATOM      5  C   UNL     1       6.457   4.189  14.128  0.00  0.00    +0.000 A 
ATOM      6  O   UNL     1       6.252   3.759  15.418  0.00  0.00    +0.000 OA
BRANCH   5   7
ATOM      7  C   UNL     1       5.909   3.543  12.973  0.00  0.00    +0.000 A 
ATOM      8  C   UNL     1       4.681   3.758  12.363  0.00  0.00    +0.000 A 
ATOM      9  C   UNL     1       4.589   2.863  11.268  0.00  0.00    +0.000 A 
ATOM     10  C   UNL     1       5.764   2.154  11.262  0.00  0.00    +0.000 A 
ATOM     11  O   UNL     1       6.567   2.555  12.280  0.00  0.00    +0.000 OA
ENDBRANCH   5   7
ENDBRANCH   1   2
BRANCH   1  12
ATOM     12  C   UNL     1       5.542   5.700  18.288  0.00  0.00    +0.000 C 
BRANCH  12  13
ATOM     13  C   UNL     1       4.428   5.540  17.250  0.00  0.00    +0.000 C 
BRANCH  13  15
ATOM     14  N   UNL     1       3.376   4.153  18.959  0.00  0.00    +0.000 N 
ATOM     15  C   UNL     1       3.578   4.335  17.605  0.00  0.00    +0.000 C 
ATOM     16  O   UNL     1       3.115   3.590  16.746  0.00  0.00    +0.000 OA
ATOM     17  H   UNL     1       3.797   4.814  19.599  0.00  0.00    +0.000 HD
BRANCH  14  19
ATOM     18  C   UNL     1       1.091   3.204  19.164  0.00  0.00    +0.000 C 
ATOM     19  C   UNL     1       2.579   3.045  19.521  0.00  0.00    +0.000 C 
ATOM     20  C   UNL     1       2.749   2.967  21.048  0.00  0.00    +0.000 C 
ATOM     21  C   UNL     1       3.069   1.714  18.918  0.00  0.00    +0.000 C 
ENDBRANCH  14  19
ENDBRANCH  13  15
ENDBRANCH  12  13
ENDBRANCH   1  12
TORSDOF 6
ENDMDL
MODEL 3
REMARK VINA RESULT:      -6.7      4.254      6.470
REMARK  Name = 
REMARK  9 active torsions:
REMARK  status: ('A' for Active; 'I' for Inactive)
REMARK    1  A    between atoms: C_1  and  C_2
REMARK    2  A    between atoms: C_2  and  C_3
REMARK    3  A    between atoms: C_2  and  C_4
REMARK    4  A    between atoms: C_2  and  N_5
REMARK    5  A    between atoms: C_6  and  C_8
REMARK    6  A    between atoms: C_8  and  C_9
REMARK    7  A    between atoms: C_9  and  S_10
REMARK    8  A    between atoms: S_10  and  C_11
REMARK    9  A    between atoms: C_14  and  C_15
REMARK                            x       y       z     vdW  Elec       q    Type
REMARK                         _______ _______ _______ _____ _____    ______ ____
ROOT
ATOM      1  S   UNL     1       7.396   5.049  17.944  0.00  0.00    +0.000 S 
ENDROOT
BRANCH   1   2
ATOM      2  C   UNL     1       7.564   6.781  17.858  0.00  0.00    +0.000 A 
ATOM      3  N   UNL     1       6.889   7.570  17.046  0.00  0.00    +0.000 NA
ATOM      4  N   UNL     1       7.335   8.855  17.279  0.00  0.00    +0.000 NA
ATOM      5  C   UNL     1       8.257   8.773  18.222  0.00  0.00    +0.000 A 
ATOM      6  O   UNL     1       8.445   7.478  18.643  0.00  0.00    +0.000 OA
BRANCH   5   7
ATOM      7  C   UNL     1       8.988   9.894  18.733  0.00  0.00    +0.000 A 
ATOM      8  C   UNL     1       9.644  10.894  18.027  0.00  0.00    +0.000 A 
ATOM      9  C   UNL     1      10.236  11.764  18.976  0.00  0.00    +0.000 A 
ATOM     10  C   UNL     1       9.907  11.257  20.208  0.00  0.00    +0.000 A 
ATOM     11  O   UNL     1       9.156  10.134  20.076  0.00  0.00    +0.000 OA
ENDBRANCH   5   7
ENDBRANCH   1   2
BRANCH   1  12
ATOM     12  C   UNL     1       7.161   4.653  16.184  0.00  0.00    +0.000 C 
BRANCH  12  13
ATOM     13  C   UNL     1       5.988   3.693  15.969  0.00  0.00    +0.000 C 
BRANCH  13  15
ATOM     14  N   UNL     1       4.263   3.223  17.629  0.00  0.00    +0.000 N 
ATOM     15  C   UNL     1       4.794   4.169  16.775  0.00  0.00    +0.000 C 
ATOM     16  O   UNL     1       4.347   5.308  16.664  0.00  0.00    +0.000 OA
ATOM     17  H   UNL     1       4.692   2.307  17.656  0.00  0.00    +0.000 HD
BRANCH  14  19
ATOM     18  C   UNL     1       1.904   3.996  17.691  0.00  0.00    +0.000 C 
ATOM     19  C   UNL     1       3.102   3.478  18.505  0.00  0.00    +0.000 C 
ATOM     20  C   UNL     1       3.461   4.483  19.613  0.00  0.00    +0.000 C 
ATOM     21  C   UNL     1       2.679   2.158  19.179  0.00  0.00    +0.000 C 
ENDBRANCH  14  19
ENDBRANCH  13  15
ENDBRANCH  12  13
ENDBRANCH   1  12
TORSDOF 6
ENDMDL
MODEL 4
REMARK VINA RESULT:      -6.7      1.535      1.833
REMARK  Name = 
REMARK  9 active torsions:
REMARK  status: ('A' for Active; 'I' for Inactive)
REMARK    1  A    between atoms: C_1  and  C_2
REMARK    2  A    between atoms: C_2  and  C_3
REMARK    3  A    between atoms: C_2  and  C_4
REMARK    4  A    between atoms: C_2  and  N_5
REMARK    5  A    between atoms: C_6  and  C_8
REMARK    6  A    between atoms: C_8  and  C_9
REMARK    7  A    between atoms: C_9  and  S_10
REMARK    8  A    between atoms: S_10  and  C_11
REMARK    9  A    between atoms: C_14  and  C_15
REMARK                            x       y       z     vdW  Elec       q    Type
REMARK                         _______ _______ _______ _____ _____    ______ ____
ROOT
ATOM      1  S   UNL     1       7.424   6.042  18.484  0.00  0.00    +0.000 S 
ENDROOT
BRANCH   1   2
ATOM      2  C   UNL     1       6.795   5.931  16.863  0.00  0.00    +0.000 A 
ATOM      3  N   UNL     1       5.873   6.721  16.350  0.00  0.00    +0.000 NA
ATOM      4  N   UNL     1       5.646   6.283  15.061  0.00  0.00    +0.000 NA
ATOM      5  C   UNL     1       6.445   5.249  14.864  0.00  0.00    +0.000 A 
ATOM      6  O   UNL     1       7.212   4.977  15.972  0.00  0.00    +0.000 OA
BRANCH   5   7
ATOM      7  C   UNL     1       6.493   4.489  13.650  0.00  0.00    +0.000 A 
ATOM      8  C   UNL     1       7.459   4.512  12.653  0.00  0.00    +0.000 A 
ATOM      9  C   UNL     1       7.052   3.600  11.648  0.00  0.00    +0.000 A 
ATOM     10  C   UNL     1       5.867   3.064  12.084  0.00  0.00    +0.000 A 
ATOM     11  O   UNL     1       5.521   3.589  13.287  0.00  0.00    +0.000 OA
ENDBRANCH   5   7
ENDBRANCH   1   2
BRANCH   1  12
ATOM     12  C   UNL     1       6.009   5.400  19.430  0.00  0.00    +0.000 C 
BRANCH  12  13
ATOM     13  C   UNL     1       5.725   3.932  19.101  0.00  0.00    +0.000 C 
BRANCH  13  15
ATOM     14  N   UNL     1       3.306   3.866  19.409  0.00  0.00    +0.000 N 
ATOM     15  C   UNL     1       4.339   3.812  18.495  0.00  0.00    +0.000 C 
ATOM     16  O   UNL     1       4.167   3.677  17.286  0.00  0.00    +0.000 OA
ATOM     17  H   UNL     1       3.536   3.977  20.388  0.00  0.00    +0.000 HD
BRANCH  14  19
ATOM     18  C   UNL     1       1.507   2.326  18.659  0.00  0.00    +0.000 C 
ATOM     19  C   UNL     1       1.881   3.771  19.032  0.00  0.00    +0.000 C 
ATOM     20  C   UNL     1       1.558   4.718  17.863  0.00  0.00    +0.000 C 
ATOM     21  C   UNL     1       1.012   4.187  20.235  0.00  0.00    +0.000 C 
ENDBRANCH  14  19
ENDBRANCH  13  15
ENDBRANCH  12  13
ENDBRANCH   1  12
TORSDOF 6
ENDMDL
MODEL 5
REMARK VINA RESULT:      -6.7      0.787      1.351
REMARK  Name = 
REMARK  9 active torsions:
REMARK  status: ('A' for Active; 'I' for Inactive)
REMARK    1  A    between atoms: C_1  and  C_2
REMARK    2  A    between atoms: C_2  and  C_3
REMARK    3  A    between atoms: C_2  and  C_4
REMARK    4  A    between atoms: C_2  and  N_5
REMARK    5  A    between atoms: C_6  and  C_8
REMARK    6  A    between atoms: C_8  and  C_9
REMARK    7  A    between atoms: C_9  and  S_10
REMARK    8  A    between atoms: S_10  and  C_11
REMARK    9  A    between atoms: C_14  and  C_15
REMARK                            x       y       z     vdW  Elec       q    Type
REMARK                         _______ _______ _______ _____ _____    ______ ____
ROOT
ATOM      1  S   UNL     1       5.234   7.136  17.238  0.00  0.00    +0.000 S 
ENDROOT
BRANCH   1   2
ATOM      2  C   UNL     1       6.029   6.107  16.078  0.00  0.00    +0.000 A 
ATOM      3  N   UNL     1       7.329   5.906  16.007  0.00  0.00    +0.000 NA
ATOM      4  N   UNL     1       7.541   5.050  14.945  0.00  0.00    +0.000 NA
ATOM      5  C   UNL     1       6.355   4.780  14.430  0.00  0.00    +0.000 A 
ATOM      6  O   UNL     1       5.345   5.415  15.113  0.00  0.00    +0.000 OA
BRANCH   5   7
ATOM      7  C   UNL     1       6.145   3.942  13.287  0.00  0.00    +0.000 A 
ATOM      8  C   UNL     1       4.946   3.482  12.760  0.00  0.00    +0.000 A 
ATOM      9  C   UNL     1       5.258   2.670  11.642  0.00  0.00    +0.000 A 
ATOM     10  C   UNL     1       6.626   2.680  11.540  0.00  0.00    +0.000 A 
ATOM     11  O   UNL     1       7.171   3.442  12.522  0.00  0.00    +0.000 OA
ENDBRANCH   5   7
ENDBRANCH   1   2
BRANCH   1  12
ATOM     12  C   UNL     1       4.346   5.893  18.226  0.00  0.00    +0.000 C 
BRANCH  12  13
ATOM     13  C   UNL     1       5.262   4.740  18.643  0.00  0.00    +0.000 C 
BRANCH  13  15
ATOM     14  N   UNL     1       3.094   3.957  19.443  0.00  0.00    +0.000 N 
ATOM     15  C   UNL     1       4.446   3.689  19.374  0.00  0.00    +0.000 C 
ATOM     16  O   UNL     1       4.963   2.687  19.860  0.00  0.00    +0.000 OA
ATOM     17  H   UNL     1       2.751   4.809  19.016  0.00  0.00    +0.000 HD
BRANCH  14  19
ATOM     18  C   UNL     1       0.769   3.775  20.296  0.00  0.00    +0.000 C 
ATOM     19  C   UNL     1       2.121   3.066  20.105  0.00  0.00    +0.000 C 
ATOM     20  C   UNL     1       2.658   2.581  21.463  0.00  0.00    +0.000 C 
ATOM     21  C   UNL     1       1.883   1.829  19.218  0.00  0.00    +0.000 C 
ENDBRANCH  14  19
ENDBRANCH  13  15
ENDBRANCH  12  13
ENDBRANCH   1  12
TORSDOF 6
ENDMDL
MODEL 6
REMARK VINA RESULT:      -6.6      1.603      1.914
REMARK  Name = 
REMARK  9 active torsions:
REMARK  status: ('A' for Active; 'I' for Inactive)
REMARK    1  A    between atoms: C_1  and  C_2
REMARK    2  A    between atoms: C_2  and  C_3
REMARK    3  A    between atoms: C_2  and  C_4
REMARK    4  A    between atoms: C_2  and  N_5
REMARK    5  A    between atoms: C_6  and  C_8
REMARK    6  A    between atoms: C_8  and  C_9
REMARK    7  A    between atoms: C_9  and  S_10
REMARK    8  A    between atoms: S_10  and  C_11
REMARK    9  A    between atoms: C_14  and  C_15
REMARK                            x       y       z     vdW  Elec       q    Type
REMARK                         _______ _______ _______ _____ _____    ______ ____
ROOT
ATOM      1  S   UNL     1       5.069   5.978  18.423  0.00  0.00    +0.000 S 
ENDROOT
BRANCH   1   2
ATOM      2  C   UNL     1       5.993   5.695  16.973  0.00  0.00    +0.000 A 
ATOM      3  N   UNL     1       7.196   6.176  16.734  0.00  0.00    +0.000 NA
ATOM      4  N   UNL     1       7.556   5.737  15.476  0.00  0.00    +0.000 NA
ATOM      5  C   UNL     1       6.549   5.012  15.022  0.00  0.00    +0.000 A 
ATOM      6  O   UNL     1       5.522   4.937  15.933  0.00  0.00    +0.000 OA
BRANCH   5   7
ATOM      7  C   UNL     1       6.519   4.394  13.730  0.00  0.00    +0.000 A 
ATOM      8  C   UNL     1       7.424   4.528  12.686  0.00  0.00    +0.000 A 
ATOM      9  C   UNL     1       6.951   3.736  11.611  0.00  0.00    +0.000 A 
ATOM     10  C   UNL     1       5.789   3.156  12.054  0.00  0.00    +0.000 A 
ATOM     11  O   UNL     1       5.519   3.542  13.327  0.00  0.00    +0.000 OA
ENDBRANCH   5   7
ENDBRANCH   1   2
BRANCH   1  12
ATOM     12  C   UNL     1       3.689   6.953  17.748  0.00  0.00    +0.000 C 
BRANCH  12  13
ATOM     13  C   UNL     1       2.348   6.537  18.359  0.00  0.00    +0.000 C 
BRANCH  13  15
ATOM     14  N   UNL     1       2.054   4.500  19.668  0.00  0.00    +0.000 N 
ATOM     15  C   UNL     1       2.266   5.023  18.408  0.00  0.00    +0.000 C 
ATOM     16  O   UNL     1       2.381   4.332  17.400  0.00  0.00    +0.000 OA
ATOM     17  H   UNL     1       1.973   5.142  20.447  0.00  0.00    +0.000 HD
BRANCH  14  19
ATOM     18  C   UNL     1       3.305   2.358  19.794  0.00  0.00    +0.000 C 
ATOM     19  C   UNL     1       1.940   3.054  19.941  0.00  0.00    +0.000 C 
ATOM     20  C   UNL     1       0.911   2.399  19.002  0.00  0.00    +0.000 C 
ATOM     21  C   UNL     1       1.459   2.849  21.390  0.00  0.00    +0.000 C 
ENDBRANCH  14  19
ENDBRANCH  13  15
ENDBRANCH  12  13
ENDBRANCH   1  12
TORSDOF 6
ENDMDL
MODEL 7
REMARK VINA RESULT:      -6.6      1.384      1.490
REMARK  Name = 
REMARK  9 active torsions:
REMARK  status: ('A' for Active; 'I' for Inactive)
REMARK    1  A    between atoms: C_1  and  C_2
REMARK    2  A    between atoms: C_2  and  C_3
REMARK    3  A    between atoms: C_2  and  C_4
REMARK    4  A    between atoms: C_2  and  N_5
REMARK    5  A    between atoms: C_6  and  C_8
REMARK    6  A    between atoms: C_8  and  C_9
REMARK    7  A    between atoms: C_9  and  S_10
REMARK    8  A    between atoms: S_10  and  C_11
REMARK    9  A    between atoms: C_14  and  C_15
REMARK                            x       y       z     vdW  Elec       q    Type
REMARK                         _______ _______ _______ _____ _____    ______ ____
ROOT
ATOM      1  S   UNL     1       7.298   4.731  17.873  0.00  0.00    +0.000 S 
ENDROOT
BRANCH   1   2
ATOM      2  C   UNL     1       7.115   4.767  16.141  0.00  0.00    +0.000 A 
ATOM      3  N   UNL     1       7.605   5.697  15.345  0.00  0.00    +0.000 NA
ATOM      4  N   UNL     1       7.217   5.366  14.062  0.00  0.00    +0.000 NA
ATOM      5  C   UNL     1       6.512   4.252  14.152  0.00  0.00    +0.000 A 
ATOM      6  O   UNL     1       6.417   3.811  15.451  0.00  0.00    +0.000 OA
BRANCH   5   7
ATOM      7  C   UNL     1       5.904   3.591  13.036  0.00  0.00    +0.000 A 
ATOM      8  C   UNL     1       6.439   2.608  12.216  0.00  0.00    +0.000 A 
ATOM      9  C   UNL     1       5.460   2.289  11.242  0.00  0.00    +0.000 A 
ATOM     10  C   UNL     1       4.379   3.087  11.520  0.00  0.00    +0.000 A 
ATOM     11  O   UNL     1       4.632   3.873  12.598  0.00  0.00    +0.000 OA
ENDBRANCH   5   7
ENDBRANCH   1   2
BRANCH   1  12
ATOM     12  C   UNL     1       5.605   4.292  18.374  0.00  0.00    +0.000 C 
BRANCH  12  13
ATOM     13  C   UNL     1       4.606   5.401  18.031  0.00  0.00    +0.000 C 
BRANCH  13  15
ATOM     14  N   UNL     1       3.110   3.957  19.306  0.00  0.00    +0.000 N 
ATOM     15  C   UNL     1       3.369   5.249  18.896  0.00  0.00    +0.000 C 
ATOM     16  O   UNL     1       2.666   6.209  19.199  0.00  0.00    +0.000 OA
ATOM     17  H   UNL     1       3.741   3.223  19.008  0.00  0.00    +0.000 HD
BRANCH  14  19
ATOM     18  C   UNL     1       2.421   2.791  21.388  0.00  0.00    +0.000 C 
ATOM     19  C   UNL     1       1.960   3.588  20.155  0.00  0.00    +0.000 C 
ATOM     20  C   UNL     1       0.927   2.773  19.356  0.00  0.00    +0.000 C 
ATOM     21  C   UNL     1       1.269   4.871  20.654  0.00  0.00    +0.000 C 
ENDBRANCH  14  19
ENDBRANCH  13  15
ENDBRANCH  12  13
ENDBRANCH   1  12
TORSDOF 6
ENDMDL
MODEL 8
REMARK VINA RESULT:      -6.6      1.064      1.525
REMARK  Name = 
REMARK  9 active torsions:
REMARK  status: ('A' for Active; 'I' for Inactive)
REMARK    1  A    between atoms: C_1  and  C_2
REMARK    2  A    between atoms: C_2  and  C_3
REMARK    3  A    between atoms: C_2  and  C_4
REMARK    4  A    between atoms: C_2  and  N_5
REMARK    5  A    between atoms: C_6  and  C_8
REMARK    6  A    between atoms: C_8  and  C_9
REMARK    7  A    between atoms: C_9  and  S_10
REMARK    8  A    between atoms: S_10  and  C_11
REMARK    9  A    between atoms: C_14  and  C_15
REMARK                            x       y       z     vdW  Elec       q    Type
REMARK                         _______ _______ _______ _____ _____    ______ ____
ROOT
ATOM      1  S   UNL     1       5.098   6.618  17.623  0.00  0.00    +0.000 S 
ENDROOT
BRANCH   1   2
ATOM      2  C   UNL     1       5.976   5.884  16.308  0.00  0.00    +0.000 A 
ATOM      3  N   UNL     1       7.273   5.994  16.107  0.00  0.00    +0.000 NA
ATOM      4  N   UNL     1       7.558   5.288  14.956  0.00  0.00    +0.000 NA
ATOM      5  C   UNL     1       6.414   4.788  14.522  0.00  0.00    +0.000 A 
ATOM      6  O   UNL     1       5.366   5.124  15.345  0.00  0.00    +0.000 OA
BRANCH   5   7
ATOM      7  C   UNL     1       6.277   4.007  13.329  0.00  0.00    +0.000 A 
ATOM      8  C   UNL     1       7.256   3.648  12.413  0.00  0.00    +0.000 A 
ATOM      9  C   UNL     1       6.625   2.893  11.393  0.00  0.00    +0.000 A 
ATOM     10  C   UNL     1       5.299   2.825  11.741  0.00  0.00    +0.000 A 
ATOM     11  O   UNL     1       5.077   3.489  12.903  0.00  0.00    +0.000 OA
ENDBRANCH   5   7
ENDBRANCH   1   2
BRANCH   1  12
ATOM     12  C   UNL     1       5.641   5.569  19.006  0.00  0.00    +0.000 C 
BRANCH  12  13
ATOM     13  C   UNL     1       5.648   4.086  18.625  0.00  0.00    +0.000 C 
BRANCH  13  15
ATOM     14  N   UNL     1       3.323   3.960  19.352  0.00  0.00    +0.000 N 
ATOM     15  C   UNL     1       4.226   3.627  18.363  0.00  0.00    +0.000 C 
ATOM     16  O   UNL     1       3.919   3.008  17.347  0.00  0.00    +0.000 OA
ATOM     17  H   UNL     1       3.661   4.470  20.158  0.00  0.00    +0.000 HD
BRANCH  14  19
ATOM     18  C   UNL     1       1.265   4.073  17.967  0.00  0.00    +0.000 C 
ATOM     19  C   UNL     1       1.889   3.613  19.296  0.00  0.00    +0.000 C 
ATOM     20  C   UNL     1       1.128   4.235  20.479  0.00  0.00    +0.000 C 
ATOM     21  C   UNL     1       1.737   2.082  19.383  0.00  0.00    +0.000 C 
ENDBRANCH  14  19
ENDBRANCH  13  15
ENDBRANCH  12  13
ENDBRANCH   1  12
TORSDOF 6
ENDMDL
MODEL 9
REMARK VINA RESULT:      -6.6      1.142      1.476
REMARK  Name = 
REMARK  9 active torsions:
REMARK  status: ('A' for Active; 'I' for Inactive)
REMARK    1  A    between atoms: C_1  and  C_2
REMARK    2  A    between atoms: C_2  and  C_3
REMARK    3  A    between atoms: C_2  and  C_4
REMARK    4  A    between atoms: C_2  and  N_5
REMARK    5  A    between atoms: C_6  and  C_8
REMARK    6  A    between atoms: C_8  and  C_9
REMARK    7  A    between atoms: C_9  and  S_10
REMARK    8  A    between atoms: S_10  and  C_11
REMARK    9  A    between atoms: C_14  and  C_15
REMARK                            x       y       z     vdW  Elec       q    Type
REMARK                         _______ _______ _______ _____ _____    ______ ____
ROOT
ATOM      1  S   UNL     1       6.504   6.261  17.167  0.00  0.00    +0.000 S 
ENDROOT
BRANCH   1   2
ATOM      2  C   UNL     1       6.776   5.540  15.605  0.00  0.00    +0.000 A 
ATOM      3  N   UNL     1       7.860   5.702  14.872  0.00  0.00    +0.000 NA
ATOM      4  N   UNL     1       7.664   4.985  13.709  0.00  0.00    +0.000 NA
ATOM      5  C   UNL     1       6.469   4.428  13.801  0.00  0.00    +0.000 A 
ATOM      6  O   UNL     1       5.853   4.735  14.991  0.00  0.00    +0.000 OA
BRANCH   5   7
ATOM      7  C   UNL     1       5.877   3.619  12.778  0.00  0.00    +0.000 A 
ATOM      8  C   UNL     1       4.627   3.746  12.189  0.00  0.00    +0.000 A 
ATOM      9  C   UNL     1       4.493   2.696  11.247  0.00  0.00    +0.000 A 
ATOM     10  C   UNL     1       5.666   1.987  11.305  0.00  0.00    +0.000 A 
ATOM     11  O   UNL     1       6.508   2.533  12.219  0.00  0.00    +0.000 OA
ENDBRANCH   5   7
ENDBRANCH   1   2
BRANCH   1  12
ATOM     12  C   UNL     1       6.660   4.798  18.236  0.00  0.00    +0.000 C 
BRANCH  12  13
ATOM     13  C   UNL     1       5.571   4.762  19.313  0.00  0.00    +0.000 C 
BRANCH  13  15
ATOM     14  N   UNL     1       3.207   4.197  19.517  0.00  0.00    +0.000 N 
ATOM     15  C   UNL     1       4.360   4.021  18.779  0.00  0.00    +0.000 C 
ATOM     16  O   UNL     1       4.417   3.322  17.770  0.00  0.00    +0.000 OA
ATOM     17  H   UNL     1       3.249   4.789  20.337  0.00  0.00    +0.000 HD
BRANCH  14  19
ATOM     18  C   UNL     1       2.047   2.037  19.125  0.00  0.00    +0.000 C 
ATOM     19  C   UNL     1       1.916   3.569  19.173  0.00  0.00    +0.000 C 
ATOM     20  C   UNL     1       1.393   4.096  17.825  0.00  0.00    +0.000 C 
ATOM     21  C   UNL     1       0.879   3.921  20.256  0.00  0.00    +0.000 C 
ENDBRANCH  14  19
ENDBRANCH  13  15
ENDBRANCH  12  13
ENDBRANCH   1  12
TORSDOF 6
ENDMDL
