MODEL 1
REMARK VINA RESULT:      -6.2      0.000      0.000
REMARK  Name = 
REMARK  6 active torsions:
REMARK  status: ('A' for Active; 'I' for Inactive)
REMARK    1  A    between atoms: C_1  and  O_2
REMARK    2  A    between atoms: O_2  and  C_3
REMARK    3  A    between atoms: C_3  and  C_5
REMARK    4  A    between atoms: C_5  and  S_6
REMARK    5  A    between atoms: S_6  and  C_9
REMARK    6  A    between atoms: C_12  and  C_13
REMARK                            x       y       z     vdW  Elec       q    Type
REMARK                         _______ _______ _______ _____ _____    ______ ____
ROOT
ATOM      1  S   UNL     1       4.647   5.661  17.517  0.00  0.00    +0.000 S 
ATOM      2  O   UNL     1       4.091   7.002  17.486  0.00  0.00    +0.000 OA
ATOM      3  O   UNL     1       4.731   4.841  16.322  0.00  0.00    +0.000 OA
ENDROOT
BRANCH   1   4
ATOM      4  C   UNL     1       3.639   4.725  18.656  0.00  0.00    +0.000 A 
ATOM      5  C   UNL     1       4.120   3.521  19.177  0.00  0.00    +0.000 A 
ATOM      6  C   UNL     1       3.377   2.841  20.144  0.00  0.00    +0.000 A 
ATOM      7  C   UNL     1       2.157   3.358  20.595  0.00  0.00    +0.000 A 
ATOM      8  C   UNL     1       1.369   2.648  21.659  0.00  0.00    +0.000 C 
ATOM      9  C   UNL     1       1.682   4.564  20.060  0.00  0.00    +0.000 A 
ATOM     10  C   UNL     1       2.424   5.254  19.096  0.00  0.00    +0.000 A 
ENDBRANCH   1   4
BRANCH   1  11
ATOM     11  C   UNL     1       6.229   5.740  18.295  0.00  0.00    +0.000 C 
BRANCH  11  12
ATOM     12  C   UNL     1       7.285   5.519  17.259  0.00  0.00    +0.000 C 
ATOM     13  O   UNL     1       7.905   4.487  17.059  0.00  0.00    +0.000 OA
BRANCH  12  15
ATOM     14  C   UNL     1       7.736   7.810  17.475  0.00  0.00    +0.000 C 
ATOM     15  O   UNL     1       7.531   6.694  16.601  0.00  0.00    +0.000 OA
ENDBRANCH  12  15
ENDBRANCH  11  12
ENDBRANCH   1  11
TORSDOF 4
ENDMDL
MODEL 2
REMARK VINA RESULT:      -6.1      1.933      2.409
REMARK  Name = 
REMARK  6 active torsions:
REMARK  status: ('A' for Active; 'I' for Inactive)
REMARK    1  A    between atoms: C_1  and  O_2
REMARK    2  A    between atoms: O_2  and  C_3
REMARK    3  A    between atoms: C_3  and  C_5
REMARK    4  A    between atoms: C_5  and  S_6
REMARK    5  A    between atoms: S_6  and  C_9
REMARK    6  A    between atoms: C_12  and  C_13
REMARK                            x       y       z     vdW  Elec       q    Type
REMARK                         _______ _______ _______ _____ _____    ______ ____
ROOT
ATOM      1  S   UNL     1       6.253   5.450  18.412  0.00  0.00    +0.000 S 
ATOM      2  O   UNL     1       6.746   5.434  19.778  0.00  0.00    +0.000 OA
ATOM      3  O   UNL     1       5.946   6.691  17.726  0.00  0.00    +0.000 OA
ENDROOT
BRANCH   1   4
ATOM      4  C   UNL     1       4.724   4.527  18.418  0.00  0.00    +0.000 A 
ATOM      5  C   UNL     1       4.635   3.338  19.145  0.00  0.00    +0.000 A 
ATOM      6  C   UNL     1       3.412   2.670  19.231  0.00  0.00    +0.000 A 
ATOM      7  C   UNL     1       2.276   3.186  18.596  0.00  0.00    +0.000 A 
ATOM      8  C   UNL     1       0.950   2.489  18.713  0.00  0.00    +0.000 C 
ATOM      9  C   UNL     1       2.379   4.377  17.864  0.00  0.00    +0.000 A 
ATOM     10  C   UNL     1       3.600   5.055  17.779  0.00  0.00    +0.000 A 
ENDBRANCH   1   4
BRANCH   1  11
ATOM     11  C   UNL     1       7.345   4.479  17.422  0.00  0.00    +0.000 C 
BRANCH  11  12
ATOM     12  C   UNL     1       6.792   4.398  16.035  0.00  0.00    +0.000 C 
ATOM     13  O   UNL     1       5.962   3.602  15.627  0.00  0.00    +0.000 OA
BRANCH  12  15
ATOM     14  C   UNL     1       7.341   5.014  13.841  0.00  0.00    +0.000 C 
ATOM     15  O   UNL     1       7.423   5.314  15.238  0.00  0.00    +0.000 OA
ENDBRANCH  12  15
ENDBRANCH  11  12
ENDBRANCH   1  11
TORSDOF 4
ENDMDL
MODEL 3
REMARK VINA RESULT:      -6.0      0.408      1.309
REMARK  Name = 
REMARK  6 active torsions:
REMARK  status: ('A' for Active; 'I' for Inactive)
REMARK    1  A    between atoms: C_1  and  O_2
REMARK    2  A    between atoms: O_2  and  C_3
REMARK    3  A    between atoms: C_3  and  C_5
REMARK    4  A    between atoms: C_5  and  S_6
REMARK    5  A    between atoms: S_6  and  C_9
REMARK    6  A    between atoms: C_12  and  C_13
REMARK                            x       y       z     vdW  Elec       q    Type
REMARK                         _______ _______ _______ _____ _____    ______ ____
ROOT
ATOM      1  S   UNL     1       4.621   5.165  17.371  0.00  0.00    +0.000 S 
ATOM      2  O   UNL     1       4.133   6.516  17.156  0.00  0.00    +0.000 OA
ATOM      3  O   UNL     1       4.574   4.160  16.326  0.00  0.00    +0.000 OA
ENDROOT
BRANCH   1   4
ATOM      4  C   UNL     1       3.655   4.489  18.713  0.00  0.00    +0.000 A 
ATOM      5  C   UNL     1       2.387   5.009  18.983  0.00  0.00    +0.000 A 
ATOM      6  C   UNL     1       1.592   4.414  19.965  0.00  0.00    +0.000 A 
ATOM      7  C   UNL     1       2.056   3.303  20.678  0.00  0.00    +0.000 A 
ATOM      8  C   UNL     1       1.193   2.639  21.713  0.00  0.00    +0.000 C 
ATOM      9  C   UNL     1       3.334   2.795  20.402  0.00  0.00    +0.000 A 
ATOM     10  C   UNL     1       4.133   3.381  19.415  0.00  0.00    +0.000 A 
ENDBRANCH   1   4
BRANCH   1  11
ATOM     11  C   UNL     1       6.259   5.269  18.022  0.00  0.00    +0.000 C 
BRANCH  11  12
ATOM     12  C   UNL     1       7.219   5.413  16.884  0.00  0.00    +0.000 C 
ATOM     13  O   UNL     1       7.920   4.536  16.407  0.00  0.00    +0.000 OA
BRANCH  12  15
ATOM     14  C   UNL     1       7.618   7.625  17.550  0.00  0.00    +0.000 C 
ATOM     15  O   UNL     1       7.270   6.724  16.494  0.00  0.00    +0.000 OA
ENDBRANCH  12  15
ENDBRANCH  11  12
ENDBRANCH   1  11
TORSDOF 4
ENDMDL
MODEL 4
REMARK VINA RESULT:      -6.0      1.745      2.128
REMARK  Name = 
REMARK  6 active torsions:
REMARK  status: ('A' for Active; 'I' for Inactive)
REMARK    1  A    between atoms: C_1  and  O_2
REMARK    2  A    between atoms: O_2  and  C_3
REMARK    3  A    between atoms: C_3  and  C_5
REMARK    4  A    between atoms: C_5  and  S_6
REMARK    5  A    between atoms: S_6  and  C_9
REMARK    6  A    between atoms: C_12  and  C_13
REMARK                            x       y       z     vdW  Elec       q    Type
REMARK                         _______ _______ _______ _____ _____    ______ ____
ROOT
ATOM      1  S   UNL     1       5.520   5.272  16.597  0.00  0.00    +0.000 S 
ATOM      2  O   UNL     1       5.115   6.053  15.443  0.00  0.00    +0.000 OA
ATOM      3  O   UNL     1       6.517   4.221  16.497  0.00  0.00    +0.000 OA
ENDROOT
BRANCH   1   4
ATOM      4  C   UNL     1       4.046   4.462  17.199  0.00  0.00    +0.000 A 
ATOM      5  C   UNL     1       3.973   3.067  17.199  0.00  0.00    +0.000 A 
ATOM      6  C   UNL     1       2.864   2.433  17.762  0.00  0.00    +0.000 A 
ATOM      7  C   UNL     1       1.827   3.186  18.327  0.00  0.00    +0.000 A 
ATOM      8  C   UNL     1       0.647   2.509  18.963  0.00  0.00    +0.000 C 
ATOM      9  C   UNL     1       1.910   4.585  18.315  0.00  0.00    +0.000 A 
ATOM     10  C   UNL     1       3.021   5.227  17.759  0.00  0.00    +0.000 A 
ENDBRANCH   1   4
BRANCH   1  11
ATOM     11  C   UNL     1       5.964   6.389  17.890  0.00  0.00    +0.000 C 
BRANCH  11  12
ATOM     12  C   UNL     1       7.369   6.850  17.666  0.00  0.00    +0.000 C 
ATOM     13  O   UNL     1       7.828   7.308  16.632  0.00  0.00    +0.000 OA
BRANCH  12  15
ATOM     14  C   UNL     1       7.552   5.602  19.642  0.00  0.00    +0.000 C 
ATOM     15  O   UNL     1       8.114   6.603  18.786  0.00  0.00    +0.000 OA
ENDBRANCH  12  15
ENDBRANCH  11  12
ENDBRANCH   1  11
TORSDOF 4
ENDMDL
MODEL 5
REMARK VINA RESULT:      -6.0      1.784      2.389
REMARK  Name = 
REMARK  6 active torsions:
REMARK  status: ('A' for Active; 'I' for Inactive)
REMARK    1  A    between atoms: C_1  and  O_2
REMARK    2  A    between atoms: O_2  and  C_3
REMARK    3  A    between atoms: C_3  and  C_5
REMARK    4  A    between atoms: C_5  and  S_6
REMARK    5  A    between atoms: S_6  and  C_9
REMARK    6  A    between atoms: C_12  and  C_13
REMARK                            x       y       z     vdW  Elec       q    Type
REMARK                         _______ _______ _______ _____ _____    ______ ____
ROOT
ATOM      1  S   UNL     1       5.800   5.344  18.446  0.00  0.00    +0.000 S 
ATOM      2  O   UNL     1       6.469   5.134  19.717  0.00  0.00    +0.000 OA
ATOM      3  O   UNL     1       5.362   6.661  18.021  0.00  0.00    +0.000 OA
ENDROOT
BRANCH   1   4
ATOM      4  C   UNL     1       4.317   4.348  18.486  0.00  0.00    +0.000 A 
ATOM      5  C   UNL     1       4.199   3.321  19.425  0.00  0.00    +0.000 A 
ATOM      6  C   UNL     1       3.002   2.610  19.523  0.00  0.00    +0.000 A 
ATOM      7  C   UNL     1       1.921   2.920  18.689  0.00  0.00    +0.000 A 
ATOM      8  C   UNL     1       0.619   2.181  18.813  0.00  0.00    +0.000 C 
ATOM      9  C   UNL     1       2.055   3.950  17.747  0.00  0.00    +0.000 A 
ATOM     10  C   UNL     1       3.249   4.671  17.647  0.00  0.00    +0.000 A 
ENDBRANCH   1   4
BRANCH   1  11
ATOM     11  C   UNL     1       6.785   4.609  17.178  0.00  0.00    +0.000 C 
BRANCH  11  12
ATOM     12  C   UNL     1       7.068   5.639  16.131  0.00  0.00    +0.000 C 
ATOM     13  O   UNL     1       7.809   6.602  16.240  0.00  0.00    +0.000 OA
BRANCH  12  15
ATOM     14  C   UNL     1       6.036   4.005  14.805  0.00  0.00    +0.000 C 
ATOM     15  O   UNL     1       6.294   5.395  15.030  0.00  0.00    +0.000 OA
ENDBRANCH  12  15
ENDBRANCH  11  12
ENDBRANCH   1  11
TORSDOF 4
ENDMDL
MODEL 6
REMARK VINA RESULT:      -5.9      1.806      2.637
REMARK  Name = 
REMARK  6 active torsions:
REMARK  status: ('A' for Active; 'I' for Inactive)
REMARK    1  A    between atoms: C_1  and  O_2
REMARK    2  A    between atoms: O_2  and  C_3
REMARK    3  A    between atoms: C_3  and  C_5
REMARK    4  A    between atoms: C_5  and  S_6
REMARK    5  A    between atoms: S_6  and  C_9
REMARK    6  A    between atoms: C_12  and  C_13
REMARK                            x       y       z     vdW  Elec       q    Type
REMARK                         _______ _______ _______ _____ _____    ______ ____
ROOT
ATOM      1  S   UNL     1       5.768   5.405  18.408  0.00  0.00    +0.000 S 
ATOM      2  O   UNL     1       6.474   5.243  19.667  0.00  0.00    +0.000 OA
ATOM      3  O   UNL     1       5.416   6.714  17.892  0.00  0.00    +0.000 OA
ENDROOT
BRANCH   1   4
ATOM      4  C   UNL     1       4.215   4.541  18.589  0.00  0.00    +0.000 A 
ATOM      5  C   UNL     1       3.144   4.859  17.750  0.00  0.00    +0.000 A 
ATOM      6  C   UNL     1       1.964   4.116  17.824  0.00  0.00    +0.000 A 
ATOM      7  C   UNL     1       1.849   3.054  18.729  0.00  0.00    +0.000 A 
ATOM      8  C   UNL     1       0.595   2.230  18.790  0.00  0.00    +0.000 C 
ATOM      9  C   UNL     1       2.929   2.749  19.570  0.00  0.00    +0.000 A 
ATOM     10  C   UNL     1       4.116   3.485  19.498  0.00  0.00    +0.000 A 
ENDBRANCH   1   4
BRANCH   1  11
ATOM     11  C   UNL     1       6.634   4.491  17.170  0.00  0.00    +0.000 C 
BRANCH  11  12
ATOM     12  C   UNL     1       6.891   5.390  16.002  0.00  0.00    +0.000 C 
ATOM     13  O   UNL     1       7.741   6.262  15.928  0.00  0.00    +0.000 OA
BRANCH  12  15
ATOM     14  C   UNL     1       6.109   3.878  14.391  0.00  0.00    +0.000 C 
ATOM     15  O   UNL     1       5.959   5.151  15.029  0.00  0.00    +0.000 OA
ENDBRANCH  12  15
ENDBRANCH  11  12
ENDBRANCH   1  11
TORSDOF 4
ENDMDL
MODEL 7
REMARK VINA RESULT:      -5.9      2.167      2.886
REMARK  Name = 
REMARK  6 active torsions:
REMARK  status: ('A' for Active; 'I' for Inactive)
REMARK    1  A    between atoms: C_1  and  O_2
REMARK    2  A    between atoms: O_2  and  C_3
REMARK    3  A    between atoms: C_3  and  C_5
REMARK    4  A    between atoms: C_5  and  S_6
REMARK    5  A    between atoms: S_6  and  C_9
REMARK    6  A    between atoms: C_12  and  C_13
REMARK                            x       y       z     vdW  Elec       q    Type
REMARK                         _______ _______ _______ _____ _____    ______ ____
ROOT
ATOM      1  S   UNL     1       6.010   6.208  16.677  0.00  0.00    +0.000 S 
ATOM      2  O   UNL     1       7.003   6.889  17.487  0.00  0.00    +0.000 OA
ATOM      3  O   UNL     1       5.347   6.866  15.566  0.00  0.00    +0.000 OA
ENDROOT
BRANCH   1   4
ATOM      4  C   UNL     1       4.695   5.730  17.788  0.00  0.00    +0.000 A 
ATOM      5  C   UNL     1       4.844   4.596  18.589  0.00  0.00    +0.000 A 
ATOM      6  C   UNL     1       3.862   4.280  19.530  0.00  0.00    +0.000 A 
ATOM      7  C   UNL     1       2.731   5.093  19.675  0.00  0.00    +0.000 A 
ATOM      8  C   UNL     1       1.687   4.777  20.707  0.00  0.00    +0.000 C 
ATOM      9  C   UNL     1       2.590   6.225  18.860  0.00  0.00    +0.000 A 
ATOM     10  C   UNL     1       3.574   6.551  17.921  0.00  0.00    +0.000 A 
ENDBRANCH   1   4
BRANCH   1  11
ATOM     11  C   UNL     1       6.699   4.676  16.133  0.00  0.00    +0.000 C 
BRANCH  11  12
ATOM     12  C   UNL     1       6.932   4.751  14.657  0.00  0.00    +0.000 C 
ATOM     13  O   UNL     1       7.801   5.393  14.089  0.00  0.00    +0.000 OA
BRANCH  12  15
ATOM     14  C   UNL     1       6.346   3.595  12.704  0.00  0.00    +0.000 C 
ATOM     15  O   UNL     1       5.956   4.048  14.005  0.00  0.00    +0.000 OA
ENDBRANCH  12  15
ENDBRANCH  11  12
ENDBRANCH   1  11
TORSDOF 4
ENDMDL
MODEL 8
REMARK VINA RESULT:      -5.9      2.692      3.642
REMARK  Name = 
REMARK  6 active torsions:
REMARK  status: ('A' for Active; 'I' for Inactive)
REMARK    1  A    between atoms: C_1  and  O_2
REMARK    2  A    between atoms: O_2  and  C_3
REMARK    3  A    between atoms: C_3  and  C_5
REMARK    4  A    between atoms: C_5  and  S_6
REMARK    5  A    between atoms: S_6  and  C_9
REMARK    6  A    between atoms: C_12  and  C_13
REMARK                            x       y       z     vdW  Elec       q    Type
REMARK                         _______ _______ _______ _____ _____    ______ ____
ROOT
ATOM      1  S   UNL     1       6.648   5.095  16.144  0.00  0.00    +0.000 S 
ATOM      2  O   UNL     1       7.863   4.377  16.487  0.00  0.00    +0.000 OA
ATOM      3  O   UNL     1       6.551   6.538  16.270  0.00  0.00    +0.000 OA
ENDROOT
BRANCH   1   4
ATOM      4  C   UNL     1       5.364   4.447  17.203  0.00  0.00    +0.000 A 
ATOM      5  C   UNL     1       4.184   3.956  16.640  0.00  0.00    +0.000 A 
ATOM      6  C   UNL     1       3.225   3.357  17.459  0.00  0.00    +0.000 A 
ATOM      7  C   UNL     1       3.438   3.245  18.838  0.00  0.00    +0.000 A 
ATOM      8  C   UNL     1       2.424   2.573  19.719  0.00  0.00    +0.000 C 
ATOM      9  C   UNL     1       4.624   3.748  19.392  0.00  0.00    +0.000 A 
ATOM     10  C   UNL     1       5.593   4.343  18.577  0.00  0.00    +0.000 A 
ENDBRANCH   1   4
BRANCH   1  11
ATOM     11  C   UNL     1       6.161   4.608  14.519  0.00  0.00    +0.000 C 
BRANCH  11  12
ATOM     12  C   UNL     1       7.286   4.891  13.575  0.00  0.00    +0.000 C 
ATOM     13  O   UNL     1       8.179   5.708  13.731  0.00  0.00    +0.000 OA
BRANCH  12  15
ATOM     14  C   UNL     1       5.922   3.372  12.423  0.00  0.00    +0.000 C 
ATOM     15  O   UNL     1       7.125   4.147  12.438  0.00  0.00    +0.000 OA
ENDBRANCH  12  15
ENDBRANCH  11  12
ENDBRANCH   1  11
TORSDOF 4
ENDMDL
MODEL 9
REMARK VINA RESULT:      -5.9      2.133      2.887
REMARK  Name = 
REMARK  6 active torsions:
REMARK  status: ('A' for Active; 'I' for Inactive)
REMARK    1  A    between atoms: C_1  and  O_2
REMARK    2  A    between atoms: O_2  and  C_3
REMARK    3  A    between atoms: C_3  and  C_5
REMARK    4  A    between atoms: C_5  and  S_6
REMARK    5  A    between atoms: S_6  and  C_9
REMARK    6  A    between atoms: C_12  and  C_13
REMARK                            x       y       z     vdW  Elec       q    Type
REMARK                         _______ _______ _______ _____ _____    ______ ____
ROOT
ATOM      1  S   UNL     1       6.004   5.408  17.103  0.00  0.00    +0.000 S 
ATOM      2  O   UNL     1       6.991   4.357  17.277  0.00  0.00    +0.000 OA
ATOM      3  O   UNL     1       6.236   6.761  17.575  0.00  0.00    +0.000 OA
ENDROOT
BRANCH   1   4
ATOM      4  C   UNL     1       4.531   4.863  17.954  0.00  0.00    +0.000 A 
ATOM      5  C   UNL     1       4.635   3.928  18.986  0.00  0.00    +0.000 A 
ATOM      6  C   UNL     1       3.498   3.578  19.718  0.00  0.00    +0.000 A 
ATOM      7  C   UNL     1       2.258   4.157  19.424  0.00  0.00    +0.000 A 
ATOM      8  C   UNL     1       1.038   3.809  20.228  0.00  0.00    +0.000 C 
ATOM      9  C   UNL     1       2.167   5.089  18.380  0.00  0.00    +0.000 A 
ATOM     10  C   UNL     1       3.302   5.450  17.648  0.00  0.00    +0.000 A 
ENDBRANCH   1   4
BRANCH   1  11
ATOM     11  C   UNL     1       5.536   5.446  15.401  0.00  0.00    +0.000 C 
BRANCH  11  12
ATOM     12  C   UNL     1       6.653   4.880  14.583  0.00  0.00    +0.000 C 
ATOM     13  O   UNL     1       7.696   5.441  14.289  0.00  0.00    +0.000 OA
BRANCH  12  15
ATOM     14  C   UNL     1       6.228   3.555  12.697  0.00  0.00    +0.000 C 
ATOM     15  O   UNL     1       6.300   3.641  14.124  0.00  0.00    +0.000 OA
ENDBRANCH  12  15
ENDBRANCH  11  12
ENDBRANCH   1  11
TORSDOF 4
ENDMDL
