MODEL 1
REMARK VINA RESULT:      -7.8      0.000      0.000
REMARK  Name = 
REMARK  8 active torsions:
REMARK  status: ('A' for Active; 'I' for Inactive)
REMARK    1  A    between atoms: C_2  and  O_3
REMARK    2  A    between atoms: C_2  and  C_4
REMARK    3  A    between atoms: C_8  and  C_9
REMARK    4  A    between atoms: C_9  and  C_10
REMARK    5  A    between atoms: C_10  and  N_11
REMARK    6  A    between atoms: N_11  and  N_12
REMARK    7  A    between atoms: C_13  and  C_14
REMARK    8  A    between atoms: C_17  and  C_18
REMARK                            x       y       z     vdW  Elec       q    Type
REMARK                         _______ _______ _______ _____ _____    ______ ____
ROOT
ATOM      1  N   UNL     1       2.332   7.130  19.968  0.00  0.00    +0.000 N 
ATOM      2  H   UNL     1       3.105   7.046  20.631  0.00  0.00    +0.000 HD
ENDROOT
BRANCH   1   3
ATOM      3  N   UNL     1       1.661   8.319  20.048  0.00  0.00    +0.000 NA
ATOM      4  C   UNL     1       1.521   8.948  18.922  0.00  0.00    +0.000 C 
BRANCH   4   5
ATOM      5  C   UNL     1       0.719  10.133  18.791  0.00  0.00    +0.000 A 
ATOM      6  C   UNL     1       1.089  11.458  18.902  0.00  0.00    +0.000 A 
ATOM      7  C   UNL     1      -0.069  12.224  18.638  0.00  0.00    +0.000 A 
ATOM      8  C   UNL     1      -1.105  11.332  18.426  0.00  0.00    +0.000 A 
ATOM      9  O   UNL     1      -0.614  10.053  18.487  0.00  0.00    +0.000 OA
BRANCH   8  10
ATOM     10  C   UNL     1      -2.541  11.487  18.210  0.00  0.00    +0.000 A 
ATOM     11  C   UNL     1      -3.396  11.939  19.229  0.00  0.00    +0.000 A 
ATOM     12  C   UNL     1      -4.757  12.164  18.980  0.00  0.00    +0.000 A 
ATOM     13  C   UNL     1      -5.280  11.936  17.709  0.00  0.00    +0.000 A 
ATOM     14 CL   UNL     1      -6.941  12.254  17.391  0.00  0.00    +0.000 Cl
ATOM     15  C   UNL     1      -4.462  11.460  16.693  0.00  0.00    +0.000 A 
ATOM     16  C   UNL     1      -3.112  11.240  16.951  0.00  0.00    +0.000 A 
ATOM     17  F   UNL     1      -2.360  10.791  15.932  0.00  0.00    +0.000 F 
ENDBRANCH   8  10
ENDBRANCH   4   5
ENDBRANCH   1   3
BRANCH   1  18
ATOM     18  C   UNL     1       2.808   6.808  18.618  0.00  0.00    +0.000 C 
BRANCH  18  19
ATOM     19  C   UNL     1       2.212   5.495  18.090  0.00  0.00    +0.000 C 
BRANCH  19  24
ATOM     20  C   UNL     1       3.050   2.927  20.004  0.00  0.00    +0.000 C 
ATOM     21  C   UNL     1       2.525   1.808  19.093  0.00  0.00    +0.000 C 
ATOM     22  N   UNL     1       1.852   2.306  17.889  0.00  0.00    +0.000 NA
ATOM     23  C   UNL     1       2.711   3.187  17.101  0.00  0.00    +0.000 C 
ATOM     24  C   UNL     1       3.274   4.387  17.891  0.00  0.00    +0.000 C 
ATOM     25  C   UNL     1       3.936   3.879  19.188  0.00  0.00    +0.000 C 
ATOM     26  H   UNL     1       1.000   2.800  18.173  0.00  0.00    +0.000 HD
BRANCH  20  28
ATOM     27  O   UNL     1       2.026   4.605  21.446  0.00  0.00    +0.000 OA
ATOM     28  C   UNL     1       1.907   3.612  20.743  0.00  0.00    +0.000 C 
BRANCH  28  29
ATOM     29  O   UNL     1       0.701   3.040  20.546  0.00  0.00    +0.000 OA
ATOM     30  H   UNL     1       0.658   2.393  19.817  0.00  0.00    +0.000 HD
ENDBRANCH  28  29
ENDBRANCH  20  28
ENDBRANCH  19  24
ENDBRANCH  18  19
ENDBRANCH   1  18
TORSDOF 8
ENDMDL
MODEL 2
REMARK VINA RESULT:      -7.7      7.687     10.932
REMARK  Name = 
REMARK  8 active torsions:
REMARK  status: ('A' for Active; 'I' for Inactive)
REMARK    1  A    between atoms: C_2  and  O_3
REMARK    2  A    between atoms: C_2  and  C_4
REMARK    3  A    between atoms: C_8  and  C_9
REMARK    4  A    between atoms: C_9  and  C_10
REMARK    5  A    between atoms: C_10  and  N_11
REMARK    6  A    between atoms: N_11  and  N_12
REMARK    7  A    between atoms: C_13  and  C_14
REMARK    8  A    between atoms: C_17  and  C_18
REMARK                            x       y       z     vdW  Elec       q    Type
REMARK                         _______ _______ _______ _____ _____    ______ ____
ROOT
ATOM      1  N   UNL     1       8.673   9.302  18.571  0.00  0.00    +0.000 N 
ATOM      2  H   UNL     1       8.175   9.443  19.453  0.00  0.00    +0.000 HD
ENDROOT
BRANCH   1   3
ATOM      3  N   UNL     1       8.013   8.493  17.688  0.00  0.00    +0.000 NA
ATOM      4  C   UNL     1       7.760   7.296  18.121  0.00  0.00    +0.000 C 
BRANCH   4   5
ATOM      5  C   UNL     1       6.949   6.362  17.391  0.00  0.00    +0.000 A 
ATOM      6  C   UNL     1       7.078   5.921  16.090  0.00  0.00    +0.000 A 
ATOM      7  C   UNL     1       6.051   4.973  15.882  0.00  0.00    +0.000 A 
ATOM      8  C   UNL     1       5.311   4.915  17.048  0.00  0.00    +0.000 A 
ATOM      9  O   UNL     1       5.882   5.741  17.982  0.00  0.00    +0.000 OA
BRANCH   8  10
ATOM     10  C   UNL     1       4.085   4.218  17.433  0.00  0.00    +0.000 A 
ATOM     11  C   UNL     1       4.043   2.820  17.569  0.00  0.00    +0.000 A 
ATOM     12  C   UNL     1       2.884   2.176  18.022  0.00  0.00    +0.000 A 
ATOM     13  C   UNL     1       1.751   2.922  18.342  0.00  0.00    +0.000 A 
ATOM     14 CL   UNL     1       0.343   2.136  18.940  0.00  0.00    +0.000 Cl
ATOM     15  C   UNL     1       1.758   4.302  18.188  0.00  0.00    +0.000 A 
ATOM     16  C   UNL     1       2.915   4.932  17.737  0.00  0.00    +0.000 A 
ATOM     17  F   UNL     1       2.875   6.269  17.616  0.00  0.00    +0.000 F 
ENDBRANCH   8  10
ENDBRANCH   4   5
ENDBRANCH   1   3
BRANCH   1  18
ATOM     18  C   UNL     1       9.057  10.602  18.011  0.00  0.00    +0.000 C 
BRANCH  18  19
ATOM     19  C   UNL     1       9.178  11.687  19.090  0.00  0.00    +0.000 C 
BRANCH  19  24
ATOM     20  C   UNL     1      12.148  13.078  18.639  0.00  0.00    +0.000 C 
ATOM     21  C   UNL     1      12.125  14.019  19.853  0.00  0.00    +0.000 C 
ATOM     22  N   UNL     1      10.864  13.971  20.601  0.00  0.00    +0.000 NA
ATOM     23  C   UNL     1      10.539  12.618  21.049  0.00  0.00    +0.000 C 
ATOM     24  C   UNL     1      10.485  11.575  19.912  0.00  0.00    +0.000 C 
ATOM     25  C   UNL     1      11.784  11.655  19.085  0.00  0.00    +0.000 C 
ATOM     26  H   UNL     1      10.117  14.338  20.003  0.00  0.00    +0.000 HD
BRANCH  20  28
ATOM     27  O   UNL     1      11.214  13.141  16.388  0.00  0.00    +0.000 OA
ATOM     28  C   UNL     1      11.283  13.624  17.510  0.00  0.00    +0.000 C 
BRANCH  28  29
ATOM     29  O   UNL     1      10.550  14.704  17.848  0.00  0.00    +0.000 OA
ATOM     30  H   UNL     1      10.208  14.710  18.761  0.00  0.00    +0.000 HD
ENDBRANCH  28  29
ENDBRANCH  20  28
ENDBRANCH  19  24
ENDBRANCH  18  19
ENDBRANCH   1  18
TORSDOF 8
ENDMDL
MODEL 3
REMARK VINA RESULT:      -7.7      7.408      9.370
REMARK  Name = 
REMARK  8 active torsions:
REMARK  status: ('A' for Active; 'I' for Inactive)
REMARK    1  A    between atoms: C_2  and  O_3
REMARK    2  A    between atoms: C_2  and  C_4
REMARK    3  A    between atoms: C_8  and  C_9
REMARK    4  A    between atoms: C_9  and  C_10
REMARK    5  A    between atoms: C_10  and  N_11
REMARK    6  A    between atoms: N_11  and  N_12
REMARK    7  A    between atoms: C_13  and  C_14
REMARK    8  A    between atoms: C_17  and  C_18
REMARK                            x       y       z     vdW  Elec       q    Type
REMARK                         _______ _______ _______ _____ _____    ______ ____
ROOT
ATOM      1  N   UNL     1       6.981   6.608  17.000  0.00  0.00    +0.000 N 
ATOM      2  H   UNL     1       7.080   6.675  15.985  0.00  0.00    +0.000 HD
ENDROOT
BRANCH   1   3
ATOM      3  N   UNL     1       7.858   7.393  17.695  0.00  0.00    +0.000 NA
ATOM      4  C   UNL     1       7.746   8.668  17.476  0.00  0.00    +0.000 C 
BRANCH   4   5
ATOM      5  C   UNL     1       8.480   9.650  18.225  0.00  0.00    +0.000 A 
ATOM      6  C   UNL     1       9.004   9.566  19.499  0.00  0.00    +0.000 A 
ATOM      7  C   UNL     1       9.671  10.789  19.741  0.00  0.00    +0.000 A 
ATOM      8  C   UNL     1       9.481  11.582  18.625  0.00  0.00    +0.000 A 
ATOM      9  O   UNL     1       8.780  10.871  17.685  0.00  0.00    +0.000 OA
BRANCH   8  10
ATOM     10  C   UNL     1       9.825  12.964  18.298  0.00  0.00    +0.000 A 
ATOM     11  C   UNL     1      10.833  13.273  17.370  0.00  0.00    +0.000 A 
ATOM     12  C   UNL     1      11.091  14.601  17.004  0.00  0.00    +0.000 A 
ATOM     13  C   UNL     1      10.345  15.636  17.564  0.00  0.00    +0.000 A 
ATOM     14 CL   UNL     1      10.632  17.263  17.081  0.00  0.00    +0.000 Cl
ATOM     15  C   UNL     1       9.364  15.359  18.505  0.00  0.00    +0.000 A 
ATOM     16  C   UNL     1       9.115  14.036  18.863  0.00  0.00    +0.000 A 
ATOM     17  F   UNL     1       8.147  13.819  19.768  0.00  0.00    +0.000 F 
ENDBRANCH   8  10
ENDBRANCH   4   5
ENDBRANCH   1   3
BRANCH   1  18
ATOM     18  C   UNL     1       5.576   6.816  17.370  0.00  0.00    +0.000 C 
BRANCH  18  19
ATOM     19  C   UNL     1       4.787   5.500  17.419  0.00  0.00    +0.000 C 
BRANCH  19  24
ATOM     20  C   UNL     1       2.624   3.502  18.933  0.00  0.00    +0.000 C 
ATOM     21  C   UNL     1       2.466   4.310  20.230  0.00  0.00    +0.000 C 
ATOM     22  N   UNL     1       3.331   5.494  20.287  0.00  0.00    +0.000 NA
ATOM     23  C   UNL     1       3.119   6.387  19.149  0.00  0.00    +0.000 C 
ATOM     24  C   UNL     1       3.294   5.706  17.774  0.00  0.00    +0.000 C 
ATOM     25  C   UNL     1       2.431   4.429  17.725  0.00  0.00    +0.000 C 
ATOM     26  H   UNL     1       4.307   5.182  20.319  0.00  0.00    +0.000 HD
BRANCH  20  28
ATOM     27  O   UNL     1       4.822   2.853  19.764  0.00  0.00    +0.000 OA
ATOM     28  C   UNL     1       3.937   2.730  18.928  0.00  0.00    +0.000 C 
BRANCH  28  29
ATOM     29  O   UNL     1       4.056   1.849  17.914  0.00  0.00    +0.000 OA
ATOM     30  H   UNL     1       4.687   1.120  18.063  0.00  0.00    +0.000 HD
ENDBRANCH  28  29
ENDBRANCH  20  28
ENDBRANCH  19  24
ENDBRANCH  18  19
ENDBRANCH   1  18
TORSDOF 8
ENDMDL
MODEL 4
REMARK VINA RESULT:      -7.6      3.892      5.076
REMARK  Name = 
REMARK  8 active torsions:
REMARK  status: ('A' for Active; 'I' for Inactive)
REMARK    1  A    between atoms: C_2  and  O_3
REMARK    2  A    between atoms: C_2  and  C_4
REMARK    3  A    between atoms: C_8  and  C_9
REMARK    4  A    between atoms: C_9  and  C_10
REMARK    5  A    between atoms: C_10  and  N_11
REMARK    6  A    between atoms: N_11  and  N_12
REMARK    7  A    between atoms: C_13  and  C_14
REMARK    8  A    between atoms: C_17  and  C_18
REMARK                            x       y       z     vdW  Elec       q    Type
REMARK                         _______ _______ _______ _____ _____    ______ ____
ROOT
ATOM      1  N   UNL     1       2.898   3.830  19.971  0.00  0.00    +0.000 N 
ATOM      2  H   UNL     1       3.716   3.986  20.564  0.00  0.00    +0.000 HD
ENDROOT
BRANCH   1   3
ATOM      3  N   UNL     1       2.150   4.954  19.754  0.00  0.00    +0.000 NA
ATOM      4  C   UNL     1       2.760   6.075  19.991  0.00  0.00    +0.000 C 
BRANCH   4   5
ATOM      5  C   UNL     1       2.183   7.352  19.678  0.00  0.00    +0.000 A 
ATOM      6  C   UNL     1       2.104   8.004  18.464  0.00  0.00    +0.000 A 
ATOM      7  C   UNL     1       1.398   9.206  18.696  0.00  0.00    +0.000 A 
ATOM      8  C   UNL     1       1.121   9.258  20.050  0.00  0.00    +0.000 A 
ATOM      9  O   UNL     1       1.573   8.107  20.644  0.00  0.00    +0.000 OA
BRANCH   8  10
ATOM     10  C   UNL     1       0.517  10.265  20.919  0.00  0.00    +0.000 A 
ATOM     11  C   UNL     1       0.731  11.639  20.716  0.00  0.00    +0.000 A 
ATOM     12  C   UNL     1       0.076  12.594  21.504  0.00  0.00    +0.000 A 
ATOM     13  C   UNL     1      -0.800  12.186  22.509  0.00  0.00    +0.000 A 
ATOM     14 CL   UNL     1      -1.638  13.359  23.448  0.00  0.00    +0.000 Cl
ATOM     15  C   UNL     1      -1.005  10.835  22.749  0.00  0.00    +0.000 A 
ATOM     16  C   UNL     1      -0.349   9.894  21.960  0.00  0.00    +0.000 A 
ATOM     17  F   UNL     1      -0.590   8.599  22.224  0.00  0.00    +0.000 F 
ENDBRANCH   8  10
ENDBRANCH   4   5
ENDBRANCH   1   3
BRANCH   1  18
ATOM     18  C   UNL     1       3.309   3.144  18.741  0.00  0.00    +0.000 C 
BRANCH  18  19
ATOM     19  C   UNL     1       4.667   3.639  18.225  0.00  0.00    +0.000 C 
BRANCH  19  24
ATOM     20  C   UNL     1       6.870   5.813  17.050  0.00  0.00    +0.000 C 
ATOM     21  C   UNL     1       7.037   5.205  15.650  0.00  0.00    +0.000 C 
ATOM     22  N   UNL     1       6.274   3.967  15.459  0.00  0.00    +0.000 NA
ATOM     23  C   UNL     1       4.849   4.151  15.723  0.00  0.00    +0.000 C 
ATOM     24  C   UNL     1       4.537   4.719  17.124  0.00  0.00    +0.000 C 
ATOM     25  C   UNL     1       5.376   5.992  17.356  0.00  0.00    +0.000 C 
ATOM     26  H   UNL     1       6.661   3.248  16.078  0.00  0.00    +0.000 HD
BRANCH  20  28
ATOM     27  O   UNL     1       8.395   4.082  17.837  0.00  0.00    +0.000 OA
ATOM     28  C   UNL     1       7.633   5.004  18.091  0.00  0.00    +0.000 C 
BRANCH  28  29
ATOM     29  O   UNL     1       7.421   5.400  19.363  0.00  0.00    +0.000 OA
ATOM     30  H   UNL     1       7.859   6.232  19.622  0.00  0.00    +0.000 HD
ENDBRANCH  28  29
ENDBRANCH  20  28
ENDBRANCH  19  24
ENDBRANCH  18  19
ENDBRANCH   1  18
TORSDOF 8
ENDMDL
MODEL 5
REMARK VINA RESULT:      -7.5      7.290      9.216
REMARK  Name = 
REMARK  8 active torsions:
REMARK  status: ('A' for Active; 'I' for Inactive)
REMARK    1  A    between atoms: C_2  and  O_3
REMARK    2  A    between atoms: C_2  and  C_4
REMARK    3  A    between atoms: C_8  and  C_9
REMARK    4  A    between atoms: C_9  and  C_10
REMARK    5  A    between atoms: C_10  and  N_11
REMARK    6  A    between atoms: N_11  and  N_12
REMARK    7  A    between atoms: C_13  and  C_14
REMARK    8  A    between atoms: C_17  and  C_18
REMARK                            x       y       z     vdW  Elec       q    Type
REMARK                         _______ _______ _______ _____ _____    ______ ____
ROOT
ATOM      1  N   UNL     1       6.408   6.526  16.809  0.00  0.00    +0.000 N 
ATOM      2  H   UNL     1       6.377   6.559  15.788  0.00  0.00    +0.000 HD
ENDROOT
BRANCH   1   3
ATOM      3  N   UNL     1       7.416   7.270  17.357  0.00  0.00    +0.000 NA
ATOM      4  C   UNL     1       7.244   8.555  17.300  0.00  0.00    +0.000 C 
BRANCH   4   5
ATOM      5  C   UNL     1       8.123   9.484  17.954  0.00  0.00    +0.000 A 
ATOM      6  C   UNL     1       8.945   9.291  19.046  0.00  0.00    +0.000 A 
ATOM      7  C   UNL     1       9.632  10.509  19.253  0.00  0.00    +0.000 A 
ATOM      8  C   UNL     1       9.161  11.406  18.311  0.00  0.00    +0.000 A 
ATOM      9  O   UNL     1       8.262  10.767  17.496  0.00  0.00    +0.000 OA
BRANCH   8  10
ATOM     10  C   UNL     1       9.392  12.827  18.066  0.00  0.00    +0.000 A 
ATOM     11  C   UNL     1       8.489  13.808  18.507  0.00  0.00    +0.000 A 
ATOM     12  C   UNL     1       8.768  15.171  18.340  0.00  0.00    +0.000 A 
ATOM     13  C   UNL     1       9.954  15.570  17.726  0.00  0.00    +0.000 A 
ATOM     14 CL   UNL     1      10.317  17.243  17.560  0.00  0.00    +0.000 Cl
ATOM     15  C   UNL     1      10.849  14.619  17.255  0.00  0.00    +0.000 A 
ATOM     16  C   UNL     1      10.562  13.268  17.425  0.00  0.00    +0.000 A 
ATOM     17  F   UNL     1      11.465  12.387  16.963  0.00  0.00    +0.000 F 
ENDBRANCH   8  10
ENDBRANCH   4   5
ENDBRANCH   1   3
BRANCH   1  18
ATOM     18  C   UNL     1       5.080   6.837  17.350  0.00  0.00    +0.000 C 
BRANCH  18  19
ATOM     19  C   UNL     1       4.294   5.573  17.724  0.00  0.00    +0.000 C 
BRANCH  19  24
ATOM     20  C   UNL     1       1.917   3.591  18.900  0.00  0.00    +0.000 C 
ATOM     21  C   UNL     1       1.802   4.211  20.300  0.00  0.00    +0.000 C 
ATOM     22  N   UNL     1       2.771   5.286  20.542  0.00  0.00    +0.000 NA
ATOM     23  C   UNL     1       2.673   6.351  19.547  0.00  0.00    +0.000 C 
ATOM     24  C   UNL     1       2.818   5.866  18.089  0.00  0.00    +0.000 C 
ATOM     25  C   UNL     1       1.841   4.699  17.841  0.00  0.00    +0.000 C 
ATOM     26  H   UNL     1       3.713   4.880  20.539  0.00  0.00    +0.000 HD
BRANCH  20  28
ATOM     27  O   UNL     1       3.438   2.018  17.825  0.00  0.00    +0.000 OA
ATOM     28  C   UNL     1       3.152   2.705  18.796  0.00  0.00    +0.000 C 
BRANCH  28  29
ATOM     29  O   UNL     1       3.954   2.746  19.880  0.00  0.00    +0.000 OA
ATOM     30  H   UNL     1       3.559   2.413  20.707  0.00  0.00    +0.000 HD
ENDBRANCH  28  29
ENDBRANCH  20  28
ENDBRANCH  19  24
ENDBRANCH  18  19
ENDBRANCH   1  18
TORSDOF 8
ENDMDL
MODEL 6
REMARK VINA RESULT:      -7.5      3.585      4.613
REMARK  Name = 
REMARK  8 active torsions:
REMARK  status: ('A' for Active; 'I' for Inactive)
REMARK    1  A    between atoms: C_2  and  O_3
REMARK    2  A    between atoms: C_2  and  C_4
REMARK    3  A    between atoms: C_8  and  C_9
REMARK    4  A    between atoms: C_9  and  C_10
REMARK    5  A    between atoms: C_10  and  N_11
REMARK    6  A    between atoms: N_11  and  N_12
REMARK    7  A    between atoms: C_13  and  C_14
REMARK    8  A    between atoms: C_17  and  C_18
REMARK                            x       y       z     vdW  Elec       q    Type
REMARK                         _______ _______ _______ _____ _____    ______ ____
ROOT
ATOM      1  N   UNL     1       2.971   4.398  20.043  0.00  0.00    +0.000 N 
ATOM      2  H   UNL     1       3.888   4.393  20.495  0.00  0.00    +0.000 HD
ENDROOT
BRANCH   1   3
ATOM      3  N   UNL     1       2.318   5.596  20.130  0.00  0.00    +0.000 NA
ATOM      4  C   UNL     1       2.788   6.535  19.368  0.00  0.00    +0.000 C 
BRANCH   4   5
ATOM      5  C   UNL     1       2.140   7.809  19.218  0.00  0.00    +0.000 A 
ATOM      6  C   UNL     1       2.217   8.713  18.178  0.00  0.00    +0.000 A 
ATOM      7  C   UNL     1       1.350   9.780  18.507  0.00  0.00    +0.000 A 
ATOM      8  C   UNL     1       0.820   9.502  19.753  0.00  0.00    +0.000 A 
ATOM      9  O   UNL     1       1.279   8.279  20.172  0.00  0.00    +0.000 OA
BRANCH   8  10
ATOM     10  C   UNL     1      -0.044  10.241  20.671  0.00  0.00    +0.000 A 
ATOM     11  C   UNL     1      -0.055   9.975  22.050  0.00  0.00    +0.000 A 
ATOM     12  C   UNL     1      -0.825  10.751  22.926  0.00  0.00    +0.000 A 
ATOM     13  C   UNL     1      -1.597  11.801  22.433  0.00  0.00    +0.000 A 
ATOM     14 CL   UNL     1      -2.509  12.781  23.514  0.00  0.00    +0.000 Cl
ATOM     15  C   UNL     1      -1.627  12.065  21.071  0.00  0.00    +0.000 A 
ATOM     16  C   UNL     1      -0.858  11.288  20.208  0.00  0.00    +0.000 A 
ATOM     17  F   UNL     1      -0.911  11.591  18.901  0.00  0.00    +0.000 F 
ENDBRANCH   8  10
ENDBRANCH   4   5
ENDBRANCH   1   3
BRANCH   1  18
ATOM     18  C   UNL     1       3.098   3.890  18.672  0.00  0.00    +0.000 C 
BRANCH  18  19
ATOM     19  C   UNL     1       4.530   4.016  18.136  0.00  0.00    +0.000 C 
BRANCH  19  24
ATOM     20  C   UNL     1       7.058   5.731  16.859  0.00  0.00    +0.000 C 
ATOM     21  C   UNL     1       7.286   4.868  15.609  0.00  0.00    +0.000 C 
ATOM     22  N   UNL     1       6.412   3.691  15.548  0.00  0.00    +0.000 NA
ATOM     23  C   UNL     1       4.997   4.051  15.618  0.00  0.00    +0.000 C 
ATOM     24  C   UNL     1       4.622   4.888  16.860  0.00  0.00    +0.000 C 
ATOM     25  C   UNL     1       5.571   6.098  16.964  0.00  0.00    +0.000 C 
ATOM     26  H   UNL     1       6.658   3.063  16.319  0.00  0.00    +0.000 HD
BRANCH  20  28
ATOM     27  O   UNL     1       7.409   5.409  19.250  0.00  0.00    +0.000 OA
ATOM     28  C   UNL     1       7.628   5.055  18.100  0.00  0.00    +0.000 C 
BRANCH  28  29
ATOM     29  O   UNL     1       8.404   3.984  17.838  0.00  0.00    +0.000 OA
ATOM     30  H   UNL     1       8.725   3.912  16.920  0.00  0.00    +0.000 HD
ENDBRANCH  28  29
ENDBRANCH  20  28
ENDBRANCH  19  24
ENDBRANCH  18  19
ENDBRANCH   1  18
TORSDOF 8
ENDMDL
MODEL 7
REMARK VINA RESULT:      -7.5      7.130     10.647
REMARK  Name = 
REMARK  8 active torsions:
REMARK  status: ('A' for Active; 'I' for Inactive)
REMARK    1  A    between atoms: C_2  and  O_3
REMARK    2  A    between atoms: C_2  and  C_4
REMARK    3  A    between atoms: C_8  and  C_9
REMARK    4  A    between atoms: C_9  and  C_10
REMARK    5  A    between atoms: C_10  and  N_11
REMARK    6  A    between atoms: N_11  and  N_12
REMARK    7  A    between atoms: C_13  and  C_14
REMARK    8  A    between atoms: C_17  and  C_18
REMARK                            x       y       z     vdW  Elec       q    Type
REMARK                         _______ _______ _______ _____ _____    ______ ____
ROOT
ATOM      1  N   UNL     1       8.096   9.051  17.437  0.00  0.00    +0.000 N 
ATOM      2  H   UNL     1       8.703   9.030  16.615  0.00  0.00    +0.000 HD
ENDROOT
BRANCH   1   3
ATOM      3  N   UNL     1       7.460   7.867  17.687  0.00  0.00    +0.000 NA
ATOM      4  C   UNL     1       6.553   7.537  16.820  0.00  0.00    +0.000 C 
BRANCH   4   5
ATOM      5  C   UNL     1       5.890   6.262  16.839  0.00  0.00    +0.000 A 
ATOM      6  C   UNL     1       5.850   5.282  15.869  0.00  0.00    +0.000 A 
ATOM      7  C   UNL     1       5.103   4.210  16.408  0.00  0.00    +0.000 A 
ATOM      8  C   UNL     1       4.678   4.605  17.664  0.00  0.00    +0.000 A 
ATOM      9  O   UNL     1       5.189   5.848  17.939  0.00  0.00    +0.000 OA
BRANCH   8  10
ATOM     10  C   UNL     1       3.805   4.004  18.669  0.00  0.00    +0.000 A 
ATOM     11  C   UNL     1       4.274   3.031  19.567  0.00  0.00    +0.000 A 
ATOM     12  C   UNL     1       3.447   2.528  20.580  0.00  0.00    +0.000 A 
ATOM     13  C   UNL     1       2.138   2.990  20.705  0.00  0.00    +0.000 A 
ATOM     14 CL   UNL     1       1.136   2.406  21.976  0.00  0.00    +0.000 Cl
ATOM     15  C   UNL     1       1.642   3.930  19.812  0.00  0.00    +0.000 A 
ATOM     16  C   UNL     1       2.471   4.423  18.809  0.00  0.00    +0.000 A 
ATOM     17  F   UNL     1       1.949   5.339  17.977  0.00  0.00    +0.000 F 
ENDBRANCH   8  10
ENDBRANCH   4   5
ENDBRANCH   1   3
BRANCH   1  18
ATOM     18  C   UNL     1       8.844   9.576  18.585  0.00  0.00    +0.000 C 
BRANCH  18  19
ATOM     19  C   UNL     1       9.091  11.087  18.476  0.00  0.00    +0.000 C 
BRANCH  19  24
ATOM     20  C   UNL     1      10.582  14.011  18.039  0.00  0.00    +0.000 C 
ATOM     21  C   UNL     1      11.448  13.995  19.307  0.00  0.00    +0.000 C 
ATOM     22  N   UNL     1      11.213  12.823  20.158  0.00  0.00    +0.000 NA
ATOM     23  C   UNL     1      11.416  11.568  19.435  0.00  0.00    +0.000 C 
ATOM     24  C   UNL     1      10.565  11.436  18.154  0.00  0.00    +0.000 C 
ATOM     25  C   UNL     1      10.762  12.689  17.279  0.00  0.00    +0.000 C 
ATOM     26  H   UNL     1      10.257  12.873  20.523  0.00  0.00    +0.000 HD
BRANCH  20  28
ATOM     27  O   UNL     1       8.655  14.340  19.496  0.00  0.00    +0.000 OA
ATOM     28  C   UNL     1       9.135  14.353  18.371  0.00  0.00    +0.000 C 
BRANCH  28  29
ATOM     29  O   UNL     1       8.392  14.706  17.302  0.00  0.00    +0.000 OA
ATOM     30  H   UNL     1       8.811  14.564  16.434  0.00  0.00    +0.000 HD
ENDBRANCH  28  29
ENDBRANCH  20  28
ENDBRANCH  19  24
ENDBRANCH  18  19
ENDBRANCH   1  18
TORSDOF 8
ENDMDL
MODEL 8
REMARK VINA RESULT:      -7.5      7.341      9.192
REMARK  Name = 
REMARK  8 active torsions:
REMARK  status: ('A' for Active; 'I' for Inactive)
REMARK    1  A    between atoms: C_2  and  O_3
REMARK    2  A    between atoms: C_2  and  C_4
REMARK    3  A    between atoms: C_8  and  C_9
REMARK    4  A    between atoms: C_9  and  C_10
REMARK    5  A    between atoms: C_10  and  N_11
REMARK    6  A    between atoms: N_11  and  N_12
REMARK    7  A    between atoms: C_13  and  C_14
REMARK    8  A    between atoms: C_17  and  C_18
REMARK                            x       y       z     vdW  Elec       q    Type
REMARK                         _______ _______ _______ _____ _____    ______ ____
ROOT
ATOM      1  N   UNL     1       6.500   6.777  16.891  0.00  0.00    +0.000 N 
ATOM      2  H   UNL     1       6.872   6.875  15.944  0.00  0.00    +0.000 HD
ENDROOT
BRANCH   1   3
ATOM      3  N   UNL     1       7.100   7.594  17.808  0.00  0.00    +0.000 NA
ATOM      4  C   UNL     1       7.886   8.498  17.308  0.00  0.00    +0.000 C 
BRANCH   4   5
ATOM      5  C   UNL     1       8.481   9.534  18.105  0.00  0.00    +0.000 A 
ATOM      6  C   UNL     1       9.001   9.466  19.382  0.00  0.00    +0.000 A 
ATOM      7  C   UNL     1       9.505  10.752  19.681  0.00  0.00    +0.000 A 
ATOM      8  C   UNL     1       9.225  11.560  18.594  0.00  0.00    +0.000 A 
ATOM      9  O   UNL     1       8.629  10.804  17.617  0.00  0.00    +0.000 OA
BRANCH   8  10
ATOM     10  C   UNL     1       9.394  12.986  18.326  0.00  0.00    +0.000 A 
ATOM     11  C   UNL     1       8.547  13.949  18.901  0.00  0.00    +0.000 A 
ATOM     12  C   UNL     1       8.775  15.317  18.702  0.00  0.00    +0.000 A 
ATOM     13  C   UNL     1       9.851  15.739  17.924  0.00  0.00    +0.000 A 
ATOM     14 CL   UNL     1      10.158  17.420  17.717  0.00  0.00    +0.000 Cl
ATOM     15  C   UNL     1      10.685  14.807  17.322  0.00  0.00    +0.000 A 
ATOM     16  C   UNL     1      10.449  13.450  17.525  0.00  0.00    +0.000 A 
ATOM     17  F   UNL     1      11.290  12.587  16.930  0.00  0.00    +0.000 F 
ENDBRANCH   8  10
ENDBRANCH   4   5
ENDBRANCH   1   3
BRANCH   1  18
ATOM     18  C   UNL     1       5.038   6.895  16.857  0.00  0.00    +0.000 C 
BRANCH  18  19
ATOM     19  C   UNL     1       4.340   5.623  17.358  0.00  0.00    +0.000 C 
BRANCH  19  24
ATOM     20  C   UNL     1       2.575   3.679  19.375  0.00  0.00    +0.000 C 
ATOM     21  C   UNL     1       3.729   2.799  19.879  0.00  0.00    +0.000 C 
ATOM     22  N   UNL     1       5.016   3.109  19.247  0.00  0.00    +0.000 NA
ATOM     23  C   UNL     1       5.389   4.512  19.414  0.00  0.00    +0.000 C 
ATOM     24  C   UNL     1       4.327   5.510  18.902  0.00  0.00    +0.000 C 
ATOM     25  C   UNL     1       2.958   5.159  19.519  0.00  0.00    +0.000 C 
ATOM     26  H   UNL     1       4.954   2.872  18.252  0.00  0.00    +0.000 HD
BRANCH  20  28
ATOM     27  O   UNL     1       2.606   2.318  17.353  0.00  0.00    +0.000 OA
ATOM     28  C   UNL     1       2.154   3.273  17.969  0.00  0.00    +0.000 C 
BRANCH  28  29
ATOM     29  O   UNL     1       1.194   4.054  17.432  0.00  0.00    +0.000 OA
ATOM     30  H   UNL     1       0.844   4.751  18.018  0.00  0.00    +0.000 HD
ENDBRANCH  28  29
ENDBRANCH  20  28
ENDBRANCH  19  24
ENDBRANCH  18  19
ENDBRANCH   1  18
TORSDOF 8
ENDMDL
MODEL 9
REMARK VINA RESULT:      -7.5      3.247      4.212
REMARK  Name = 
REMARK  8 active torsions:
REMARK  status: ('A' for Active; 'I' for Inactive)
REMARK    1  A    between atoms: C_2  and  O_3
REMARK    2  A    between atoms: C_2  and  C_4
REMARK    3  A    between atoms: C_8  and  C_9
REMARK    4  A    between atoms: C_9  and  C_10
REMARK    5  A    between atoms: C_10  and  N_11
REMARK    6  A    between atoms: N_11  and  N_12
REMARK    7  A    between atoms: C_13  and  C_14
REMARK    8  A    between atoms: C_17  and  C_18
REMARK                            x       y       z     vdW  Elec       q    Type
REMARK                         _______ _______ _______ _____ _____    ______ ____
ROOT
ATOM      1  N   UNL     1       5.791   4.636  19.252  0.00  0.00    +0.000 N 
ATOM      2  H   UNL     1       6.757   4.683  18.920  0.00  0.00    +0.000 HD
ENDROOT
BRANCH   1   3
ATOM      3  N   UNL     1       5.147   5.842  19.252  0.00  0.00    +0.000 NA
ATOM      4  C   UNL     1       4.193   5.956  18.380  0.00  0.00    +0.000 C 
BRANCH   4   5
ATOM      5  C   UNL     1       3.314   7.092  18.337  0.00  0.00    +0.000 A 
ATOM      6  C   UNL     1       3.085   7.983  17.309  0.00  0.00    +0.000 A 
ATOM      7  C   UNL     1       2.095   8.882  17.767  0.00  0.00    +0.000 A 
ATOM      8  C   UNL     1       1.801   8.530  19.072  0.00  0.00    +0.000 A 
ATOM      9  O   UNL     1       2.524   7.414  19.408  0.00  0.00    +0.000 OA
BRANCH   8  10
ATOM     10  C   UNL     1       0.954   9.115  20.109  0.00  0.00    +0.000 A 
ATOM     11  C   UNL     1       1.056   8.720  21.453  0.00  0.00    +0.000 A 
ATOM     12  C   UNL     1       0.298   9.352  22.448  0.00  0.00    +0.000 A 
ATOM     13  C   UNL     1      -0.575  10.385  22.109  0.00  0.00    +0.000 A 
ATOM     14 CL   UNL     1      -1.473  11.190  23.336  0.00  0.00    +0.000 Cl
ATOM     15  C   UNL     1      -0.715  10.773  20.784  0.00  0.00    +0.000 A 
ATOM     16  C   UNL     1       0.043  10.139  19.803  0.00  0.00    +0.000 A 
ATOM     17  F   UNL     1      -0.120  10.558  18.538  0.00  0.00    +0.000 F 
ENDBRANCH   8  10
ENDBRANCH   4   5
ENDBRANCH   1   3
BRANCH   1  18
ATOM     18  C   UNL     1       5.075   3.581  18.527  0.00  0.00    +0.000 C 
BRANCH  18  19
ATOM     19  C   UNL     1       4.242   2.695  19.463  0.00  0.00    +0.000 C 
BRANCH  19  24
ATOM     20  C   UNL     1       0.970   2.535  19.940  0.00  0.00    +0.000 C 
ATOM     21  C   UNL     1       0.536   3.247  18.650  0.00  0.00    +0.000 C 
ATOM     22  N   UNL     1       1.664   3.734  17.848  0.00  0.00    +0.000 NA
ATOM     23  C   UNL     1       2.597   2.664  17.501  0.00  0.00    +0.000 C 
ATOM     24  C   UNL     1       3.148   1.892  18.719  0.00  0.00    +0.000 C 
ATOM     25  C   UNL     1       1.972   1.423  19.599  0.00  0.00    +0.000 C 
ATOM     26  H   UNL     1       2.144   4.470  18.375  0.00  0.00    +0.000 HD
BRANCH  20  28
ATOM     27  O   UNL     1       1.515   4.747  20.808  0.00  0.00    +0.000 OA
ATOM     28  C   UNL     1       1.470   3.535  20.974  0.00  0.00    +0.000 C 
BRANCH  28  29
ATOM     29  O   UNL     1       1.854   2.979  22.141  0.00  0.00    +0.000 OA
ATOM     30  H   UNL     1       2.237   3.594  22.794  0.00  0.00    +0.000 HD
ENDBRANCH  28  29
ENDBRANCH  20  28
ENDBRANCH  19  24
ENDBRANCH  18  19
ENDBRANCH   1  18
TORSDOF 8
ENDMDL
