MODEL 1
REMARK VINA RESULT:      -9.5      0.000      0.000
REMARK  Name = 
REMARK  4 active torsions:
REMARK  status: ('A' for Active; 'I' for Inactive)
REMARK    1  A    between atoms: C_9  and  C_10
REMARK    2  A    between atoms: N_12  and  C_13
REMARK    3  A    between atoms: C_13  and  C_14
REMARK    4  A    between atoms: N_21  and  C_22
REMARK                            x       y       z     vdW  Elec       q    Type
REMARK                         _______ _______ _______ _____ _____    ______ ____
ROOT
ATOM      1  O   UNL     1       3.288   1.233  19.036  0.00  0.00    +0.000 OA
ATOM      2  C   UNL     1       2.850   2.313  19.423  0.00  0.00    +0.000 C 
ATOM      3  C   UNL     1       1.938   2.406  20.622  0.00  0.00    +0.000 C 
ATOM      4  C   UNL     1       0.839   3.401  20.315  0.00  0.00    +0.000 C 
ATOM      5  C   UNL     1       1.441   4.779  20.034  0.00  0.00    +0.000 C 
ATOM      6  C   UNL     1       2.622   4.748  19.077  0.00  0.00    +0.000 A 
ATOM      7  C   UNL     1       3.254   3.599  18.757  0.00  0.00    +0.000 A 
ATOM      8  C   UNL     1       4.332   3.600  17.794  0.00  0.00    +0.000 A 
ATOM      9  C   UNL     1       4.736   4.717  17.165  0.00  0.00    +0.000 A 
ATOM     10  C   UNL     1       4.039   5.998  17.480  0.00  0.00    +0.000 A 
ATOM     11  O   UNL     1       4.409   7.030  16.918  0.00  0.00    +0.000 OA
ATOM     12  N   UNL     1       3.008   5.950  18.453  0.00  0.00    +0.000 N 
ENDROOT
BRANCH  12  13
ATOM     13  C   UNL     1       2.407   7.209  18.774  0.00  0.00    +0.000 A 
ATOM     14  C   UNL     1       2.102   7.512  20.107  0.00  0.00    +0.000 A 
ATOM     15  C   UNL     1       1.416   8.686  20.424  0.00  0.00    +0.000 A 
ATOM     16  C   UNL     1       1.035   9.559  19.407  0.00  0.00    +0.000 A 
ATOM     17 CL   UNL     1       0.126  10.967  19.789  0.00  0.00    +0.000 Cl
ATOM     18  C   UNL     1       1.368   9.287  18.080  0.00  0.00    +0.000 A 
ATOM     19  C   UNL     1       2.057   8.113  17.762  0.00  0.00    +0.000 A 
ENDBRANCH  12  13
BRANCH   9  20
ATOM     20  C   UNL     1       5.879   4.600  16.202  0.00  0.00    +0.000 C 
ATOM     21  O   UNL     1       7.028   4.433  16.601  0.00  0.00    +0.000 OA
ATOM     22  N   UNL     1       5.588   4.706  14.865  0.00  0.00    +0.000 N 
ATOM     23  H   UNL     1       4.623   4.831  14.561  0.00  0.00    +0.000 HD
BRANCH  22  24
ATOM     24  C   UNL     1       6.642   4.590  13.882  0.00  0.00    +0.000 C 
BRANCH  24  25
ATOM     25  C   UNL     1       6.249   3.680  12.777  0.00  0.00    +0.000 A 
ATOM     26  C   UNL     1       6.960   2.805  11.982  0.00  0.00    +0.000 A 
ATOM     27  C   UNL     1       6.018   2.159  11.147  0.00  0.00    +0.000 A 
ATOM     28  C   UNL     1       4.790   2.676  11.486  0.00  0.00    +0.000 A 
ATOM     29  O   UNL     1       4.920   3.601  12.474  0.00  0.00    +0.000 OA
ENDBRANCH  24  25
ENDBRANCH  22  24
ENDBRANCH   9  20
TORSDOF 4
ENDMDL
MODEL 2
REMARK VINA RESULT:      -9.2      0.788      1.218
REMARK  Name = 
REMARK  4 active torsions:
REMARK  status: ('A' for Active; 'I' for Inactive)
REMARK    1  A    between atoms: C_9  and  C_10
REMARK    2  A    between atoms: N_12  and  C_13
REMARK    3  A    between atoms: C_13  and  C_14
REMARK    4  A    between atoms: N_21  and  C_22
REMARK                            x       y       z     vdW  Elec       q    Type
REMARK                         _______ _______ _______ _____ _____    ______ ____
ROOT
ATOM      1  O   UNL     1       3.979   1.672  20.133  0.00  0.00    +0.000 OA
ATOM      2  C   UNL     1       3.379   2.719  20.360  0.00  0.00    +0.000 C 
ATOM      3  C   UNL     1       2.419   2.839  21.518  0.00  0.00    +0.000 C 
ATOM      4  C   UNL     1       1.203   3.615  21.058  0.00  0.00    +0.000 C 
ATOM      5  C   UNL     1       1.616   5.015  20.601  0.00  0.00    +0.000 C 
ATOM      6  C   UNL     1       2.824   5.027  19.679  0.00  0.00    +0.000 A 
ATOM      7  C   UNL     1       3.623   3.949  19.531  0.00  0.00    +0.000 A 
ATOM      8  C   UNL     1       4.726   3.977  18.596  0.00  0.00    +0.000 A 
ATOM      9  C   UNL     1       4.991   5.046  17.827  0.00  0.00    +0.000 A 
ATOM     10  C   UNL     1       4.110   6.244  17.951  0.00  0.00    +0.000 A 
ATOM     11  O   UNL     1       4.353   7.235  17.258  0.00  0.00    +0.000 OA
ATOM     12  N   UNL     1       3.060   6.178  18.902  0.00  0.00    +0.000 N 
ENDROOT
BRANCH  12  13
ATOM     13  C   UNL     1       2.276   7.368  19.035  0.00  0.00    +0.000 A 
ATOM     14  C   UNL     1       1.932   8.105  17.895  0.00  0.00    +0.000 A 
ATOM     15  C   UNL     1       1.265   9.324  18.017  0.00  0.00    +0.000 A 
ATOM     16  C   UNL     1       0.939   9.809  19.282  0.00  0.00    +0.000 A 
ATOM     17 CL   UNL     1       0.183  11.345  19.437  0.00  0.00    +0.000 Cl
ATOM     18  C   UNL     1       1.240   9.066  20.423  0.00  0.00    +0.000 A 
ATOM     19  C   UNL     1       1.907   7.843  20.302  0.00  0.00    +0.000 A 
ENDBRANCH  12  13
BRANCH   9  20
ATOM     20  C   UNL     1       6.175   4.969  16.911  0.00  0.00    +0.000 C 
ATOM     21  O   UNL     1       7.314   4.855  17.355  0.00  0.00    +0.000 OA
ATOM     22  N   UNL     1       5.932   5.048  15.562  0.00  0.00    +0.000 N 
ATOM     23  H   UNL     1       4.975   5.128  15.220  0.00  0.00    +0.000 HD
BRANCH  22  24
ATOM     24  C   UNL     1       7.027   4.966  14.621  0.00  0.00    +0.000 C 
BRANCH  24  25
ATOM     25  C   UNL     1       6.619   4.263  13.380  0.00  0.00    +0.000 A 
ATOM     26  C   UNL     1       7.303   3.896  12.239  0.00  0.00    +0.000 A 
ATOM     27  C   UNL     1       6.387   3.181  11.430  0.00  0.00    +0.000 A 
ATOM     28  C   UNL     1       5.202   3.155  12.128  0.00  0.00    +0.000 A 
ATOM     29  O   UNL     1       5.332   3.809  13.312  0.00  0.00    +0.000 OA
ENDBRANCH  24  25
ENDBRANCH  22  24
ENDBRANCH   9  20
TORSDOF 4
ENDMDL
MODEL 3
REMARK VINA RESULT:      -9.1      3.180      7.166
REMARK  Name = 
REMARK  4 active torsions:
REMARK  status: ('A' for Active; 'I' for Inactive)
REMARK    1  A    between atoms: C_9  and  C_10
REMARK    2  A    between atoms: N_12  and  C_13
REMARK    3  A    between atoms: C_13  and  C_14
REMARK    4  A    between atoms: N_21  and  C_22
REMARK                            x       y       z     vdW  Elec       q    Type
REMARK                         _______ _______ _______ _____ _____    ______ ____
ROOT
ATOM      1  O   UNL     1       0.945   3.151  20.706  0.00  0.00    +0.000 OA
ATOM      2  C   UNL     1       1.703   3.016  19.749  0.00  0.00    +0.000 C 
ATOM      3  C   UNL     1       1.950   1.663  19.128  0.00  0.00    +0.000 C 
ATOM      4  C   UNL     1       3.426   1.540  18.813  0.00  0.00    +0.000 C 
ATOM      5  C   UNL     1       3.843   2.630  17.824  0.00  0.00    +0.000 C 
ATOM      6  C   UNL     1       3.335   4.016  18.188  0.00  0.00    +0.000 A 
ATOM      7  C   UNL     1       2.370   4.204  19.113  0.00  0.00    +0.000 A 
ATOM      8  C   UNL     1       1.957   5.540  19.480  0.00  0.00    +0.000 A 
ATOM      9  C   UNL     1       2.518   6.639  18.947  0.00  0.00    +0.000 A 
ATOM     10  C   UNL     1       3.605   6.462  17.940  0.00  0.00    +0.000 A 
ATOM     11  O   UNL     1       4.117   7.464  17.436  0.00  0.00    +0.000 OA
ATOM     12  N   UNL     1       3.954   5.132  17.592  0.00  0.00    +0.000 N 
ENDROOT
BRANCH  12  13
ATOM     13  C   UNL     1       4.955   5.005  16.578  0.00  0.00    +0.000 A 
ATOM     14  C   UNL     1       6.277   5.374  16.858  0.00  0.00    +0.000 A 
ATOM     15  C   UNL     1       7.242   5.361  15.849  0.00  0.00    +0.000 A 
ATOM     16  C   UNL     1       6.886   4.976  14.559  0.00  0.00    +0.000 A 
ATOM     17 CL   UNL     1       8.055   5.030  13.300  0.00  0.00    +0.000 Cl
ATOM     18  C   UNL     1       5.582   4.567  14.277  0.00  0.00    +0.000 A 
ATOM     19  C   UNL     1       4.615   4.578  15.287  0.00  0.00    +0.000 A 
ENDBRANCH  12  13
BRANCH   9  20
ATOM     20  C   UNL     1       1.993   7.972  19.387  0.00  0.00    +0.000 C 
ATOM     21  O   UNL     1       1.768   8.205  20.571  0.00  0.00    +0.000 OA
ATOM     22  N   UNL     1       1.760   8.909  18.411  0.00  0.00    +0.000 N 
ATOM     23  H   UNL     1       1.969   8.693  17.436  0.00  0.00    +0.000 HD
BRANCH  22  24
ATOM     24  C   UNL     1       1.265  10.221  18.767  0.00  0.00    +0.000 C 
BRANCH  24  25
ATOM     25  C   UNL     1      -0.187  10.343  18.485  0.00  0.00    +0.000 A 
ATOM     26  C   UNL     1      -1.200  11.072  19.073  0.00  0.00    +0.000 A 
ATOM     27  C   UNL     1      -2.368  10.829  18.311  0.00  0.00    +0.000 A 
ATOM     28  C   UNL     1      -1.995   9.970  17.305  0.00  0.00    +0.000 A 
ATOM     29  O   UNL     1      -0.673   9.668  17.402  0.00  0.00    +0.000 OA
ENDBRANCH  24  25
ENDBRANCH  22  24
ENDBRANCH   9  20
TORSDOF 4
ENDMDL
MODEL 4
REMARK VINA RESULT:      -9.0      1.291      1.509
REMARK  Name = 
REMARK  4 active torsions:
REMARK  status: ('A' for Active; 'I' for Inactive)
REMARK    1  A    between atoms: C_9  and  C_10
REMARK    2  A    between atoms: N_12  and  C_13
REMARK    3  A    between atoms: C_13  and  C_14
REMARK    4  A    between atoms: N_21  and  C_22
REMARK                            x       y       z     vdW  Elec       q    Type
REMARK                         _______ _______ _______ _____ _____    ______ ____
ROOT
ATOM      1  O   UNL     1       3.105   1.840  18.456  0.00  0.00    +0.000 OA
ATOM      2  C   UNL     1       2.672   2.774  19.126  0.00  0.00    +0.000 C 
ATOM      3  C   UNL     1       1.920   2.535  20.412  0.00  0.00    +0.000 C 
ATOM      4  C   UNL     1       0.746   3.489  20.469  0.00  0.00    +0.000 C 
ATOM      5  C   UNL     1       1.245   4.935  20.439  0.00  0.00    +0.000 C 
ATOM      6  C   UNL     1       2.292   5.201  19.370  0.00  0.00    +0.000 A 
ATOM      7  C   UNL     1       2.929   4.200  18.727  0.00  0.00    +0.000 A 
ATOM      8  C   UNL     1       3.872   4.491  17.670  0.00  0.00    +0.000 A 
ATOM      9  C   UNL     1       4.140   5.745  17.269  0.00  0.00    +0.000 A 
ATOM     10  C   UNL     1       3.433   6.871  17.945  0.00  0.00    +0.000 A 
ATOM     11  O   UNL     1       3.680   8.026  17.592  0.00  0.00    +0.000 OA
ATOM     12  N   UNL     1       2.539   6.536  18.994  0.00  0.00    +0.000 N 
ENDROOT
BRANCH  12  13
ATOM     13  C   UNL     1       1.928   7.647  19.660  0.00  0.00    +0.000 A 
ATOM     14  C   UNL     1       1.856   7.663  21.059  0.00  0.00    +0.000 A 
ATOM     15  C   UNL     1       1.167   8.682  21.717  0.00  0.00    +0.000 A 
ATOM     16  C   UNL     1       0.550   9.688  20.977  0.00  0.00    +0.000 A 
ATOM     17 CL   UNL     1      -0.361  10.902  21.784  0.00  0.00    +0.000 Cl
ATOM     18  C   UNL     1       0.649   9.705  19.586  0.00  0.00    +0.000 A 
ATOM     19  C   UNL     1       1.340   8.685  18.925  0.00  0.00    +0.000 A 
ENDBRANCH  12  13
BRANCH   9  20
ATOM     20  C   UNL     1       5.153   5.926  16.179  0.00  0.00    +0.000 C 
ATOM     21  O   UNL     1       5.115   6.901  15.434  0.00  0.00    +0.000 OA
ATOM     22  N   UNL     1       6.109   4.951  16.042  0.00  0.00    +0.000 N 
ATOM     23  H   UNL     1       6.126   4.158  16.684  0.00  0.00    +0.000 HD
BRANCH  22  24
ATOM     24  C   UNL     1       7.125   5.069  15.020  0.00  0.00    +0.000 C 
BRANCH  24  25
ATOM     25  C   UNL     1       6.726   4.359  13.779  0.00  0.00    +0.000 A 
ATOM     26  C   UNL     1       5.632   3.583  13.451  0.00  0.00    +0.000 A 
ATOM     27  C   UNL     1       5.775   3.240  12.085  0.00  0.00    +0.000 A 
ATOM     28  C   UNL     1       6.944   3.829  11.664  0.00  0.00    +0.000 A 
ATOM     29  O   UNL     1       7.529   4.510  12.685  0.00  0.00    +0.000 OA
ENDBRANCH  24  25
ENDBRANCH  22  24
ENDBRANCH   9  20
TORSDOF 4
ENDMDL
MODEL 5
REMARK VINA RESULT:      -9.0      4.307      7.181
REMARK  Name = 
REMARK  4 active torsions:
REMARK  status: ('A' for Active; 'I' for Inactive)
REMARK    1  A    between atoms: C_9  and  C_10
REMARK    2  A    between atoms: N_12  and  C_13
REMARK    3  A    between atoms: C_13  and  C_14
REMARK    4  A    between atoms: N_21  and  C_22
REMARK                            x       y       z     vdW  Elec       q    Type
REMARK                         _______ _______ _______ _____ _____    ______ ____
ROOT
ATOM      1  O   UNL     1       8.338   5.721  13.426  0.00  0.00    +0.000 OA
ATOM      2  C   UNL     1       7.395   5.035  13.813  0.00  0.00    +0.000 C 
ATOM      3  C   UNL     1       6.795   3.961  12.938  0.00  0.00    +0.000 C 
ATOM      4  C   UNL     1       5.288   4.014  13.075  0.00  0.00    +0.000 C 
ATOM      5  C   UNL     1       4.885   3.762  14.529  0.00  0.00    +0.000 C 
ATOM      6  C   UNL     1       5.691   4.565  15.537  0.00  0.00    +0.000 A 
ATOM      7  C   UNL     1       6.837   5.193  15.200  0.00  0.00    +0.000 A 
ATOM      8  C   UNL     1       7.544   6.000  16.169  0.00  0.00    +0.000 A 
ATOM      9  C   UNL     1       7.092   6.180  17.422  0.00  0.00    +0.000 A 
ATOM     10  C   UNL     1       5.815   5.517  17.817  0.00  0.00    +0.000 A 
ATOM     11  O   UNL     1       5.399   5.665  18.968  0.00  0.00    +0.000 OA
ATOM     12  N   UNL     1       5.175   4.713  16.839  0.00  0.00    +0.000 N 
ENDROOT
BRANCH  12  13
ATOM     13  C   UNL     1       3.987   4.044  17.275  0.00  0.00    +0.000 A 
ATOM     14  C   UNL     1       2.788   4.760  17.383  0.00  0.00    +0.000 A 
ATOM     15  C   UNL     1       1.648   4.151  17.911  0.00  0.00    +0.000 A 
ATOM     16  C   UNL     1       1.707   2.824  18.331  0.00  0.00    +0.000 A 
ATOM     17 CL   UNL     1       0.325   2.096  19.049  0.00  0.00    +0.000 Cl
ATOM     18  C   UNL     1       2.884   2.089  18.191  0.00  0.00    +0.000 A 
ATOM     19  C   UNL     1       4.026   2.697  17.661  0.00  0.00    +0.000 A 
ENDBRANCH  12  13
BRANCH   9  20
ATOM     20  C   UNL     1       7.921   7.019  18.348  0.00  0.00    +0.000 C 
ATOM     21  O   UNL     1       8.413   6.541  19.366  0.00  0.00    +0.000 OA
ATOM     22  N   UNL     1       8.089   8.340  18.017  0.00  0.00    +0.000 N 
ATOM     23  H   UNL     1       7.680   8.707  17.157  0.00  0.00    +0.000 HD
BRANCH  22  24
ATOM     24  C   UNL     1       8.888   9.203  18.858  0.00  0.00    +0.000 C 
BRANCH  24  25
ATOM     25  C   UNL     1       9.014  10.560  18.270  0.00  0.00    +0.000 A 
ATOM     26  C   UNL     1       8.092  11.463  17.783  0.00  0.00    +0.000 A 
ATOM     27  C   UNL     1       8.814  12.625  17.419  0.00  0.00    +0.000 A 
ATOM     28  C   UNL     1      10.132  12.359  17.709  0.00  0.00    +0.000 A 
ATOM     29  O   UNL     1      10.264  11.108  18.225  0.00  0.00    +0.000 OA
ENDBRANCH  24  25
ENDBRANCH  22  24
ENDBRANCH   9  20
TORSDOF 4
ENDMDL
MODEL 6
REMARK VINA RESULT:      -8.8      3.448      7.220
REMARK  Name = 
REMARK  4 active torsions:
REMARK  status: ('A' for Active; 'I' for Inactive)
REMARK    1  A    between atoms: C_9  and  C_10
REMARK    2  A    between atoms: N_12  and  C_13
REMARK    3  A    between atoms: C_13  and  C_14
REMARK    4  A    between atoms: N_21  and  C_22
REMARK                            x       y       z     vdW  Elec       q    Type
REMARK                         _______ _______ _______ _____ _____    ______ ____
ROOT
ATOM      1  O   UNL     1       1.738   3.454  22.106  0.00  0.00    +0.000 OA
ATOM      2  C   UNL     1       2.411   3.360  21.082  0.00  0.00    +0.000 C 
ATOM      3  C   UNL     1       2.909   2.024  20.590  0.00  0.00    +0.000 C 
ATOM      4  C   UNL     1       4.334   2.188  20.107  0.00  0.00    +0.000 C 
ATOM      5  C   UNL     1       4.385   3.198  18.958  0.00  0.00    +0.000 C 
ATOM      6  C   UNL     1       3.602   4.473  19.227  0.00  0.00    +0.000 A 
ATOM      7  C   UNL     1       2.714   4.567  20.239  0.00  0.00    +0.000 A 
ATOM      8  C   UNL     1       2.035   5.816  20.504  0.00  0.00    +0.000 A 
ATOM      9  C   UNL     1       2.267   6.929  19.786  0.00  0.00    +0.000 A 
ATOM     10  C   UNL     1       3.263   6.861  18.677  0.00  0.00    +0.000 A 
ATOM     11  O   UNL     1       3.474   7.872  18.004  0.00  0.00    +0.000 OA
ATOM     12  N   UNL     1       3.880   5.606  18.438  0.00  0.00    +0.000 N 
ENDROOT
BRANCH  12  13
ATOM     13  C   UNL     1       4.781   5.566  17.327  0.00  0.00    +0.000 A 
ATOM     14  C   UNL     1       4.352   5.030  16.105  0.00  0.00    +0.000 A 
ATOM     15  C   UNL     1       5.250   4.882  15.047  0.00  0.00    +0.000 A 
ATOM     16  C   UNL     1       6.578   5.270  15.208  0.00  0.00    +0.000 A 
ATOM     17 CL   UNL     1       7.700   5.020  13.931  0.00  0.00    +0.000 Cl
ATOM     18  C   UNL     1       7.007   5.842  16.406  0.00  0.00    +0.000 A 
ATOM     19  C   UNL     1       6.108   5.993  17.466  0.00  0.00    +0.000 A 
ENDBRANCH  12  13
BRANCH   9  20
ATOM     20  C   UNL     1       1.488   8.160  20.138  0.00  0.00    +0.000 C 
ATOM     21  O   UNL     1       0.997   8.301  21.254  0.00  0.00    +0.000 OA
ATOM     22  N   UNL     1       1.333   9.107  19.156  0.00  0.00    +0.000 N 
ATOM     23  H   UNL     1       1.763   8.969  18.242  0.00  0.00    +0.000 HD
BRANCH  22  24
ATOM     24  C   UNL     1       0.603  10.325  19.432  0.00  0.00    +0.000 C 
BRANCH  24  25
ATOM     25  C   UNL     1      -0.655  10.387  18.646  0.00  0.00    +0.000 A 
ATOM     26  C   UNL     1      -1.816  11.119  18.788  0.00  0.00    +0.000 A 
ATOM     27  C   UNL     1      -2.635  10.798  17.679  0.00  0.00    +0.000 A 
ATOM     28  C   UNL     1      -1.922   9.894  16.928  0.00  0.00    +0.000 A 
ATOM     29  O   UNL     1      -0.719   9.637  17.507  0.00  0.00    +0.000 OA
ENDBRANCH  24  25
ENDBRANCH  22  24
ENDBRANCH   9  20
TORSDOF 4
ENDMDL
MODEL 7
REMARK VINA RESULT:      -8.8      1.278      1.742
REMARK  Name = 
REMARK  4 active torsions:
REMARK  status: ('A' for Active; 'I' for Inactive)
REMARK    1  A    between atoms: C_9  and  C_10
REMARK    2  A    between atoms: N_12  and  C_13
REMARK    3  A    between atoms: C_13  and  C_14
REMARK    4  A    between atoms: N_21  and  C_22
REMARK                            x       y       z     vdW  Elec       q    Type
REMARK                         _______ _______ _______ _____ _____    ______ ____
ROOT
ATOM      1  O   UNL     1       3.801   1.945  19.195  0.00  0.00    +0.000 OA
ATOM      2  C   UNL     1       3.253   2.899  19.742  0.00  0.00    +0.000 C 
ATOM      3  C   UNL     1       2.544   2.744  21.064  0.00  0.00    +0.000 C 
ATOM      4  C   UNL     1       1.256   3.538  21.016  0.00  0.00    +0.000 C 
ATOM      5  C   UNL     1       1.561   5.018  20.780  0.00  0.00    +0.000 C 
ATOM      6  C   UNL     1       2.560   5.268  19.662  0.00  0.00    +0.000 A 
ATOM      7  C   UNL     1       3.319   4.278  19.147  0.00  0.00    +0.000 A 
ATOM      8  C   UNL     1       4.213   4.540  18.041  0.00  0.00    +0.000 A 
ATOM      9  C   UNL     1       4.313   5.751  17.467  0.00  0.00    +0.000 A 
ATOM     10  C   UNL     1       3.467   6.859  17.999  0.00  0.00    +0.000 A 
ATOM     11  O   UNL     1       3.561   7.977  17.488  0.00  0.00    +0.000 OA
ATOM     12  N   UNL     1       2.629   6.559  19.103  0.00  0.00    +0.000 N 
ENDROOT
BRANCH  12  13
ATOM     13  C   UNL     1       1.881   7.662  19.625  0.00  0.00    +0.000 A 
ATOM     14  C   UNL     1       1.322   8.599  18.747  0.00  0.00    +0.000 A 
ATOM     15  C   UNL     1       0.686   9.738  19.242  0.00  0.00    +0.000 A 
ATOM     16  C   UNL     1       0.607   9.941  20.618  0.00  0.00    +0.000 A 
ATOM     17 CL   UNL     1      -0.111  11.380  21.227  0.00  0.00    +0.000 Cl
ATOM     18  C   UNL     1       1.125   8.996  21.503  0.00  0.00    +0.000 A 
ATOM     19  C   UNL     1       1.761   7.854  21.008  0.00  0.00    +0.000 A 
ENDBRANCH  12  13
BRANCH   9  20
ATOM     20  C   UNL     1       5.290   5.910  16.341  0.00  0.00    +0.000 C 
ATOM     21  O   UNL     1       5.240   6.880  15.591  0.00  0.00    +0.000 OA
ATOM     22  N   UNL     1       6.226   4.919  16.177  0.00  0.00    +0.000 N 
ATOM     23  H   UNL     1       6.253   4.131  16.824  0.00  0.00    +0.000 HD
BRANCH  22  24
ATOM     24  C   UNL     1       7.207   5.015  15.119  0.00  0.00    +0.000 C 
BRANCH  24  25
ATOM     25  C   UNL     1       6.729   4.351  13.881  0.00  0.00    +0.000 A 
ATOM     26  C   UNL     1       5.587   3.639  13.577  0.00  0.00    +0.000 A 
ATOM     27  C   UNL     1       5.666   3.315  12.201  0.00  0.00    +0.000 A 
ATOM     28  C   UNL     1       6.850   3.850  11.751  0.00  0.00    +0.000 A 
ATOM     29  O   UNL     1       7.503   4.480  12.763  0.00  0.00    +0.000 OA
ENDBRANCH  24  25
ENDBRANCH  22  24
ENDBRANCH   9  20
TORSDOF 4
ENDMDL
MODEL 8
REMARK VINA RESULT:      -8.6      3.350      7.225
REMARK  Name = 
REMARK  4 active torsions:
REMARK  status: ('A' for Active; 'I' for Inactive)
REMARK    1  A    between atoms: C_9  and  C_10
REMARK    2  A    between atoms: N_12  and  C_13
REMARK    3  A    between atoms: C_13  and  C_14
REMARK    4  A    between atoms: N_21  and  C_22
REMARK                            x       y       z     vdW  Elec       q    Type
REMARK                         _______ _______ _______ _____ _____    ______ ____
ROOT
ATOM      1  O   UNL     1       1.875   3.635  22.152  0.00  0.00    +0.000 OA
ATOM      2  C   UNL     1       2.552   3.439  21.146  0.00  0.00    +0.000 C 
ATOM      3  C   UNL     1       3.053   2.060  20.793  0.00  0.00    +0.000 C 
ATOM      4  C   UNL     1       4.480   2.177  20.302  0.00  0.00    +0.000 C 
ATOM      5  C   UNL     1       4.536   3.065  19.058  0.00  0.00    +0.000 C 
ATOM      6  C   UNL     1       3.752   4.360  19.194  0.00  0.00    +0.000 A 
ATOM      7  C   UNL     1       2.859   4.555  20.187  0.00  0.00    +0.000 A 
ATOM      8  C   UNL     1       2.178   5.824  20.322  0.00  0.00    +0.000 A 
ATOM      9  C   UNL     1       2.413   6.859  19.497  0.00  0.00    +0.000 A 
ATOM     10  C   UNL     1       3.413   6.680  18.404  0.00  0.00    +0.000 A 
ATOM     11  O   UNL     1       3.627   7.619  17.635  0.00  0.00    +0.000 OA
ATOM     12  N   UNL     1       4.032   5.409  18.296  0.00  0.00    +0.000 N 
ENDROOT
BRANCH  12  13
ATOM     13  C   UNL     1       4.938   5.257  17.198  0.00  0.00    +0.000 A 
ATOM     14  C   UNL     1       6.214   5.829  17.268  0.00  0.00    +0.000 A 
ATOM     15  C   UNL     1       7.068   5.786  16.165  0.00  0.00    +0.000 A 
ATOM     16  C   UNL     1       6.646   5.169  14.989  0.00  0.00    +0.000 A 
ATOM     17 CL   UNL     1       7.667   5.180  13.607  0.00  0.00    +0.000 Cl
ATOM     18  C   UNL     1       5.392   4.561  14.921  0.00  0.00    +0.000 A 
ATOM     19  C   UNL     1       4.537   4.602  16.026  0.00  0.00    +0.000 A 
ENDBRANCH  12  13
BRANCH   9  20
ATOM     20  C   UNL     1       1.631   8.118  19.719  0.00  0.00    +0.000 C 
ATOM     21  O   UNL     1       1.277   8.453  20.846  0.00  0.00    +0.000 OA
ATOM     22  N   UNL     1       1.316   8.865  18.612  0.00  0.00    +0.000 N 
ATOM     23  H   UNL     1       1.635   8.570  17.690  0.00  0.00    +0.000 HD
BRANCH  22  24
ATOM     24  C   UNL     1       0.575  10.099  18.756  0.00  0.00    +0.000 C 
BRANCH  24  25
ATOM     25  C   UNL     1       1.482  11.274  18.763  0.00  0.00    +0.000 A 
ATOM     26  C   UNL     1       2.395  11.762  17.851  0.00  0.00    +0.000 A 
ATOM     27  C   UNL     1       2.907  12.964  18.394  0.00  0.00    +0.000 A 
ATOM     28  C   UNL     1       2.273  13.137  19.602  0.00  0.00    +0.000 A 
ATOM     29  O   UNL     1       1.407  12.115  19.836  0.00  0.00    +0.000 OA
ENDBRANCH  24  25
ENDBRANCH  22  24
ENDBRANCH   9  20
TORSDOF 4
ENDMDL
MODEL 9
REMARK VINA RESULT:      -8.5      3.318      7.956
REMARK  Name = 
REMARK  4 active torsions:
REMARK  status: ('A' for Active; 'I' for Inactive)
REMARK    1  A    between atoms: C_9  and  C_10
REMARK    2  A    between atoms: N_12  and  C_13
REMARK    3  A    between atoms: C_13  and  C_14
REMARK    4  A    between atoms: N_21  and  C_22
REMARK                            x       y       z     vdW  Elec       q    Type
REMARK                         _______ _______ _______ _____ _____    ______ ____
ROOT
ATOM      1  O   UNL     1       1.753   4.305  21.338  0.00  0.00    +0.000 OA
ATOM      2  C   UNL     1       2.452   3.970  20.385  0.00  0.00    +0.000 C 
ATOM      3  C   UNL     1       2.858   2.532  20.176  0.00  0.00    +0.000 C 
ATOM      4  C   UNL     1       4.308   2.498  19.744  0.00  0.00    +0.000 C 
ATOM      5  C   UNL     1       4.482   3.265  18.431  0.00  0.00    +0.000 C 
ATOM      6  C   UNL     1       3.795   4.621  18.417  0.00  0.00    +0.000 A 
ATOM      7  C   UNL     1       2.882   4.970  19.347  0.00  0.00    +0.000 A 
ATOM      8  C   UNL     1       2.297   6.292  19.340  0.00  0.00    +0.000 A 
ATOM      9  C   UNL     1       2.643   7.228  18.440  0.00  0.00    +0.000 A 
ATOM     10  C   UNL     1       3.669   6.879  17.414  0.00  0.00    +0.000 A 
ATOM     11  O   UNL     1       3.985   7.726  16.576  0.00  0.00    +0.000 OA
ATOM     12  N   UNL     1       4.191   5.560  17.446  0.00  0.00    +0.000 N 
ENDROOT
BRANCH  12  13
ATOM     13  C   UNL     1       5.125   5.244  16.408  0.00  0.00    +0.000 A 
ATOM     14  C   UNL     1       6.453   5.677  16.515  0.00  0.00    +0.000 A 
ATOM     15  C   UNL     1       7.348   5.474  15.463  0.00  0.00    +0.000 A 
ATOM     16  C   UNL     1       6.915   4.836  14.303  0.00  0.00    +0.000 A 
ATOM     17 CL   UNL     1       7.996   4.651  12.978  0.00  0.00    +0.000 Cl
ATOM     18  C   UNL     1       5.606   4.364  14.201  0.00  0.00    +0.000 A 
ATOM     19  C   UNL     1       4.710   4.566  15.254  0.00  0.00    +0.000 A 
ENDBRANCH  12  13
BRANCH   9  20
ATOM     20  C   UNL     1       1.953   8.557  18.515  0.00  0.00    +0.000 C 
ATOM     21  O   UNL     1       1.900   9.299  17.539  0.00  0.00    +0.000 OA
ATOM     22  N   UNL     1       1.403   8.911  19.721  0.00  0.00    +0.000 N 
ATOM     23  H   UNL     1       1.450   8.268  20.512  0.00  0.00    +0.000 HD
BRANCH  22  24
ATOM     24  C   UNL     1       0.711  10.173  19.861  0.00  0.00    +0.000 C 
BRANCH  24  25
ATOM     25  C   UNL     1       0.091  10.301  21.203  0.00  0.00    +0.000 A 
ATOM     26  C   UNL     1      -0.709  11.266  21.781  0.00  0.00    +0.000 A 
ATOM     27  C   UNL     1      -1.047  10.793  23.072  0.00  0.00    +0.000 A 
ATOM     28  C   UNL     1      -0.434   9.568  23.201  0.00  0.00    +0.000 A 
ATOM     29  O   UNL     1       0.260   9.262  22.073  0.00  0.00    +0.000 OA
ENDBRANCH  24  25
ENDBRANCH  22  24
ENDBRANCH   9  20
TORSDOF 4
ENDMDL
