MODEL 1
REMARK VINA RESULT:      -7.7      0.000      0.000
REMARK  Name = 
REMARK  13 active torsions:
REMARK  status: ('A' for Active; 'I' for Inactive)
REMARK    1  A    between atoms: C_1  and  C_2
REMARK    2  A    between atoms: C_2  and  C_3
REMARK    3  A    between atoms: C_3  and  C_4
REMARK    4  A    between atoms: C_4  and  C_5
REMARK    5  A    between atoms: C_5  and  C_6
REMARK    6  A    between atoms: C_6  and  C_7
REMARK    7  A    between atoms: C_7  and  N_8
REMARK    8  A    between atoms: C_7  and  S_19
REMARK    9  A    between atoms: C_9  and  O_11
REMARK   10  A    between atoms: O_11  and  C_12
REMARK   11  A    between atoms: C_12  and  C_13
REMARK   12  A    between atoms: S_19  and  C_22
REMARK   13  A    between atoms: C_25  and  C_26
REMARK                            x       y       z     vdW  Elec       q    Type
REMARK                         _______ _______ _______ _____ _____    ______ ____
ROOT
ATOM      1  C   UNL     1       6.516   6.049  16.715  0.00  0.00    +0.000 C 
ENDROOT
BRANCH   1   2
ATOM      2  N   UNL     1       7.524   6.958  17.277  0.00  0.00    +0.000 N 
ATOM      3  C   UNL     1       7.947   6.867  18.568  0.00  0.00    +0.000 C 
ATOM      4  O   UNL     1       7.635   5.979  19.341  0.00  0.00    +0.000 OA
ATOM      5  H   UNL     1       7.741   7.827  16.807  0.00  0.00    +0.000 HD
BRANCH   3   6
ATOM      6  O   UNL     1       8.752   7.920  18.838  0.00  0.00    +0.000 OA
BRANCH   6   7
ATOM      7  C   UNL     1       8.381   9.171  18.244  0.00  0.00    +0.000 C 
BRANCH   7   8
ATOM      8  C   UNL     1       9.240  10.312  18.733  0.00  0.00    +0.000 A 
ATOM      9  C   UNL     1       9.376  10.576  20.105  0.00  0.00    +0.000 A 
ATOM     10  C   UNL     1      10.220  11.597  20.553  0.00  0.00    +0.000 A 
ATOM     11  C   UNL     1      10.928  12.370  19.635  0.00  0.00    +0.000 A 
ATOM     12  C   UNL     1      10.790  12.128  18.271  0.00  0.00    +0.000 A 
ATOM     13  C   UNL     1       9.947  11.109  17.821  0.00  0.00    +0.000 A 
ENDBRANCH   7   8
ENDBRANCH   6   7
ENDBRANCH   3   6
ENDBRANCH   1   2
BRANCH   1  14
ATOM     14  S   UNL     1       4.784   6.686  16.716  0.00  0.00    +0.000 S 
ATOM     15  O   UNL     1       4.651   7.786  17.651  0.00  0.00    +0.000 OA
ATOM     16  O   UNL     1       4.357   6.849  15.334  0.00  0.00    +0.000 OA
BRANCH  14  17
ATOM     17  C   UNL     1       3.855   5.326  17.410  0.00  0.00    +0.000 A 
ATOM     18  C   UNL     1       4.472   4.080  17.534  0.00  0.00    +0.000 A 
ATOM     19  C   UNL     1       3.733   2.987  17.987  0.00  0.00    +0.000 A 
ATOM     20  C   UNL     1       2.384   3.135  18.336  0.00  0.00    +0.000 A 
ATOM     21  C   UNL     1       1.579   1.960  18.810  0.00  0.00    +0.000 C 
ATOM     22  C   UNL     1       1.790   4.404  18.248  0.00  0.00    +0.000 A 
ATOM     23  C   UNL     1       2.520   5.502  17.786  0.00  0.00    +0.000 A 
ENDBRANCH  14  17
ENDBRANCH   1  14
BRANCH   1  24
ATOM     24  C   UNL     1       6.910   5.654  15.278  0.00  0.00    +0.000 C 
BRANCH  24  25
ATOM     25  C   UNL     1       6.632   4.178  15.000  0.00  0.00    +0.000 C 
BRANCH  25  26
ATOM     26  C   UNL     1       5.645   3.982  13.851  0.00  0.00    +0.000 C 
BRANCH  26  27
ATOM     27  C   UNL     1       6.404   3.536  12.603  0.00  0.00    +0.000 C 
BRANCH  27  29
ATOM     28  C   UNL     1       4.218   3.278  11.416  0.00  0.00    +0.000 C 
ATOM     29  C   UNL     1       5.565   2.635  11.705  0.00  0.00    +0.000 C 
ENDBRANCH  27  29
ENDBRANCH  26  27
ENDBRANCH  25  26
ENDBRANCH  24  25
ENDBRANCH   1  24
TORSDOF 11
ENDMDL
MODEL 2
REMARK VINA RESULT:      -7.7      1.898      7.156
REMARK  Name = 
REMARK  13 active torsions:
REMARK  status: ('A' for Active; 'I' for Inactive)
REMARK    1  A    between atoms: C_1  and  C_2
REMARK    2  A    between atoms: C_2  and  C_3
REMARK    3  A    between atoms: C_3  and  C_4
REMARK    4  A    between atoms: C_4  and  C_5
REMARK    5  A    between atoms: C_5  and  C_6
REMARK    6  A    between atoms: C_6  and  C_7
REMARK    7  A    between atoms: C_7  and  N_8
REMARK    8  A    between atoms: C_7  and  S_19
REMARK    9  A    between atoms: C_9  and  O_11
REMARK   10  A    between atoms: O_11  and  C_12
REMARK   11  A    between atoms: C_12  and  C_13
REMARK   12  A    between atoms: S_19  and  C_22
REMARK   13  A    between atoms: C_25  and  C_26
REMARK                            x       y       z     vdW  Elec       q    Type
REMARK                         _______ _______ _______ _____ _____    ______ ____
ROOT
ATOM      1  C   UNL     1       5.779   4.941  16.437  0.00  0.00    +0.000 C 
ENDROOT
BRANCH   1   2
ATOM      2  N   UNL     1       4.379   4.893  16.878  0.00  0.00    +0.000 N 
ATOM      3  C   UNL     1       3.722   5.992  17.341  0.00  0.00    +0.000 C 
ATOM      4  O   UNL     1       4.171   7.125  17.330  0.00  0.00    +0.000 OA
ATOM      5  H   UNL     1       3.945   4.004  17.092  0.00  0.00    +0.000 HD
BRANCH   3   6
ATOM      6  O   UNL     1       2.512   5.612  17.812  0.00  0.00    +0.000 OA
BRANCH   6   7
ATOM      7  C   UNL     1       2.244   4.203  17.807  0.00  0.00    +0.000 C 
BRANCH   7   8
ATOM      8  C   UNL     1       2.222   3.623  19.200  0.00  0.00    +0.000 A 
ATOM      9  C   UNL     1       1.036   3.593  19.951  0.00  0.00    +0.000 A 
ATOM     10  C   UNL     1       1.010   3.000  21.217  0.00  0.00    +0.000 A 
ATOM     11  C   UNL     1       2.170   2.441  21.750  0.00  0.00    +0.000 A 
ATOM     12  C   UNL     1       3.356   2.477  21.021  0.00  0.00    +0.000 A 
ATOM     13  C   UNL     1       3.385   3.070  19.756  0.00  0.00    +0.000 A 
ENDBRANCH   7   8
ENDBRANCH   6   7
ENDBRANCH   3   6
ENDBRANCH   1   2
BRANCH   1  14
ATOM     14  S   UNL     1       7.039   4.829  17.780  0.00  0.00    +0.000 S 
ATOM     15  O   UNL     1       6.418   4.411  19.022  0.00  0.00    +0.000 OA
ATOM     16  O   UNL     1       8.193   4.107  17.264  0.00  0.00    +0.000 OA
BRANCH  14  17
ATOM     17  C   UNL     1       7.530   6.531  18.017  0.00  0.00    +0.000 A 
ATOM     18  C   UNL     1       7.089   7.494  17.107  0.00  0.00    +0.000 A 
ATOM     19  C   UNL     1       7.537   8.810  17.224  0.00  0.00    +0.000 A 
ATOM     20  C   UNL     1       8.411   9.174  18.257  0.00  0.00    +0.000 A 
ATOM     21  C   UNL     1       8.910  10.585  18.380  0.00  0.00    +0.000 C 
ATOM     22  C   UNL     1       8.811   8.204  19.189  0.00  0.00    +0.000 A 
ATOM     23  C   UNL     1       8.374   6.882  19.074  0.00  0.00    +0.000 A 
ENDBRANCH  14  17
ENDBRANCH   1  14
BRANCH   1  24
ATOM     24  C   UNL     1       6.041   3.831  15.402  0.00  0.00    +0.000 C 
BRANCH  24  25
ATOM     25  C   UNL     1       6.268   4.401  14.003  0.00  0.00    +0.000 C 
BRANCH  25  26
ATOM     26  C   UNL     1       5.913   3.400  12.906  0.00  0.00    +0.000 C 
BRANCH  26  27
ATOM     27  C   UNL     1       4.809   3.984  12.026  0.00  0.00    +0.000 C 
BRANCH  27  29
ATOM     28  C   UNL     1       3.212   3.583  10.144  0.00  0.00    +0.000 C 
ATOM     29  C   UNL     1       4.146   2.928  11.149  0.00  0.00    +0.000 C 
ENDBRANCH  27  29
ENDBRANCH  26  27
ENDBRANCH  25  26
ENDBRANCH  24  25
ENDBRANCH   1  24
TORSDOF 11
ENDMDL
MODEL 3
REMARK VINA RESULT:      -7.6      4.099      7.349
REMARK  Name = 
REMARK  13 active torsions:
REMARK  status: ('A' for Active; 'I' for Inactive)
REMARK    1  A    between atoms: C_1  and  C_2
REMARK    2  A    between atoms: C_2  and  C_3
REMARK    3  A    between atoms: C_3  and  C_4
REMARK    4  A    between atoms: C_4  and  C_5
REMARK    5  A    between atoms: C_5  and  C_6
REMARK    6  A    between atoms: C_6  and  C_7
REMARK    7  A    between atoms: C_7  and  N_8
REMARK    8  A    between atoms: C_7  and  S_19
REMARK    9  A    between atoms: C_9  and  O_11
REMARK   10  A    between atoms: O_11  and  C_12
REMARK   11  A    between atoms: C_12  and  C_13
REMARK   12  A    between atoms: S_19  and  C_22
REMARK   13  A    between atoms: C_25  and  C_26
REMARK                            x       y       z     vdW  Elec       q    Type
REMARK                         _______ _______ _______ _____ _____    ______ ____
ROOT
ATOM      1  C   UNL     1       5.104   3.589  17.765  0.00  0.00    +0.000 C 
ENDROOT
BRANCH   1   2
ATOM      2  N   UNL     1       5.243   4.252  16.462  0.00  0.00    +0.000 N 
ATOM      3  C   UNL     1       6.456   4.588  15.941  0.00  0.00    +0.000 C 
ATOM      4  O   UNL     1       7.530   4.280  16.427  0.00  0.00    +0.000 OA
ATOM      5  H   UNL     1       4.446   4.706  16.036  0.00  0.00    +0.000 HD
BRANCH   3   6
ATOM      6  O   UNL     1       6.262   5.315  14.817  0.00  0.00    +0.000 OA
BRANCH   6   7
ATOM      7  C   UNL     1       7.121   5.012  13.709  0.00  0.00    +0.000 C 
BRANCH   7   8
ATOM      8  C   UNL     1       6.509   3.994  12.776  0.00  0.00    +0.000 A 
ATOM      9  C   UNL     1       7.314   3.100  12.055  0.00  0.00    +0.000 A 
ATOM     10  C   UNL     1       6.738   2.122  11.239  0.00  0.00    +0.000 A 
ATOM     11  C   UNL     1       5.351   2.035  11.128  0.00  0.00    +0.000 A 
ATOM     12  C   UNL     1       4.541   2.926  11.827  0.00  0.00    +0.000 A 
ATOM     13  C   UNL     1       5.115   3.905  12.642  0.00  0.00    +0.000 A 
ENDBRANCH   7   8
ENDBRANCH   6   7
ENDBRANCH   3   6
ENDBRANCH   1   2
BRANCH   1  14
ATOM     14  S   UNL     1       5.198   4.701  19.236  0.00  0.00    +0.000 S 
ATOM     15  O   UNL     1       4.668   4.032  20.408  0.00  0.00    +0.000 OA
ATOM     16  O   UNL     1       6.526   5.295  19.273  0.00  0.00    +0.000 OA
BRANCH  14  17
ATOM     17  C   UNL     1       4.038   5.999  18.835  0.00  0.00    +0.000 A 
ATOM     18  C   UNL     1       4.234   6.745  17.671  0.00  0.00    +0.000 A 
ATOM     19  C   UNL     1       3.392   7.821  17.392  0.00  0.00    +0.000 A 
ATOM     20  C   UNL     1       2.341   8.147  18.260  0.00  0.00    +0.000 A 
ATOM     21  C   UNL     1       1.440   9.313  17.973  0.00  0.00    +0.000 C 
ATOM     22  C   UNL     1       2.129   7.360  19.403  0.00  0.00    +0.000 A 
ATOM     23  C   UNL     1       2.974   6.286  19.695  0.00  0.00    +0.000 A 
ENDBRANCH  14  17
ENDBRANCH   1  14
BRANCH   1  24
ATOM     24  C   UNL     1       3.784   2.797  17.812  0.00  0.00    +0.000 C 
BRANCH  24  25
ATOM     25  C   UNL     1       2.719   3.417  16.910  0.00  0.00    +0.000 C 
BRANCH  25  26
ATOM     26  C   UNL     1       1.495   3.882  17.697  0.00  0.00    +0.000 C 
BRANCH  26  27
ATOM     27  C   UNL     1       1.118   2.816  18.723  0.00  0.00    +0.000 C 
BRANCH  27  29
ATOM     28  C   UNL     1       1.525   2.668  21.187  0.00  0.00    +0.000 C 
ATOM     29  C   UNL     1       0.785   3.412  20.086  0.00  0.00    +0.000 C 
ENDBRANCH  27  29
ENDBRANCH  26  27
ENDBRANCH  25  26
ENDBRANCH  24  25
ENDBRANCH   1  24
TORSDOF 11
ENDMDL
MODEL 4
REMARK VINA RESULT:      -7.5      4.142      7.424
REMARK  Name = 
REMARK  13 active torsions:
REMARK  status: ('A' for Active; 'I' for Inactive)
REMARK    1  A    between atoms: C_1  and  C_2
REMARK    2  A    between atoms: C_2  and  C_3
REMARK    3  A    between atoms: C_3  and  C_4
REMARK    4  A    between atoms: C_4  and  C_5
REMARK    5  A    between atoms: C_5  and  C_6
REMARK    6  A    between atoms: C_6  and  C_7
REMARK    7  A    between atoms: C_7  and  N_8
REMARK    8  A    between atoms: C_7  and  S_19
REMARK    9  A    between atoms: C_9  and  O_11
REMARK   10  A    between atoms: O_11  and  C_12
REMARK   11  A    between atoms: C_12  and  C_13
REMARK   12  A    between atoms: S_19  and  C_22
REMARK   13  A    between atoms: C_25  and  C_26
REMARK                            x       y       z     vdW  Elec       q    Type
REMARK                         _______ _______ _______ _____ _____    ______ ____
ROOT
ATOM      1  C   UNL     1       3.522   5.366  17.624  0.00  0.00    +0.000 C 
ENDROOT
BRANCH   1   2
ATOM      2  N   UNL     1       2.863   6.263  18.582  0.00  0.00    +0.000 N 
ATOM      3  C   UNL     1       2.580   7.563  18.289  0.00  0.00    +0.000 C 
ATOM      4  O   UNL     1       2.731   8.076  17.195  0.00  0.00    +0.000 OA
ATOM      5  H   UNL     1       2.832   6.021  19.565  0.00  0.00    +0.000 HD
BRANCH   3   6
ATOM      6  O   UNL     1       2.119   8.172  19.406  0.00  0.00    +0.000 OA
BRANCH   6   7
ATOM      7  C   UNL     1       1.183   9.240  19.206  0.00  0.00    +0.000 C 
BRANCH   7   8
ATOM      8  C   UNL     1       0.508   9.653  20.490  0.00  0.00    +0.000 A 
ATOM      9  C   UNL     1       0.086   8.695  21.425  0.00  0.00    +0.000 A 
ATOM     10  C   UNL     1      -0.486   9.089  22.639  0.00  0.00    +0.000 A 
ATOM     11  C   UNL     1      -0.650  10.442  22.927  0.00  0.00    +0.000 A 
ATOM     12  C   UNL     1      -0.248  11.403  22.001  0.00  0.00    +0.000 A 
ATOM     13  C   UNL     1       0.322  11.012  20.787  0.00  0.00    +0.000 A 
ENDBRANCH   7   8
ENDBRANCH   6   7
ENDBRANCH   3   6
ENDBRANCH   1   2
BRANCH   1  14
ATOM     14  S   UNL     1       5.367   5.351  17.691  0.00  0.00    +0.000 S 
ATOM     15  O   UNL     1       5.874   6.685  17.944  0.00  0.00    +0.000 OA
ATOM     16  O   UNL     1       5.782   4.241  18.536  0.00  0.00    +0.000 OA
BRANCH  14  17
ATOM     17  C   UNL     1       5.828   4.951  16.012  0.00  0.00    +0.000 A 
ATOM     18  C   UNL     1       4.913   4.276  15.202  0.00  0.00    +0.000 A 
ATOM     19  C   UNL     1       5.291   3.876  13.920  0.00  0.00    +0.000 A 
ATOM     20  C   UNL     1       6.574   4.163  13.434  0.00  0.00    +0.000 A 
ATOM     21  C   UNL     1       6.992   3.721  12.062  0.00  0.00    +0.000 C 
ATOM     22  C   UNL     1       7.467   4.881  14.244  0.00  0.00    +0.000 A 
ATOM     23  C   UNL     1       7.100   5.277  15.533  0.00  0.00    +0.000 A 
ENDBRANCH  14  17
ENDBRANCH   1  14
BRANCH   1  24
ATOM     24  C   UNL     1       2.996   3.929  17.803  0.00  0.00    +0.000 C 
BRANCH  24  25
ATOM     25  C   UNL     1       1.479   3.898  17.976  0.00  0.00    +0.000 C 
BRANCH  25  26
ATOM     26  C   UNL     1       1.037   2.865  19.011  0.00  0.00    +0.000 C 
BRANCH  26  27
ATOM     27  C   UNL     1       0.766   3.565  20.341  0.00  0.00    +0.000 C 
BRANCH  27  29
ATOM     28  C   UNL     1       2.870   2.624  21.312  0.00  0.00    +0.000 C 
ATOM     29  C   UNL     1       1.377   2.822  21.523  0.00  0.00    +0.000 C 
ENDBRANCH  27  29
ENDBRANCH  26  27
ENDBRANCH  25  26
ENDBRANCH  24  25
ENDBRANCH   1  24
TORSDOF 11
ENDMDL
MODEL 5
REMARK VINA RESULT:      -7.4      1.559      7.508
REMARK  Name = 
REMARK  13 active torsions:
REMARK  status: ('A' for Active; 'I' for Inactive)
REMARK    1  A    between atoms: C_1  and  C_2
REMARK    2  A    between atoms: C_2  and  C_3
REMARK    3  A    between atoms: C_3  and  C_4
REMARK    4  A    between atoms: C_4  and  C_5
REMARK    5  A    between atoms: C_5  and  C_6
REMARK    6  A    between atoms: C_6  and  C_7
REMARK    7  A    between atoms: C_7  and  N_8
REMARK    8  A    between atoms: C_7  and  S_19
REMARK    9  A    between atoms: C_9  and  O_11
REMARK   10  A    between atoms: O_11  and  C_12
REMARK   11  A    between atoms: C_12  and  C_13
REMARK   12  A    between atoms: S_19  and  C_22
REMARK   13  A    between atoms: C_25  and  C_26
REMARK                            x       y       z     vdW  Elec       q    Type
REMARK                         _______ _______ _______ _____ _____    ______ ____
ROOT
ATOM      1  C   UNL     1       7.097   6.699  17.739  0.00  0.00    +0.000 C 
ENDROOT
BRANCH   1   2
ATOM      2  N   UNL     1       7.207   6.408  16.304  0.00  0.00    +0.000 N 
ATOM      3  C   UNL     1       6.117   6.156  15.526  0.00  0.00    +0.000 C 
ATOM      4  O   UNL     1       4.961   6.256  15.897  0.00  0.00    +0.000 OA
ATOM      5  H   UNL     1       8.097   6.135  15.908  0.00  0.00    +0.000 HD
BRANCH   3   6
ATOM      6  O   UNL     1       6.536   5.775  14.298  0.00  0.00    +0.000 OA
BRANCH   6   7
ATOM      7  C   UNL     1       6.950   4.409  14.165  0.00  0.00    +0.000 C 
BRANCH   7   8
ATOM      8  C   UNL     1       6.247   3.709  13.027  0.00  0.00    +0.000 A 
ATOM      9  C   UNL     1       6.915   2.756  12.242  0.00  0.00    +0.000 A 
ATOM     10  C   UNL     1       6.241   2.070  11.228  0.00  0.00    +0.000 A 
ATOM     11  C   UNL     1       4.895   2.335  10.981  0.00  0.00    +0.000 A 
ATOM     12  C   UNL     1       4.225   3.289  11.743  0.00  0.00    +0.000 A 
ATOM     13  C   UNL     1       4.897   3.977  12.757  0.00  0.00    +0.000 A 
ENDBRANCH   7   8
ENDBRANCH   6   7
ENDBRANCH   3   6
ENDBRANCH   1   2
BRANCH   1  14
ATOM     14  S   UNL     1       7.074   5.224  18.848  0.00  0.00    +0.000 S 
ATOM     15  O   UNL     1       7.838   4.139  18.263  0.00  0.00    +0.000 OA
ATOM     16  O   UNL     1       7.362   5.668  20.204  0.00  0.00    +0.000 OA
BRANCH  14  17
ATOM     17  C   UNL     1       5.363   4.711  18.802  0.00  0.00    +0.000 A 
ATOM     18  C   UNL     1       5.009   3.611  18.019  0.00  0.00    +0.000 A 
ATOM     19  C   UNL     1       3.665   3.254  17.899  0.00  0.00    +0.000 A 
ATOM     20  C   UNL     1       2.673   3.979  18.573  0.00  0.00    +0.000 A 
ATOM     21  C   UNL     1       1.225   3.610  18.436  0.00  0.00    +0.000 C 
ATOM     22  C   UNL     1       3.050   5.055  19.391  0.00  0.00    +0.000 A 
ATOM     23  C   UNL     1       4.392   5.425  19.510  0.00  0.00    +0.000 A 
ENDBRANCH  14  17
ENDBRANCH   1  14
BRANCH   1  24
ATOM     24  C   UNL     1       8.238   7.640  18.172  0.00  0.00    +0.000 C 
BRANCH  24  25
ATOM     25  C   UNL     1       8.049   9.051  17.618  0.00  0.00    +0.000 C 
BRANCH  25  26
ATOM     26  C   UNL     1       8.598  10.120  18.560  0.00  0.00    +0.000 C 
BRANCH  26  27
ATOM     27  C   UNL     1       9.795  10.807  17.904  0.00  0.00    +0.000 C 
BRANCH  27  29
ATOM     28  C   UNL     1       8.206  12.692  17.487  0.00  0.00    +0.000 C 
ATOM     29  C   UNL     1       9.636  12.321  17.847  0.00  0.00    +0.000 C 
ENDBRANCH  27  29
ENDBRANCH  26  27
ENDBRANCH  25  26
ENDBRANCH  24  25
ENDBRANCH   1  24
TORSDOF 11
ENDMDL
MODEL 6
REMARK VINA RESULT:      -7.3      1.536      1.828
REMARK  Name = 
REMARK  13 active torsions:
REMARK  status: ('A' for Active; 'I' for Inactive)
REMARK    1  A    between atoms: C_1  and  C_2
REMARK    2  A    between atoms: C_2  and  C_3
REMARK    3  A    between atoms: C_3  and  C_4
REMARK    4  A    between atoms: C_4  and  C_5
REMARK    5  A    between atoms: C_5  and  C_6
REMARK    6  A    between atoms: C_6  and  C_7
REMARK    7  A    between atoms: C_7  and  N_8
REMARK    8  A    between atoms: C_7  and  S_19
REMARK    9  A    between atoms: C_9  and  O_11
REMARK   10  A    between atoms: O_11  and  C_12
REMARK   11  A    between atoms: C_12  and  C_13
REMARK   12  A    between atoms: S_19  and  C_22
REMARK   13  A    between atoms: C_25  and  C_26
REMARK                            x       y       z     vdW  Elec       q    Type
REMARK                         _______ _______ _______ _____ _____    ______ ____
ROOT
ATOM      1  C   UNL     1       6.281   4.931  17.496  0.00  0.00    +0.000 C 
ENDROOT
BRANCH   1   2
ATOM      2  N   UNL     1       7.140   6.085  17.791  0.00  0.00    +0.000 N 
ATOM      3  C   UNL     1       7.939   6.137  18.892  0.00  0.00    +0.000 C 
ATOM      4  O   UNL     1       8.114   5.213  19.667  0.00  0.00    +0.000 OA
ATOM      5  H   UNL     1       6.974   6.972  17.331  0.00  0.00    +0.000 HD
BRANCH   3   6
ATOM      6  O   UNL     1       8.488   7.371  18.977  0.00  0.00    +0.000 OA
BRANCH   6   7
ATOM      7  C   UNL     1       8.037   8.332  18.013  0.00  0.00    +0.000 C 
BRANCH   7   8
ATOM      8  C   UNL     1       8.550   9.720  18.309  0.00  0.00    +0.000 A 
ATOM      9  C   UNL     1       8.216  10.805  17.485  0.00  0.00    +0.000 A 
ATOM     10  C   UNL     1       8.647  12.098  17.800  0.00  0.00    +0.000 A 
ATOM     11  C   UNL     1       9.424  12.317  18.935  0.00  0.00    +0.000 A 
ATOM     12  C   UNL     1       9.775  11.246  19.753  0.00  0.00    +0.000 A 
ATOM     13  C   UNL     1       9.347   9.954  19.441  0.00  0.00    +0.000 A 
ENDBRANCH   7   8
ENDBRANCH   6   7
ENDBRANCH   3   6
ENDBRANCH   1   2
BRANCH   1  14
ATOM     14  S   UNL     1       4.483   5.306  17.310  0.00  0.00    +0.000 S 
ATOM     15  O   UNL     1       4.249   6.732  17.433  0.00  0.00    +0.000 OA
ATOM     16  O   UNL     1       3.986   4.584  16.149  0.00  0.00    +0.000 OA
BRANCH  14  17
ATOM     17  C   UNL     1       3.762   4.555  18.761  0.00  0.00    +0.000 A 
ATOM     18  C   UNL     1       3.836   3.169  18.912  0.00  0.00    +0.000 A 
ATOM     19  C   UNL     1       3.198   2.558  19.992  0.00  0.00    +0.000 A 
ATOM     20  C   UNL     1       2.500   3.326  20.934  0.00  0.00    +0.000 A 
ATOM     21  C   UNL     1       1.799   2.673  22.090  0.00  0.00    +0.000 C 
ATOM     22  C   UNL     1       2.472   4.722  20.793  0.00  0.00    +0.000 A 
ATOM     23  C   UNL     1       3.100   5.341  19.709  0.00  0.00    +0.000 A 
ENDBRANCH  14  17
ENDBRANCH   1  14
BRANCH   1  24
ATOM     24  C   UNL     1       6.783   4.214  16.228  0.00  0.00    +0.000 C 
BRANCH  24  25
ATOM     25  C   UNL     1       6.924   5.177  15.051  0.00  0.00    +0.000 C 
BRANCH  25  26
ATOM     26  C   UNL     1       7.070   4.443  13.719  0.00  0.00    +0.000 C 
BRANCH  26  27
ATOM     27  C   UNL     1       5.697   4.302  13.066  0.00  0.00    +0.000 C 
BRANCH  27  29
ATOM     28  C   UNL     1       4.357   3.120  11.316  0.00  0.00    +0.000 C 
ATOM     29  C   UNL     1       5.589   3.049  12.206  0.00  0.00    +0.000 C 
ENDBRANCH  27  29
ENDBRANCH  26  27
ENDBRANCH  25  26
ENDBRANCH  24  25
ENDBRANCH   1  24
TORSDOF 11
ENDMDL
MODEL 7
REMARK VINA RESULT:      -7.3      4.102      7.230
REMARK  Name = 
REMARK  13 active torsions:
REMARK  status: ('A' for Active; 'I' for Inactive)
REMARK    1  A    between atoms: C_1  and  C_2
REMARK    2  A    between atoms: C_2  and  C_3
REMARK    3  A    between atoms: C_3  and  C_4
REMARK    4  A    between atoms: C_4  and  C_5
REMARK    5  A    between atoms: C_5  and  C_6
REMARK    6  A    between atoms: C_6  and  C_7
REMARK    7  A    between atoms: C_7  and  N_8
REMARK    8  A    between atoms: C_7  and  S_19
REMARK    9  A    between atoms: C_9  and  O_11
REMARK   10  A    between atoms: O_11  and  C_12
REMARK   11  A    between atoms: C_12  and  C_13
REMARK   12  A    between atoms: S_19  and  C_22
REMARK   13  A    between atoms: C_25  and  C_26
REMARK                            x       y       z     vdW  Elec       q    Type
REMARK                         _______ _______ _______ _____ _____    ______ ____
ROOT
ATOM      1  C   UNL     1       4.296   5.018  18.233  0.00  0.00    +0.000 C 
ENDROOT
BRANCH   1   2
ATOM      2  N   UNL     1       3.660   5.973  19.149  0.00  0.00    +0.000 N 
ATOM      3  C   UNL     1       2.539   6.671  18.813  0.00  0.00    +0.000 C 
ATOM      4  O   UNL     1       1.894   6.499  17.794  0.00  0.00    +0.000 OA
ATOM      5  H   UNL     1       4.172   6.330  19.946  0.00  0.00    +0.000 HD
BRANCH   3   6
ATOM      6  O   UNL     1       2.279   7.574  19.785  0.00  0.00    +0.000 OA
BRANCH   6   7
ATOM      7  C   UNL     1       1.556   8.746  19.385  0.00  0.00    +0.000 C 
BRANCH   7   8
ATOM      8  C   UNL     1       0.787   9.360  20.530  0.00  0.00    +0.000 A 
ATOM      9  C   UNL     1       0.207   8.556  21.523  0.00  0.00    +0.000 A 
ATOM     10  C   UNL     1      -0.452   9.135  22.612  0.00  0.00    +0.000 A 
ATOM     11  C   UNL     1      -0.547  10.522  22.714  0.00  0.00    +0.000 A 
ATOM     12  C   UNL     1       0.011  11.330  21.727  0.00  0.00    +0.000 A 
ATOM     13  C   UNL     1       0.670  10.754  20.637  0.00  0.00    +0.000 A 
ENDBRANCH   7   8
ENDBRANCH   6   7
ENDBRANCH   3   6
ENDBRANCH   1   2
BRANCH   1  14
ATOM     14  S   UNL     1       6.094   5.295  17.920  0.00  0.00    +0.000 S 
ATOM     15  O   UNL     1       6.402   6.711  17.963  0.00  0.00    +0.000 OA
ATOM     16  O   UNL     1       6.848   4.361  18.742  0.00  0.00    +0.000 OA
BRANCH  14  17
ATOM     17  C   UNL     1       6.289   4.793  16.216  0.00  0.00    +0.000 A 
ATOM     18  C   UNL     1       7.412   5.227  15.509  0.00  0.00    +0.000 A 
ATOM     19  C   UNL     1       7.534   4.921  14.153  0.00  0.00    +0.000 A 
ATOM     20  C   UNL     1       6.547   4.168  13.503  0.00  0.00    +0.000 A 
ATOM     21  C   UNL     1       6.664   3.848  12.040  0.00  0.00    +0.000 C 
ATOM     22  C   UNL     1       5.446   3.702  14.238  0.00  0.00    +0.000 A 
ATOM     23  C   UNL     1       5.312   4.012  15.594  0.00  0.00    +0.000 A 
ENDBRANCH  14  17
ENDBRANCH   1  14
BRANCH   1  24
ATOM     24  C   UNL     1       4.086   3.581  18.745  0.00  0.00    +0.000 C 
BRANCH  24  25
ATOM     25  C   UNL     1       3.091   2.810  17.880  0.00  0.00    +0.000 C 
BRANCH  25  26
ATOM     26  C   UNL     1       1.643   3.091  18.276  0.00  0.00    +0.000 C 
BRANCH  26  27
ATOM     27  C   UNL     1       1.338   2.400  19.603  0.00  0.00    +0.000 C 
BRANCH  27  29
ATOM     28  C   UNL     1       2.093   3.489  21.724  0.00  0.00    +0.000 C 
ATOM     29  C   UNL     1       0.970   3.389  20.702  0.00  0.00    +0.000 C 
ENDBRANCH  27  29
ENDBRANCH  26  27
ENDBRANCH  25  26
ENDBRANCH  24  25
ENDBRANCH   1  24
TORSDOF 11
ENDMDL
MODEL 8
REMARK VINA RESULT:      -7.3      4.160      7.179
REMARK  Name = 
REMARK  13 active torsions:
REMARK  status: ('A' for Active; 'I' for Inactive)
REMARK    1  A    between atoms: C_1  and  C_2
REMARK    2  A    between atoms: C_2  and  C_3
REMARK    3  A    between atoms: C_3  and  C_4
REMARK    4  A    between atoms: C_4  and  C_5
REMARK    5  A    between atoms: C_5  and  C_6
REMARK    6  A    between atoms: C_6  and  C_7
REMARK    7  A    between atoms: C_7  and  N_8
REMARK    8  A    between atoms: C_7  and  S_19
REMARK    9  A    between atoms: C_9  and  O_11
REMARK   10  A    between atoms: O_11  and  C_12
REMARK   11  A    between atoms: C_12  and  C_13
REMARK   12  A    between atoms: S_19  and  C_22
REMARK   13  A    between atoms: C_25  and  C_26
REMARK                            x       y       z     vdW  Elec       q    Type
REMARK                         _______ _______ _______ _____ _____    ______ ____
ROOT
ATOM      1  C   UNL     1       4.607   4.977  18.609  0.00  0.00    +0.000 C 
ENDROOT
BRANCH   1   2
ATOM      2  N   UNL     1       3.914   5.945  19.468  0.00  0.00    +0.000 N 
ATOM      3  C   UNL     1       2.690   6.455  19.152  0.00  0.00    +0.000 C 
ATOM      4  O   UNL     1       2.007   6.088  18.213  0.00  0.00    +0.000 OA
ATOM      5  H   UNL     1       4.426   6.452  20.179  0.00  0.00    +0.000 HD
BRANCH   3   6
ATOM      6  O   UNL     1       2.379   7.426  20.041  0.00  0.00    +0.000 OA
BRANCH   6   7
ATOM      7  C   UNL     1       1.628   8.536  19.531  0.00  0.00    +0.000 C 
BRANCH   7   8
ATOM      8  C   UNL     1       0.863   9.253  20.617  0.00  0.00    +0.000 A 
ATOM      9  C   UNL     1       0.039  10.348  20.316  0.00  0.00    +0.000 A 
ATOM     10  C   UNL     1      -0.712  10.970  21.318  0.00  0.00    +0.000 A 
ATOM     11  C   UNL     1      -0.640  10.510  22.631  0.00  0.00    +0.000 A 
ATOM     12  C   UNL     1       0.185   9.433  22.945  0.00  0.00    +0.000 A 
ATOM     13  C   UNL     1       0.937   8.810  21.946  0.00  0.00    +0.000 A 
ENDBRANCH   7   8
ENDBRANCH   6   7
ENDBRANCH   3   6
ENDBRANCH   1   2
BRANCH   1  14
ATOM     14  S   UNL     1       6.246   5.523  17.959  0.00  0.00    +0.000 S 
ATOM     15  O   UNL     1       6.279   6.966  17.822  0.00  0.00    +0.000 OA
ATOM     16  O   UNL     1       7.286   4.839  18.711  0.00  0.00    +0.000 OA
BRANCH  14  17
ATOM     17  C   UNL     1       6.261   4.865  16.298  0.00  0.00    +0.000 A 
ATOM     18  C   UNL     1       7.369   5.109  15.484  0.00  0.00    +0.000 A 
ATOM     19  C   UNL     1       7.357   4.681  14.156  0.00  0.00    +0.000 A 
ATOM     20  C   UNL     1       6.250   3.994  13.640  0.00  0.00    +0.000 A 
ATOM     21  C   UNL     1       6.224   3.544  12.208  0.00  0.00    +0.000 C 
ATOM     22  C   UNL     1       5.163   3.717  14.483  0.00  0.00    +0.000 A 
ATOM     23  C   UNL     1       5.163   4.150  15.811  0.00  0.00    +0.000 A 
ENDBRANCH  14  17
ENDBRANCH   1  14
BRANCH   1  24
ATOM     24  C   UNL     1       4.779   3.641  19.358  0.00  0.00    +0.000 C 
BRANCH  24  25
ATOM     25  C   UNL     1       3.869   2.553  18.792  0.00  0.00    +0.000 C 
BRANCH  25  26
ATOM     26  C   UNL     1       2.966   1.941  19.862  0.00  0.00    +0.000 C 
BRANCH  26  27
ATOM     27  C   UNL     1       2.645   2.997  20.917  0.00  0.00    +0.000 C 
BRANCH  27  29
ATOM     28  C   UNL     1       0.582   3.085  19.506  0.00  0.00    +0.000 C 
ATOM     29  C   UNL     1       1.199   3.474  20.840  0.00  0.00    +0.000 C 
ENDBRANCH  27  29
ENDBRANCH  26  27
ENDBRANCH  25  26
ENDBRANCH  24  25
ENDBRANCH   1  24
TORSDOF 11
ENDMDL
MODEL 9
REMARK VINA RESULT:      -7.2      4.149      7.199
REMARK  Name = 
REMARK  13 active torsions:
REMARK  status: ('A' for Active; 'I' for Inactive)
REMARK    1  A    between atoms: C_1  and  C_2
REMARK    2  A    between atoms: C_2  and  C_3
REMARK    3  A    between atoms: C_3  and  C_4
REMARK    4  A    between atoms: C_4  and  C_5
REMARK    5  A    between atoms: C_5  and  C_6
REMARK    6  A    between atoms: C_6  and  C_7
REMARK    7  A    between atoms: C_7  and  N_8
REMARK    8  A    between atoms: C_7  and  S_19
REMARK    9  A    between atoms: C_9  and  O_11
REMARK   10  A    between atoms: O_11  and  C_12
REMARK   11  A    between atoms: C_12  and  C_13
REMARK   12  A    between atoms: S_19  and  C_22
REMARK   13  A    between atoms: C_25  and  C_26
REMARK                            x       y       z     vdW  Elec       q    Type
REMARK                         _______ _______ _______ _____ _____    ______ ____
ROOT
ATOM      1  C   UNL     1       4.545   5.094  18.271  0.00  0.00    +0.000 C 
ENDROOT
BRANCH   1   2
ATOM      2  N   UNL     1       3.873   6.270  18.838  0.00  0.00    +0.000 N 
ATOM      3  C   UNL     1       2.597   6.613  18.505  0.00  0.00    +0.000 C 
ATOM      4  O   UNL     1       1.856   5.939  17.811  0.00  0.00    +0.000 OA
ATOM      5  H   UNL     1       4.415   6.996  19.289  0.00  0.00    +0.000 HD
BRANCH   3   6
ATOM      6  O   UNL     1       2.308   7.812  19.060  0.00  0.00    +0.000 OA
BRANCH   6   7
ATOM      7  C   UNL     1       1.888   8.844  18.157  0.00  0.00    +0.000 C 
BRANCH   7   8
ATOM      8  C   UNL     1       0.753   9.665  18.719  0.00  0.00    +0.000 A 
ATOM      9  C   UNL     1       0.787  10.135  20.041  0.00  0.00    +0.000 A 
ATOM     10  C   UNL     1      -0.240  10.944  20.535  0.00  0.00    +0.000 A 
ATOM     11  C   UNL     1      -1.316  11.284  19.717  0.00  0.00    +0.000 A 
ATOM     12  C   UNL     1      -1.369  10.812  18.408  0.00  0.00    +0.000 A 
ATOM     13  C   UNL     1      -0.344  10.002  17.912  0.00  0.00    +0.000 A 
ENDBRANCH   7   8
ENDBRANCH   6   7
ENDBRANCH   3   6
ENDBRANCH   1   2
BRANCH   1  14
ATOM     14  S   UNL     1       6.314   5.339  17.804  0.00  0.00    +0.000 S 
ATOM     15  O   UNL     1       6.634   6.752  17.761  0.00  0.00    +0.000 OA
ATOM     16  O   UNL     1       7.125   4.432  18.602  0.00  0.00    +0.000 OA
BRANCH  14  17
ATOM     17  C   UNL     1       6.368   4.764  16.113  0.00  0.00    +0.000 A 
ATOM     18  C   UNL     1       7.408   5.195  15.286  0.00  0.00    +0.000 A 
ATOM     19  C   UNL     1       7.415   4.830  13.940  0.00  0.00    +0.000 A 
ATOM     20  C   UNL     1       6.397   4.021  13.417  0.00  0.00    +0.000 A 
ATOM     21  C   UNL     1       6.389   3.637  11.965  0.00  0.00    +0.000 C 
ATOM     22  C   UNL     1       5.382   3.560  14.270  0.00  0.00    +0.000 A 
ATOM     23  C   UNL     1       5.363   3.929  15.618  0.00  0.00    +0.000 A 
ENDBRANCH  14  17
ENDBRANCH   1  14
BRANCH   1  24
ATOM     24  C   UNL     1       4.438   3.907  19.247  0.00  0.00    +0.000 C 
BRANCH  24  25
ATOM     25  C   UNL     1       3.935   2.644  18.550  0.00  0.00    +0.000 C 
BRANCH  25  26
ATOM     26  C   UNL     1       2.731   2.031  19.264  0.00  0.00    +0.000 C 
BRANCH  26  27
ATOM     27  C   UNL     1       1.536   2.975  19.142  0.00  0.00    +0.000 C 
BRANCH  27  29
ATOM     28  C   UNL     1       1.790   2.938  21.630  0.00  0.00    +0.000 C 
ATOM     29  C   UNL     1       0.833   3.197  20.476  0.00  0.00    +0.000 C 
ENDBRANCH  27  29
ENDBRANCH  26  27
ENDBRANCH  25  26
ENDBRANCH  24  25
ENDBRANCH   1  24
TORSDOF 11
ENDMDL
