MODEL 1
REMARK VINA RESULT:      -7.5      0.000      0.000
REMARK  Name = 
REMARK  9 active torsions:
REMARK  status: ('A' for Active; 'I' for Inactive)
REMARK    1  A    between atoms: C_1  and  C_2
REMARK    2  A    between atoms: C_2  and  C_3
REMARK    3  A    between atoms: C_2  and  C_4
REMARK    4  A    between atoms: C_2  and  C_5
REMARK    5  A    between atoms: N_7  and  C_8
REMARK    6  A    between atoms: C_11  and  N_12
REMARK    7  A    between atoms: N_15  and  C_16
REMARK    8  A    between atoms: C_16  and  C_17
REMARK    9  A    between atoms: C_16  and  C_23
REMARK                            x       y       z     vdW  Elec       q    Type
REMARK                         _______ _______ _______ _____ _____    ______ ____
ROOT
ATOM      1  N   UNL     1       0.809  10.997  19.793  0.00  0.00    +0.000 N 
ATOM      2  C   UNL     1       1.471  12.209  19.264  0.00  0.00    +0.000 C 
ATOM      3  C   UNL     1       0.481  13.063  18.436  0.00  0.00    +0.000 C 
ATOM      4  N   UNL     1      -0.785  13.415  19.148  0.00  0.00    +0.000 NA
ATOM      5  C   UNL     1      -1.394  12.124  19.544  0.00  0.00    +0.000 C 
ATOM      6  C   UNL     1      -0.505  11.212  20.419  0.00  0.00    +0.000 C 
ENDROOT
BRANCH   1  10
ATOM      7  C   UNL     1       2.490   7.261  18.714  0.00  0.00    +0.000 A 
ATOM      8  C   UNL     1       2.236   8.254  17.780  0.00  0.00    +0.000 A 
ATOM      9  C   UNL     1       1.647   9.452  18.158  0.00  0.00    +0.000 A 
ATOM     10  C   UNL     1       1.276   9.728  19.482  0.00  0.00    +0.000 A 
ATOM     11  C   UNL     1       1.451   8.663  20.401  0.00  0.00    +0.000 A 
ATOM     12 CL   UNL     1       1.115   8.802  22.101  0.00  0.00    +0.000 Cl
ATOM     13  C   UNL     1       2.031   7.437  20.015  0.00  0.00    +0.000 A 
BRANCH   7  16
ATOM     14  C   UNL     1       2.631   4.893  18.052  0.00  0.00    +0.000 C 
ATOM     15  O   UNL     1       1.419   4.718  17.941  0.00  0.00    +0.000 OA
ATOM     16  N   UNL     1       3.228   6.099  18.390  0.00  0.00    +0.000 N 
ATOM     17  H   UNL     1       4.207   6.218  18.193  0.00  0.00    +0.000 HD
BRANCH  14  19
ATOM     18  C   UNL     1       4.464   3.549  19.049  0.00  0.00    +0.000 C 
ATOM     19  C   UNL     1       3.591   3.723  17.788  0.00  0.00    +0.000 C 
ATOM     20  C   UNL     1       4.496   4.047  16.594  0.00  0.00    +0.000 C 
ATOM     21  C   UNL     1       2.813   2.426  17.545  0.00  0.00    +0.000 C 
ENDBRANCH  14  19
ENDBRANCH   7  16
ENDBRANCH   1  10
BRANCH   4  22
ATOM     22  C   UNL     1      -0.527  14.333  20.303  0.00  0.00    +0.000 C 
BRANCH  22  23
ATOM     23  C   UNL     1      -0.006  15.690  19.782  0.00  0.00    +0.000 A 
ATOM     24  C   UNL     1      -0.606  16.325  18.679  0.00  0.00    +0.000 A 
ATOM     25  C   UNL     1      -0.052  17.472  18.114  0.00  0.00    +0.000 A 
ATOM     26  C   UNL     1       1.131  17.996  18.627  0.00  0.00    +0.000 A 
ATOM     27  C   UNL     1       1.742  17.386  19.722  0.00  0.00    +0.000 A 
ATOM     28  C   UNL     1       1.174  16.249  20.304  0.00  0.00    +0.000 A 
ENDBRANCH  22  23
BRANCH  22  29
ATOM     29  C   UNL     1      -1.713  14.502  21.275  0.00  0.00    +0.000 A 
ATOM     30  C   UNL     1      -1.578  14.129  22.631  0.00  0.00    +0.000 A 
ATOM     31  C   UNL     1      -2.625  14.324  23.545  0.00  0.00    +0.000 A 
ATOM     32  C   UNL     1      -3.817  14.904  23.124  0.00  0.00    +0.000 A 
ATOM     33  C   UNL     1      -3.975  15.260  21.789  0.00  0.00    +0.000 A 
ATOM     34  C   UNL     1      -2.944  15.039  20.873  0.00  0.00    +0.000 A 
ENDBRANCH  22  29
ENDBRANCH   4  22
TORSDOF 6
ENDMDL
MODEL 2
REMARK VINA RESULT:      -7.4      0.112      1.139
REMARK  Name = 
REMARK  9 active torsions:
REMARK  status: ('A' for Active; 'I' for Inactive)
REMARK    1  A    between atoms: C_1  and  C_2
REMARK    2  A    between atoms: C_2  and  C_3
REMARK    3  A    between atoms: C_2  and  C_4
REMARK    4  A    between atoms: C_2  and  C_5
REMARK    5  A    between atoms: N_7  and  C_8
REMARK    6  A    between atoms: C_11  and  N_12
REMARK    7  A    between atoms: N_15  and  C_16
REMARK    8  A    between atoms: C_16  and  C_17
REMARK    9  A    between atoms: C_16  and  C_23
REMARK                            x       y       z     vdW  Elec       q    Type
REMARK                         _______ _______ _______ _____ _____    ______ ____
ROOT
ATOM      1  N   UNL     1       0.774  10.975  19.836  0.00  0.00    +0.000 N 
ATOM      2  C   UNL     1       1.450  12.184  19.319  0.00  0.00    +0.000 C 
ATOM      3  C   UNL     1       0.477  13.041  18.473  0.00  0.00    +0.000 C 
ATOM      4  N   UNL     1      -0.801  13.397  19.161  0.00  0.00    +0.000 NA
ATOM      5  C   UNL     1      -1.421  12.109  19.547  0.00  0.00    +0.000 C 
ATOM      6  C   UNL     1      -0.550  11.194  20.439  0.00  0.00    +0.000 C 
ENDROOT
BRANCH   1  10
ATOM      7  C   UNL     1       2.459   7.234  18.782  0.00  0.00    +0.000 A 
ATOM      8  C   UNL     1       2.201   8.218  17.841  0.00  0.00    +0.000 A 
ATOM      9  C   UNL     1       1.610   9.418  18.211  0.00  0.00    +0.000 A 
ATOM     10  C   UNL     1       1.242   9.704  19.534  0.00  0.00    +0.000 A 
ATOM     11  C   UNL     1       1.422   8.647  20.461  0.00  0.00    +0.000 A 
ATOM     12 CL   UNL     1       1.090   8.799  22.161  0.00  0.00    +0.000 Cl
ATOM     13  C   UNL     1       2.003   7.419  20.083  0.00  0.00    +0.000 A 
BRANCH   7  16
ATOM     14  C   UNL     1       2.608   4.896  18.022  0.00  0.00    +0.000 C 
ATOM     15  O   UNL     1       1.406   4.755  17.803  0.00  0.00    +0.000 OA
ATOM     16  N   UNL     1       3.198   6.070  18.465  0.00  0.00    +0.000 N 
ATOM     17  H   UNL     1       4.192   6.175  18.356  0.00  0.00    +0.000 HD
BRANCH  14  19
ATOM     18  C   UNL     1       2.695   2.477  17.472  0.00  0.00    +0.000 C 
ATOM     19  C   UNL     1       3.562   3.716  17.783  0.00  0.00    +0.000 C 
ATOM     20  C   UNL     1       4.386   3.445  19.047  0.00  0.00    +0.000 C 
ATOM     21  C   UNL     1       4.477   3.990  16.586  0.00  0.00    +0.000 C 
ENDBRANCH  14  19
ENDBRANCH   7  16
ENDBRANCH   1  10
BRANCH   4  22
ATOM     22  C   UNL     1      -0.560  14.316  20.321  0.00  0.00    +0.000 C 
BRANCH  22  23
ATOM     23  C   UNL     1      -0.047  15.678  19.807  0.00  0.00    +0.000 A 
ATOM     24  C   UNL     1      -0.632  16.303  18.691  0.00  0.00    +0.000 A 
ATOM     25  C   UNL     1      -0.082  17.455  18.134  0.00  0.00    +0.000 A 
ATOM     26  C   UNL     1       1.083  17.996  18.669  0.00  0.00    +0.000 A 
ATOM     27  C   UNL     1       1.680  17.396  19.777  0.00  0.00    +0.000 A 
ATOM     28  C   UNL     1       1.116  16.253  20.351  0.00  0.00    +0.000 A 
ENDBRANCH  22  23
BRANCH  22  29
ATOM     29  C   UNL     1      -1.756  14.472  21.283  0.00  0.00    +0.000 A 
ATOM     30  C   UNL     1      -2.978  15.002  20.816  0.00  0.00    +0.000 A 
ATOM     31  C   UNL     1      -4.096  15.104  21.660  0.00  0.00    +0.000 A 
ATOM     32  C   UNL     1      -4.014  14.667  22.978  0.00  0.00    +0.000 A 
ATOM     33  C   UNL     1      -2.812  14.159  23.461  0.00  0.00    +0.000 A 
ATOM     34  C   UNL     1      -1.692  14.086  22.630  0.00  0.00    +0.000 A 
ENDBRANCH  22  29
ENDBRANCH   4  22
TORSDOF 6
ENDMDL
MODEL 3
REMARK VINA RESULT:      -7.4      0.836      3.565
REMARK  Name = 
REMARK  9 active torsions:
REMARK  status: ('A' for Active; 'I' for Inactive)
REMARK    1  A    between atoms: C_1  and  C_2
REMARK    2  A    between atoms: C_2  and  C_3
REMARK    3  A    between atoms: C_2  and  C_4
REMARK    4  A    between atoms: C_2  and  C_5
REMARK    5  A    between atoms: N_7  and  C_8
REMARK    6  A    between atoms: C_11  and  N_12
REMARK    7  A    between atoms: N_15  and  C_16
REMARK    8  A    between atoms: C_16  and  C_17
REMARK    9  A    between atoms: C_16  and  C_23
REMARK                            x       y       z     vdW  Elec       q    Type
REMARK                         _______ _______ _______ _____ _____    ______ ____
ROOT
ATOM      1  N   UNL     1       0.515  10.867  19.656  0.00  0.00    +0.000 N 
ATOM      2  C   UNL     1      -0.769  10.981  20.379  0.00  0.00    +0.000 C 
ATOM      3  C   UNL     1      -0.605  11.829  21.664  0.00  0.00    +0.000 C 
ATOM      4  N   UNL     1       0.007  13.176  21.449  0.00  0.00    +0.000 NA
ATOM      5  C   UNL     1       1.317  12.921  20.805  0.00  0.00    +0.000 C 
ATOM      6  C   UNL     1       1.263  12.122  19.484  0.00  0.00    +0.000 C 
ENDROOT
BRANCH   1  10
ATOM      7  C   UNL     1       2.503   7.245  18.718  0.00  0.00    +0.000 A 
ATOM      8  C   UNL     1       2.135   8.159  17.743  0.00  0.00    +0.000 A 
ATOM      9  C   UNL     1       1.448   9.318  18.077  0.00  0.00    +0.000 A 
ATOM     10  C   UNL     1       1.088   9.630  19.396  0.00  0.00    +0.000 A 
ATOM     11  C   UNL     1       1.384   8.636  20.362  0.00  0.00    +0.000 A 
ATOM     12 CL   UNL     1       1.082   8.836  22.063  0.00  0.00    +0.000 Cl
ATOM     13  C   UNL     1       2.064   7.449  20.023  0.00  0.00    +0.000 A 
BRANCH   7  16
ATOM     14  C   UNL     1       2.848   4.919  17.987  0.00  0.00    +0.000 C 
ATOM     15  O   UNL     1       1.666   4.685  17.740  0.00  0.00    +0.000 OA
ATOM     16  N   UNL     1       3.336   6.138  18.432  0.00  0.00    +0.000 N 
ATOM     17  H   UNL     1       4.322   6.318  18.345  0.00  0.00    +0.000 HD
BRANCH  14  19
ATOM     18  C   UNL     1       4.857   3.862  18.989  0.00  0.00    +0.000 C 
ATOM     19  C   UNL     1       3.895   3.813  17.783  0.00  0.00    +0.000 C 
ATOM     20  C   UNL     1       4.690   4.075  16.499  0.00  0.00    +0.000 C 
ATOM     21  C   UNL     1       3.228   2.435  17.739  0.00  0.00    +0.000 C 
ENDBRANCH  14  19
ENDBRANCH   7  16
ENDBRANCH   1  10
BRANCH   4  22
ATOM     22  C   UNL     1      -0.892  14.064  20.644  0.00  0.00    +0.000 C 
BRANCH  22  23
ATOM     23  C   UNL     1      -2.212  14.297  21.408  0.00  0.00    +0.000 A 
ATOM     24  C   UNL     1      -2.212  14.721  22.749  0.00  0.00    +0.000 A 
ATOM     25  C   UNL     1      -3.392  14.791  23.488  0.00  0.00    +0.000 A 
ATOM     26  C   UNL     1      -4.598  14.415  22.905  0.00  0.00    +0.000 A 
ATOM     27  C   UNL     1      -4.624  13.994  21.576  0.00  0.00    +0.000 A 
ATOM     28  C   UNL     1      -3.444  13.945  20.827  0.00  0.00    +0.000 A 
ENDBRANCH  22  23
BRANCH  22  29
ATOM     29  C   UNL     1      -0.249  15.387  20.179  0.00  0.00    +0.000 A 
ATOM     30  C   UNL     1      -0.240  15.730  18.809  0.00  0.00    +0.000 A 
ATOM     31  C   UNL     1       0.290  16.953  18.370  0.00  0.00    +0.000 A 
ATOM     32  C   UNL     1       0.809  17.857  19.290  0.00  0.00    +0.000 A 
ATOM     33  C   UNL     1       0.826  17.529  20.642  0.00  0.00    +0.000 A 
ATOM     34  C   UNL     1       0.325  16.299  21.077  0.00  0.00    +0.000 A 
ENDBRANCH  22  29
ENDBRANCH   4  22
TORSDOF 6
ENDMDL
MODEL 4
REMARK VINA RESULT:      -7.4      1.030      1.246
REMARK  Name = 
REMARK  9 active torsions:
REMARK  status: ('A' for Active; 'I' for Inactive)
REMARK    1  A    between atoms: C_1  and  C_2
REMARK    2  A    between atoms: C_2  and  C_3
REMARK    3  A    between atoms: C_2  and  C_4
REMARK    4  A    between atoms: C_2  and  C_5
REMARK    5  A    between atoms: N_7  and  C_8
REMARK    6  A    between atoms: C_11  and  N_12
REMARK    7  A    between atoms: N_15  and  C_16
REMARK    8  A    between atoms: C_16  and  C_17
REMARK    9  A    between atoms: C_16  and  C_23
REMARK                            x       y       z     vdW  Elec       q    Type
REMARK                         _______ _______ _______ _____ _____    ______ ____
ROOT
ATOM      1  N   UNL     1       0.605  10.785  19.718  0.00  0.00    +0.000 N 
ATOM      2  C   UNL     1       1.397  12.028  19.605  0.00  0.00    +0.000 C 
ATOM      3  C   UNL     1       0.735  13.017  18.616  0.00  0.00    +0.000 C 
ATOM      4  N   UNL     1      -0.699  13.323  18.905  0.00  0.00    +0.000 NA
ATOM      5  C   UNL     1      -1.396  12.017  18.901  0.00  0.00    +0.000 C 
ATOM      6  C   UNL     1      -0.844  10.968  19.893  0.00  0.00    +0.000 C 
ENDROOT
BRANCH   1  10
ATOM      7  C   UNL     1       2.536   7.167  18.655  0.00  0.00    +0.000 A 
ATOM      8  C   UNL     1       2.191   8.124  17.713  0.00  0.00    +0.000 A 
ATOM      9  C   UNL     1       1.522   9.281  18.086  0.00  0.00    +0.000 A 
ATOM     10  C   UNL     1       1.158   9.549  19.414  0.00  0.00    +0.000 A 
ATOM     11  C   UNL     1       1.429   8.514  20.344  0.00  0.00    +0.000 A 
ATOM     12 CL   UNL     1       1.117   8.654  22.048  0.00  0.00    +0.000 Cl
ATOM     13  C   UNL     1       2.090   7.328  19.963  0.00  0.00    +0.000 A 
BRANCH   7  16
ATOM     14  C   UNL     1       2.840   4.799  18.050  0.00  0.00    +0.000 C 
ATOM     15  O   UNL     1       1.642   4.526  17.994  0.00  0.00    +0.000 OA
ATOM     16  N   UNL     1       3.351   6.057  18.331  0.00  0.00    +0.000 N 
ATOM     17  H   UNL     1       4.308   6.248  18.091  0.00  0.00    +0.000 HD
BRANCH  14  19
ATOM     18  C   UNL     1       4.850   3.678  18.977  0.00  0.00    +0.000 C 
ATOM     19  C   UNL     1       3.879   3.701  17.777  0.00  0.00    +0.000 C 
ATOM     20  C   UNL     1       4.665   4.029  16.503  0.00  0.00    +0.000 C 
ATOM     21  C   UNL     1       3.204   2.330  17.663  0.00  0.00    +0.000 C 
ENDBRANCH  14  19
ENDBRANCH   7  16
ENDBRANCH   1  10
BRANCH   4  22
ATOM     22  C   UNL     1      -0.849  14.077  20.191  0.00  0.00    +0.000 C 
BRANCH  22  23
ATOM     23  C   UNL     1      -0.868  15.594  19.906  0.00  0.00    +0.000 A 
ATOM     24  C   UNL     1      -1.332  16.510  20.867  0.00  0.00    +0.000 A 
ATOM     25  C   UNL     1      -1.490  17.861  20.564  0.00  0.00    +0.000 A 
ATOM     26  C   UNL     1      -1.208  18.322  19.282  0.00  0.00    +0.000 A 
ATOM     27  C   UNL     1      -0.744  17.434  18.313  0.00  0.00    +0.000 A 
ATOM     28  C   UNL     1      -0.563  16.082  18.622  0.00  0.00    +0.000 A 
ENDBRANCH  22  23
BRANCH  22  29
ATOM     29  C   UNL     1      -2.042  13.637  21.066  0.00  0.00    +0.000 A 
ATOM     30  C   UNL     1      -1.823  13.167  22.379  0.00  0.00    +0.000 A 
ATOM     31  C   UNL     1      -2.896  12.812  23.211  0.00  0.00    +0.000 A 
ATOM     32  C   UNL     1      -4.203  12.932  22.751  0.00  0.00    +0.000 A 
ATOM     33  C   UNL     1      -4.437  13.374  21.452  0.00  0.00    +0.000 A 
ATOM     34  C   UNL     1      -3.368  13.699  20.614  0.00  0.00    +0.000 A 
ENDBRANCH  22  29
ENDBRANCH   4  22
TORSDOF 6
ENDMDL
MODEL 5
REMARK VINA RESULT:      -7.4      0.170      1.140
REMARK  Name = 
REMARK  9 active torsions:
REMARK  status: ('A' for Active; 'I' for Inactive)
REMARK    1  A    between atoms: C_1  and  C_2
REMARK    2  A    between atoms: C_2  and  C_3
REMARK    3  A    between atoms: C_2  and  C_4
REMARK    4  A    between atoms: C_2  and  C_5
REMARK    5  A    between atoms: N_7  and  C_8
REMARK    6  A    between atoms: C_11  and  N_12
REMARK    7  A    between atoms: N_15  and  C_16
REMARK    8  A    between atoms: C_16  and  C_17
REMARK    9  A    between atoms: C_16  and  C_23
REMARK                            x       y       z     vdW  Elec       q    Type
REMARK                         _______ _______ _______ _____ _____    ______ ____
ROOT
ATOM      1  N   UNL     1       0.890  10.963  19.780  0.00  0.00    +0.000 N 
ATOM      2  C   UNL     1       1.530  12.147  19.169  0.00  0.00    +0.000 C 
ATOM      3  C   UNL     1       0.502  12.978  18.365  0.00  0.00    +0.000 C 
ATOM      4  N   UNL     1      -0.721  13.368  19.132  0.00  0.00    +0.000 NA
ATOM      5  C   UNL     1      -1.315  12.099  19.611  0.00  0.00    +0.000 C 
ATOM      6  C   UNL     1      -0.385  11.213  20.470  0.00  0.00    +0.000 C 
ENDROOT
BRANCH   1  10
ATOM      7  C   UNL     1       2.493   7.173  18.773  0.00  0.00    +0.000 A 
ATOM      8  C   UNL     1       2.270   8.156  17.822  0.00  0.00    +0.000 A 
ATOM      9  C   UNL     1       1.705   9.373  18.176  0.00  0.00    +0.000 A 
ATOM     10  C   UNL     1       1.330   9.678  19.493  0.00  0.00    +0.000 A 
ATOM     11  C   UNL     1       1.473   8.624  20.429  0.00  0.00    +0.000 A 
ATOM     12 CL   UNL     1       1.128   8.798  22.124  0.00  0.00    +0.000 Cl
ATOM     13  C   UNL     1       2.028   7.379  20.068  0.00  0.00    +0.000 A 
BRANCH   7  16
ATOM     14  C   UNL     1       2.590   4.820  18.050  0.00  0.00    +0.000 C 
ATOM     15  O   UNL     1       1.385   4.701  17.837  0.00  0.00    +0.000 OA
ATOM     16  N   UNL     1       3.207   5.988  18.473  0.00  0.00    +0.000 N 
ATOM     17  H   UNL     1       4.202   6.070  18.359  0.00  0.00    +0.000 HD
BRANCH  14  19
ATOM     18  C   UNL     1       4.416   3.945  16.615  0.00  0.00    +0.000 C 
ATOM     19  C   UNL     1       3.519   3.616  17.828  0.00  0.00    +0.000 C 
ATOM     20  C   UNL     1       2.689   2.367  17.511  0.00  0.00    +0.000 C 
ATOM     21  C   UNL     1       4.409   3.383  19.052  0.00  0.00    +0.000 C 
ENDBRANCH  14  19
ENDBRANCH   7  16
ENDBRANCH   1  10
BRANCH   4  22
ATOM     22  C   UNL     1      -0.392  14.328  20.235  0.00  0.00    +0.000 C 
BRANCH  22  23
ATOM     23  C   UNL     1       0.144  15.645  19.635  0.00  0.00    +0.000 A 
ATOM     24  C   UNL     1       1.255  16.301  20.195  0.00  0.00    +0.000 A 
ATOM     25  C   UNL     1       1.652  17.561  19.751  0.00  0.00    +0.000 A 
ATOM     26  C   UNL     1       0.929  18.204  18.751  0.00  0.00    +0.000 A 
ATOM     27  C   UNL     1      -0.174  17.573  18.179  0.00  0.00    +0.000 A 
ATOM     28  C   UNL     1      -0.560  16.298  18.607  0.00  0.00    +0.000 A 
ENDBRANCH  22  23
BRANCH  22  29
ATOM     29  C   UNL     1      -1.533  14.572  21.244  0.00  0.00    +0.000 A 
ATOM     30  C   UNL     1      -1.353  14.255  22.608  0.00  0.00    +0.000 A 
ATOM     31  C   UNL     1      -2.358  14.518  23.553  0.00  0.00    +0.000 A 
ATOM     32  C   UNL     1      -3.550  15.113  23.154  0.00  0.00    +0.000 A 
ATOM     33  C   UNL     1      -3.752  15.414  21.811  0.00  0.00    +0.000 A 
ATOM     34  C   UNL     1      -2.765  15.125  20.866  0.00  0.00    +0.000 A 
ENDBRANCH  22  29
ENDBRANCH   4  22
TORSDOF 6
ENDMDL
MODEL 6
REMARK VINA RESULT:      -7.4      0.416      1.221
REMARK  Name = 
REMARK  9 active torsions:
REMARK  status: ('A' for Active; 'I' for Inactive)
REMARK    1  A    between atoms: C_1  and  C_2
REMARK    2  A    between atoms: C_2  and  C_3
REMARK    3  A    between atoms: C_2  and  C_4
REMARK    4  A    between atoms: C_2  and  C_5
REMARK    5  A    between atoms: N_7  and  C_8
REMARK    6  A    between atoms: C_11  and  N_12
REMARK    7  A    between atoms: N_15  and  C_16
REMARK    8  A    between atoms: C_16  and  C_17
REMARK    9  A    between atoms: C_16  and  C_23
REMARK                            x       y       z     vdW  Elec       q    Type
REMARK                         _______ _______ _______ _____ _____    ______ ____
ROOT
ATOM      1  N   UNL     1       0.739  10.905  19.837  0.00  0.00    +0.000 N 
ATOM      2  C   UNL     1       1.448  12.125  19.397  0.00  0.00    +0.000 C 
ATOM      3  C   UNL     1       0.533  13.008  18.514  0.00  0.00    +0.000 C 
ATOM      4  N   UNL     1      -0.786  13.350  19.129  0.00  0.00    +0.000 NA
ATOM      5  C   UNL     1      -1.431  12.053  19.439  0.00  0.00    +0.000 C 
ATOM      6  C   UNL     1      -0.621  11.112  20.359  0.00  0.00    +0.000 C 
ENDROOT
BRANCH   1  10
ATOM      7  C   UNL     1       2.470   7.189  18.768  0.00  0.00    +0.000 A 
ATOM      8  C   UNL     1       2.180   8.166  17.828  0.00  0.00    +0.000 A 
ATOM      9  C   UNL     1       1.575   9.357  18.203  0.00  0.00    +0.000 A 
ATOM     10  C   UNL     1       1.224   9.641  19.532  0.00  0.00    +0.000 A 
ATOM     11  C   UNL     1       1.437   8.590  20.459  0.00  0.00    +0.000 A 
ATOM     12 CL   UNL     1       1.131   8.743  22.164  0.00  0.00    +0.000 Cl
ATOM     13  C   UNL     1       2.032   7.371  20.076  0.00  0.00    +0.000 A 
BRANCH   7  16
ATOM     14  C   UNL     1       2.646   4.848  18.025  0.00  0.00    +0.000 C 
ATOM     15  O   UNL     1       1.442   4.681  17.839  0.00  0.00    +0.000 OA
ATOM     16  N   UNL     1       3.224   6.037  18.443  0.00  0.00    +0.000 N 
ATOM     17  H   UNL     1       4.212   6.160  18.307  0.00  0.00    +0.000 HD
BRANCH  14  19
ATOM     18  C   UNL     1       4.494   3.534  19.034  0.00  0.00    +0.000 C 
ATOM     19  C   UNL     1       3.617   3.684  17.773  0.00  0.00    +0.000 C 
ATOM     20  C   UNL     1       4.517   4.005  16.574  0.00  0.00    +0.000 C 
ATOM     21  C   UNL     1       2.853   2.377  17.545  0.00  0.00    +0.000 C 
ENDBRANCH  14  19
ENDBRANCH   7  16
ENDBRANCH   1  10
BRANCH   4  22
ATOM     22  C   UNL     1      -0.620  14.235  20.325  0.00  0.00    +0.000 C 
BRANCH  22  23
ATOM     23  C   UNL     1      -0.180  15.644  19.872  0.00  0.00    +0.000 A 
ATOM     24  C   UNL     1       0.398  16.553  20.777  0.00  0.00    +0.000 A 
ATOM     25  C   UNL     1       0.661  17.871  20.412  0.00  0.00    +0.000 A 
ATOM     26  C   UNL     1       0.328  18.317  19.136  0.00  0.00    +0.000 A 
ATOM     27  C   UNL     1      -0.243  17.435  18.221  0.00  0.00    +0.000 A 
ATOM     28  C   UNL     1      -0.486  16.105  18.579  0.00  0.00    +0.000 A 
ENDBRANCH  22  23
BRANCH  22  29
ATOM     29  C   UNL     1      -1.838  14.284  21.271  0.00  0.00    +0.000 A 
ATOM     30  C   UNL     1      -3.048  14.870  20.840  0.00  0.00    +0.000 A 
ATOM     31  C   UNL     1      -4.185  14.878  21.663  0.00  0.00    +0.000 A 
ATOM     32  C   UNL     1      -4.136  14.290  22.923  0.00  0.00    +0.000 A 
ATOM     33  C   UNL     1      -2.946  13.725  23.372  0.00  0.00    +0.000 A 
ATOM     34  C   UNL     1      -1.807  13.744  22.565  0.00  0.00    +0.000 A 
ENDBRANCH  22  29
ENDBRANCH   4  22
TORSDOF 6
ENDMDL
MODEL 7
REMARK VINA RESULT:      -7.4      0.818      3.492
REMARK  Name = 
REMARK  9 active torsions:
REMARK  status: ('A' for Active; 'I' for Inactive)
REMARK    1  A    between atoms: C_1  and  C_2
REMARK    2  A    between atoms: C_2  and  C_3
REMARK    3  A    between atoms: C_2  and  C_4
REMARK    4  A    between atoms: C_2  and  C_5
REMARK    5  A    between atoms: N_7  and  C_8
REMARK    6  A    between atoms: C_11  and  N_12
REMARK    7  A    between atoms: N_15  and  C_16
REMARK    8  A    between atoms: C_16  and  C_17
REMARK    9  A    between atoms: C_16  and  C_23
REMARK                            x       y       z     vdW  Elec       q    Type
REMARK                         _______ _______ _______ _____ _____    ______ ____
ROOT
ATOM      1  N   UNL     1       0.516  10.851  19.659  0.00  0.00    +0.000 N 
ATOM      2  C   UNL     1      -0.743  10.975  20.424  0.00  0.00    +0.000 C 
ATOM      3  C   UNL     1      -0.540  11.849  21.684  0.00  0.00    +0.000 C 
ATOM      4  N   UNL     1       0.058  13.194  21.421  0.00  0.00    +0.000 NA
ATOM      5  C   UNL     1       1.346  12.932  20.739  0.00  0.00    +0.000 C 
ATOM      6  C   UNL     1       1.251  12.106  19.436  0.00  0.00    +0.000 C 
ENDROOT
BRANCH   1  10
ATOM      7  C   UNL     1       2.494   7.220  18.736  0.00  0.00    +0.000 A 
ATOM      8  C   UNL     1       2.119   8.126  17.756  0.00  0.00    +0.000 A 
ATOM      9  C   UNL     1       1.435   9.288  18.086  0.00  0.00    +0.000 A 
ATOM     10  C   UNL     1       1.086   9.611  19.405  0.00  0.00    +0.000 A 
ATOM     11  C   UNL     1       1.390   8.626  20.378  0.00  0.00    +0.000 A 
ATOM     12 CL   UNL     1       1.102   8.841  22.079  0.00  0.00    +0.000 Cl
ATOM     13  C   UNL     1       2.066   7.435  20.042  0.00  0.00    +0.000 A 
BRANCH   7  16
ATOM     14  C   UNL     1       2.833   4.896  17.995  0.00  0.00    +0.000 C 
ATOM     15  O   UNL     1       1.653   4.670  17.735  0.00  0.00    +0.000 OA
ATOM     16  N   UNL     1       3.324   6.110  18.452  0.00  0.00    +0.000 N 
ATOM     17  H   UNL     1       4.311   6.284  18.377  0.00  0.00    +0.000 HD
BRANCH  14  19
ATOM     18  C   UNL     1       3.114   2.444  17.732  0.00  0.00    +0.000 C 
ATOM     19  C   UNL     1       3.876   3.785  17.796  0.00  0.00    +0.000 C 
ATOM     20  C   UNL     1       4.842   3.755  18.987  0.00  0.00    +0.000 C 
ATOM     21  C   UNL     1       4.638   3.983  16.482  0.00  0.00    +0.000 C 
ENDBRANCH  14  19
ENDBRANCH   7  16
ENDBRANCH   1  10
BRANCH   4  22
ATOM     22  C   UNL     1      -0.872  14.061  20.630  0.00  0.00    +0.000 C 
BRANCH  22  23
ATOM     23  C   UNL     1      -2.179  14.279  21.421  0.00  0.00    +0.000 A 
ATOM     24  C   UNL     1      -3.433  13.997  20.848  0.00  0.00    +0.000 A 
ATOM     25  C   UNL     1      -4.619  14.329  21.499  0.00  0.00    +0.000 A 
ATOM     26  C   UNL     1      -4.576  14.973  22.732  0.00  0.00    +0.000 A 
ATOM     27  C   UNL     1      -3.346  15.261  23.321  0.00  0.00    +0.000 A 
ATOM     28  C   UNL     1      -2.155  14.907  22.679  0.00  0.00    +0.000 A 
ENDBRANCH  22  23
BRANCH  22  29
ATOM     29  C   UNL     1      -0.261  15.391  20.142  0.00  0.00    +0.000 A 
ATOM     30  C   UNL     1      -0.350  15.757  18.781  0.00  0.00    +0.000 A 
ATOM     31  C   UNL     1       0.151  16.986  18.324  0.00  0.00    +0.000 A 
ATOM     32  C   UNL     1       0.737  17.874  19.220  0.00  0.00    +0.000 A 
ATOM     33  C   UNL     1       0.851  17.523  20.561  0.00  0.00    +0.000 A 
ATOM     34  C   UNL     1       0.380  16.287  21.010  0.00  0.00    +0.000 A 
ENDBRANCH  22  29
ENDBRANCH   4  22
TORSDOF 6
ENDMDL
MODEL 8
REMARK VINA RESULT:      -7.4      0.816      3.354
REMARK  Name = 
REMARK  9 active torsions:
REMARK  status: ('A' for Active; 'I' for Inactive)
REMARK    1  A    between atoms: C_1  and  C_2
REMARK    2  A    between atoms: C_2  and  C_3
REMARK    3  A    between atoms: C_2  and  C_4
REMARK    4  A    between atoms: C_2  and  C_5
REMARK    5  A    between atoms: N_7  and  C_8
REMARK    6  A    between atoms: C_11  and  N_12
REMARK    7  A    between atoms: N_15  and  C_16
REMARK    8  A    between atoms: C_16  and  C_17
REMARK    9  A    between atoms: C_16  and  C_23
REMARK                            x       y       z     vdW  Elec       q    Type
REMARK                         _______ _______ _______ _____ _____    ______ ____
ROOT
ATOM      1  N   UNL     1       0.506  10.848  19.669  0.00  0.00    +0.000 N 
ATOM      2  C   UNL     1      -0.744  10.963  20.450  0.00  0.00    +0.000 C 
ATOM      3  C   UNL     1      -0.532  11.840  21.707  0.00  0.00    +0.000 C 
ATOM      4  N   UNL     1       0.053  13.189  21.435  0.00  0.00    +0.000 NA
ATOM      5  C   UNL     1       1.335  12.936  20.737  0.00  0.00    +0.000 C 
ATOM      6  C   UNL     1       1.229  12.108  19.436  0.00  0.00    +0.000 C 
ENDROOT
BRANCH   1  10
ATOM      7  C   UNL     1       2.502   7.231  18.729  0.00  0.00    +0.000 A 
ATOM      8  C   UNL     1       2.126   8.142  17.754  0.00  0.00    +0.000 A 
ATOM      9  C   UNL     1       1.437   9.299  18.088  0.00  0.00    +0.000 A 
ATOM     10  C   UNL     1       1.082   9.612  19.409  0.00  0.00    +0.000 A 
ATOM     11  C   UNL     1       1.387   8.622  20.376  0.00  0.00    +0.000 A 
ATOM     12 CL   UNL     1       1.092   8.824  22.078  0.00  0.00    +0.000 Cl
ATOM     13  C   UNL     1       2.069   7.436  20.035  0.00  0.00    +0.000 A 
BRANCH   7  16
ATOM     14  C   UNL     1       2.853   4.911  17.981  0.00  0.00    +0.000 C 
ATOM     15  O   UNL     1       1.673   4.679  17.722  0.00  0.00    +0.000 OA
ATOM     16  N   UNL     1       3.337   6.127  18.440  0.00  0.00    +0.000 N 
ATOM     17  H   UNL     1       4.323   6.306  18.363  0.00  0.00    +0.000 HD
BRANCH  14  19
ATOM     18  C   UNL     1       4.894   3.891  18.955  0.00  0.00    +0.000 C 
ATOM     19  C   UNL     1       3.901   3.807  17.777  0.00  0.00    +0.000 C 
ATOM     20  C   UNL     1       4.660   4.041  16.466  0.00  0.00    +0.000 C 
ATOM     21  C   UNL     1       3.243   2.424  17.785  0.00  0.00    +0.000 C 
ENDBRANCH  14  19
ENDBRANCH   7  16
ENDBRANCH   1  10
BRANCH   4  22
ATOM     22  C   UNL     1      -0.893  14.049  20.655  0.00  0.00    +0.000 C 
BRANCH  22  23
ATOM     23  C   UNL     1      -2.195  14.252  21.459  0.00  0.00    +0.000 A 
ATOM     24  C   UNL     1      -3.456  14.113  20.851  0.00  0.00    +0.000 A 
ATOM     25  C   UNL     1      -4.628  14.437  21.530  0.00  0.00    +0.000 A 
ATOM     26  C   UNL     1      -4.562  14.931  22.829  0.00  0.00    +0.000 A 
ATOM     27  C   UNL     1      -3.325  15.075  23.455  0.00  0.00    +0.000 A 
ATOM     28  C   UNL     1      -2.149  14.728  22.782  0.00  0.00    +0.000 A 
ENDBRANCH  22  23
BRANCH  22  29
ATOM     29  C   UNL     1      -0.300  15.386  20.164  0.00  0.00    +0.000 A 
ATOM     30  C   UNL     1       0.237  16.307  21.090  0.00  0.00    +0.000 A 
ATOM     31  C   UNL     1       0.830  17.505  20.663  0.00  0.00    +0.000 A 
ATOM     32  C   UNL     1       0.907  17.797  19.305  0.00  0.00    +0.000 A 
ATOM     33  C   UNL     1       0.366  16.911  18.379  0.00  0.00    +0.000 A 
ATOM     34  C   UNL     1      -0.251  15.733  18.806  0.00  0.00    +0.000 A 
ENDBRANCH  22  29
ENDBRANCH   4  22
TORSDOF 6
ENDMDL
MODEL 9
REMARK VINA RESULT:      -7.2      0.865      1.339
REMARK  Name = 
REMARK  9 active torsions:
REMARK  status: ('A' for Active; 'I' for Inactive)
REMARK    1  A    between atoms: C_1  and  C_2
REMARK    2  A    between atoms: C_2  and  C_3
REMARK    3  A    between atoms: C_2  and  C_4
REMARK    4  A    between atoms: C_2  and  C_5
REMARK    5  A    between atoms: N_7  and  C_8
REMARK    6  A    between atoms: C_11  and  N_12
REMARK    7  A    between atoms: N_15  and  C_16
REMARK    8  A    between atoms: C_16  and  C_17
REMARK    9  A    between atoms: C_16  and  C_23
REMARK                            x       y       z     vdW  Elec       q    Type
REMARK                         _______ _______ _______ _____ _____    ______ ____
ROOT
ATOM      1  N   UNL     1       0.624  10.990  19.785  0.00  0.00    +0.000 N 
ATOM      2  C   UNL     1       1.105  12.200  19.086  0.00  0.00    +0.000 C 
ATOM      3  C   UNL     1      -0.057  12.916  18.358  0.00  0.00    +0.000 C 
ATOM      4  N   UNL     1      -1.234  13.233  19.223  0.00  0.00    +0.000 NA
ATOM      5  C   UNL     1      -1.675  11.937  19.789  0.00  0.00    +0.000 C 
ATOM      6  C   UNL     1      -0.601  11.160  20.583  0.00  0.00    +0.000 C 
ENDROOT
BRANCH   1  10
ATOM      7  C   UNL     1       2.456   7.309  18.763  0.00  0.00    +0.000 A 
ATOM      8  C   UNL     1       2.155   8.273  17.813  0.00  0.00    +0.000 A 
ATOM      9  C   UNL     1       1.517   9.452  18.173  0.00  0.00    +0.000 A 
ATOM     10  C   UNL     1       1.142   9.735  19.494  0.00  0.00    +0.000 A 
ATOM     11  C   UNL     1       1.368   8.696  20.431  0.00  0.00    +0.000 A 
ATOM     12 CL   UNL     1       1.036   8.852  22.131  0.00  0.00    +0.000 Cl
ATOM     13  C   UNL     1       1.997   7.489  20.064  0.00  0.00    +0.000 A 
BRANCH   7  16
ATOM     14  C   UNL     1       2.696   4.966  18.042  0.00  0.00    +0.000 C 
ATOM     15  O   UNL     1       1.498   4.769  17.845  0.00  0.00    +0.000 OA
ATOM     16  N   UNL     1       3.241   6.173  18.455  0.00  0.00    +0.000 N 
ATOM     17  H   UNL     1       4.227   6.319  18.327  0.00  0.00    +0.000 HD
BRANCH  14  19
ATOM     18  C   UNL     1       4.503   4.172  16.538  0.00  0.00    +0.000 C 
ATOM     19  C   UNL     1       3.698   3.825  17.808  0.00  0.00    +0.000 C 
ATOM     20  C   UNL     1       2.946   2.508  17.580  0.00  0.00    +0.000 C 
ATOM     21  C   UNL     1       4.666   3.701  18.988  0.00  0.00    +0.000 C 
ENDBRANCH  14  19
ENDBRANCH   7  16
ENDBRANCH   1  10
BRANCH   4  22
ATOM     22  C   UNL     1      -0.890  14.254  20.264  0.00  0.00    +0.000 C 
BRANCH  22  23
ATOM     23  C   UNL     1      -0.979  15.669  19.653  0.00  0.00    +0.000 A 
ATOM     24  C   UNL     1      -1.946  16.591  20.091  0.00  0.00    +0.000 A 
ATOM     25  C   UNL     1      -2.127  17.813  19.446  0.00  0.00    +0.000 A 
ATOM     26  C   UNL     1      -1.357  18.129  18.331  0.00  0.00    +0.000 A 
ATOM     27  C   UNL     1      -0.390  17.233  17.880  0.00  0.00    +0.000 A 
ATOM     28  C   UNL     1      -0.191  16.016  18.540  0.00  0.00    +0.000 A 
ENDBRANCH  22  23
BRANCH  22  29
ATOM     29  C   UNL     1      -1.691  14.137  21.577  0.00  0.00    +0.000 A 
ATOM     30  C   UNL     1      -1.031  14.226  22.822  0.00  0.00    +0.000 A 
ATOM     31  C   UNL     1      -1.746  14.177  24.029  0.00  0.00    +0.000 A 
ATOM     32  C   UNL     1      -3.131  14.051  24.012  0.00  0.00    +0.000 A 
ATOM     33  C   UNL     1      -3.797  13.943  22.795  0.00  0.00    +0.000 A 
ATOM     34  C   UNL     1      -3.082  13.962  21.595  0.00  0.00    +0.000 A 
ENDBRANCH  22  29
ENDBRANCH   4  22
TORSDOF 6
ENDMDL
