MODEL 1
REMARK VINA RESULT:      -8.9      0.000      0.000
REMARK  Name = 
REMARK  7 active torsions:
REMARK  status: ('A' for Active; 'I' for Inactive)
REMARK    1  A    between atoms: C_1  and  C_2
REMARK    2  A    between atoms: C_2  and  N_3
REMARK    3  A    between atoms: C_2  and  C_27
REMARK    4  A    between atoms: C_4  and  C_6
REMARK    5  A    between atoms: C_9  and  N_10
REMARK    6  A    between atoms: C_11  and  C_13
REMARK    7  A    between atoms: C_13  and  C_14
REMARK                            x       y       z     vdW  Elec       q    Type
REMARK                         _______ _______ _______ _____ _____    ______ ____
ROOT
ATOM      1  C   UNL     1       1.266   9.334  19.272  0.00  0.00    +0.000 A 
ATOM      2  C   UNL     1       1.973   8.530  18.377  0.00  0.00    +0.000 A 
ATOM      3  C   UNL     1       2.411   7.263  18.769  0.00  0.00    +0.000 A 
ATOM      4  C   UNL     1       2.170   6.783  20.058  0.00  0.00    +0.000 A 
ATOM      5  C   UNL     1       1.454   7.587  20.955  0.00  0.00    +0.000 A 
ATOM      6  C   UNL     1       1.023   8.866  20.568  0.00  0.00    +0.000 A 
ENDROOT
BRANCH   1   8
ATOM      7  N   UNL     1      -0.588  10.872  18.996  0.00  0.00    +0.000 N 
ATOM      8  C   UNL     1       0.770  10.682  18.867  0.00  0.00    +0.000 C 
ATOM      9  O   UNL     1       1.550  11.541  18.478  0.00  0.00    +0.000 OA
ATOM     10  H   UNL     1      -1.139  10.175  19.473  0.00  0.00    +0.000 HD
BRANCH   7  12
ATOM     11  C   UNL     1      -1.161  13.091  19.890  0.00  0.00    +0.000 C 
ATOM     12  C   UNL     1      -1.240  12.134  18.698  0.00  0.00    +0.000 C 
BRANCH  12  13
ATOM     13  C   UNL     1      -2.678  11.875  18.277  0.00  0.00    +0.000 A 
ATOM     14  C   UNL     1      -2.944  11.324  17.015  0.00  0.00    +0.000 A 
ATOM     15  C   UNL     1      -4.255  11.063  16.610  0.00  0.00    +0.000 A 
ATOM     16  C   UNL     1      -5.318  11.342  17.466  0.00  0.00    +0.000 A 
ATOM     17  C   UNL     1      -5.073  11.884  18.725  0.00  0.00    +0.000 A 
ATOM     18  C   UNL     1      -3.763  12.150  19.129  0.00  0.00    +0.000 A 
ENDBRANCH  12  13
ENDBRANCH   7  12
ENDBRANCH   1   8
BRANCH   4  19
ATOM     19  N   UNL     1       2.621   5.513  20.490  0.00  0.00    +0.000 N 
ATOM     20  C   UNL     1       1.809   4.395  20.648  0.00  0.00    +0.000 C 
ATOM     21  O   UNL     1       0.617   4.332  20.354  0.00  0.00    +0.000 OA
ATOM     22  H   UNL     1       3.623   5.388  20.564  0.00  0.00    +0.000 HD
BRANCH  20  23
ATOM     23  C   UNL     1       2.502   3.179  21.221  0.00  0.00    +0.000 C 
BRANCH  23  24
ATOM     24  C   UNL     1       3.393   2.454  20.219  0.00  0.00    +0.000 C 
ATOM     25  S   UNL     1       4.918   3.322  19.774  0.00  0.00    +0.000 S 
ATOM     26  C   UNL     1       4.373   3.479  18.114  0.00  0.00    +0.000 C 
ATOM     27  N   UNL     1       5.119   4.213  17.232  0.00  0.00    +0.000 N 
ATOM     28  C   UNL     1       6.236   5.085  17.561  0.00  0.00    +0.000 C 
ATOM     29  C   UNL     1       6.178   6.160  16.486  0.00  0.00    +0.000 C 
ATOM     30  C   UNL     1       5.717   5.395  15.259  0.00  0.00    +0.000 C 
ATOM     31  C   UNL     1       4.778   4.322  15.817  0.00  0.00    +0.000 C 
ATOM     32  N   UNL     1       3.272   2.869  17.821  0.00  0.00    +0.000 NA
ATOM     33  C   UNL     1       2.684   2.250  18.897  0.00  0.00    +0.000 C 
ATOM     34  O   UNL     1       1.629   1.625  18.834  0.00  0.00    +0.000 OA
ENDBRANCH  23  24
ENDBRANCH  20  23
ENDBRANCH   4  19
TORSDOF 6
ENDMDL
MODEL 2
REMARK VINA RESULT:      -8.6      2.528      4.676
REMARK  Name = 
REMARK  7 active torsions:
REMARK  status: ('A' for Active; 'I' for Inactive)
REMARK    1  A    between atoms: C_1  and  C_2
REMARK    2  A    between atoms: C_2  and  N_3
REMARK    3  A    between atoms: C_2  and  C_27
REMARK    4  A    between atoms: C_4  and  C_6
REMARK    5  A    between atoms: C_9  and  N_10
REMARK    6  A    between atoms: C_11  and  C_13
REMARK    7  A    between atoms: C_13  and  C_14
REMARK                            x       y       z     vdW  Elec       q    Type
REMARK                         _______ _______ _______ _____ _____    ______ ____
ROOT
ATOM      1  C   UNL     1       1.226   9.206  19.659  0.00  0.00    +0.000 A 
ATOM      2  C   UNL     1       1.649   8.035  20.288  0.00  0.00    +0.000 A 
ATOM      3  C   UNL     1       2.414   7.101  19.588  0.00  0.00    +0.000 A 
ATOM      4  C   UNL     1       2.756   7.305  18.249  0.00  0.00    +0.000 A 
ATOM      5  C   UNL     1       2.338   8.484  17.619  0.00  0.00    +0.000 A 
ATOM      6  C   UNL     1       1.558   9.421  18.316  0.00  0.00    +0.000 A 
ENDROOT
BRANCH   1   8
ATOM      7  N   UNL     1       0.386  11.476  19.813  0.00  0.00    +0.000 N 
ATOM      8  C   UNL     1       0.426  10.228  20.396  0.00  0.00    +0.000 C 
ATOM      9  O   UNL     1      -0.162   9.934  21.428  0.00  0.00    +0.000 OA
ATOM     10  H   UNL     1       0.761  11.597  18.883  0.00  0.00    +0.000 HD
BRANCH   7  12
ATOM     11  C   UNL     1      -1.873  12.420  20.050  0.00  0.00    +0.000 C 
ATOM     12  C   UNL     1      -0.382  12.579  20.360  0.00  0.00    +0.000 C 
BRANCH  12  13
ATOM     13  C   UNL     1       0.167  13.893  19.829  0.00  0.00    +0.000 A 
ATOM     14  C   UNL     1      -0.718  14.897  19.407  0.00  0.00    +0.000 A 
ATOM     15  C   UNL     1      -0.239  16.118  18.929  0.00  0.00    +0.000 A 
ATOM     16  C   UNL     1       1.132  16.357  18.874  0.00  0.00    +0.000 A 
ATOM     17  C   UNL     1       2.026  15.375  19.294  0.00  0.00    +0.000 A 
ATOM     18  C   UNL     1       1.549  14.150  19.767  0.00  0.00    +0.000 A 
ENDBRANCH  12  13
ENDBRANCH   7  12
ENDBRANCH   1   8
BRANCH   4  19
ATOM     19  N   UNL     1       3.511   6.365  17.508  0.00  0.00    +0.000 N 
ATOM     20  C   UNL     1       4.833   6.543  17.115  0.00  0.00    +0.000 C 
ATOM     21  O   UNL     1       5.549   7.493  17.430  0.00  0.00    +0.000 OA
ATOM     22  H   UNL     1       3.091   5.454  17.369  0.00  0.00    +0.000 HD
BRANCH  20  23
ATOM     23  C   UNL     1       5.393   5.443  16.242  0.00  0.00    +0.000 C 
BRANCH  23  24
ATOM     24  C   UNL     1       5.423   4.079  16.921  0.00  0.00    +0.000 C 
ATOM     25  S   UNL     1       3.810   3.283  17.126  0.00  0.00    +0.000 S 
ATOM     26  C   UNL     1       3.961   3.375  18.872  0.00  0.00    +0.000 C 
ATOM     27  N   UNL     1       2.905   2.996  19.655  0.00  0.00    +0.000 N 
ATOM     28  C   UNL     1       1.551   2.716  19.203  0.00  0.00    +0.000 C 
ATOM     29  C   UNL     1       0.689   3.108  20.394  0.00  0.00    +0.000 C 
ATOM     30  C   UNL     1       1.546   2.714  21.583  0.00  0.00    +0.000 C 
ATOM     31  C   UNL     1       2.980   2.964  21.113  0.00  0.00    +0.000 C 
ATOM     32  N   UNL     1       5.096   3.803  19.319  0.00  0.00    +0.000 NA
ATOM     33  C   UNL     1       5.971   4.176  18.328  0.00  0.00    +0.000 C 
ATOM     34  O   UNL     1       7.098   4.618  18.541  0.00  0.00    +0.000 OA
ENDBRANCH  23  24
ENDBRANCH  20  23
ENDBRANCH   4  19
TORSDOF 6
ENDMDL
MODEL 3
REMARK VINA RESULT:      -8.6      2.134      3.856
REMARK  Name = 
REMARK  7 active torsions:
REMARK  status: ('A' for Active; 'I' for Inactive)
REMARK    1  A    between atoms: C_1  and  C_2
REMARK    2  A    between atoms: C_2  and  N_3
REMARK    3  A    between atoms: C_2  and  C_27
REMARK    4  A    between atoms: C_4  and  C_6
REMARK    5  A    between atoms: C_9  and  N_10
REMARK    6  A    between atoms: C_11  and  C_13
REMARK    7  A    between atoms: C_13  and  C_14
REMARK                            x       y       z     vdW  Elec       q    Type
REMARK                         _______ _______ _______ _____ _____    ______ ____
ROOT
ATOM      1  C   UNL     1       1.139   9.169  19.655  0.00  0.00    +0.000 A 
ATOM      2  C   UNL     1       1.625   8.024  20.288  0.00  0.00    +0.000 A 
ATOM      3  C   UNL     1       2.433   7.126  19.587  0.00  0.00    +0.000 A 
ATOM      4  C   UNL     1       2.755   7.340  18.246  0.00  0.00    +0.000 A 
ATOM      5  C   UNL     1       2.274   8.493  17.612  0.00  0.00    +0.000 A 
ATOM      6  C   UNL     1       1.451   9.393  18.310  0.00  0.00    +0.000 A 
ENDROOT
BRANCH   1   8
ATOM      7  N   UNL     1       0.301  11.433  19.883  0.00  0.00    +0.000 N 
ATOM      8  C   UNL     1       0.293  10.153  20.392  0.00  0.00    +0.000 C 
ATOM      9  O   UNL     1      -0.370   9.803  21.359  0.00  0.00    +0.000 OA
ATOM     10  H   UNL     1       0.743  11.605  18.992  0.00  0.00    +0.000 HD
BRANCH   7  12
ATOM     11  C   UNL     1      -0.409  12.533  21.965  0.00  0.00    +0.000 C 
ATOM     12  C   UNL     1      -0.501  12.508  20.438  0.00  0.00    +0.000 C 
BRANCH  12  13
ATOM     13  C   UNL     1      -1.938  12.368  19.961  0.00  0.00    +0.000 A 
ATOM     14  C   UNL     1      -2.204  11.761  18.725  0.00  0.00    +0.000 A 
ATOM     15  C   UNL     1      -3.516  11.607  18.272  0.00  0.00    +0.000 A 
ATOM     16  C   UNL     1      -4.581  12.051  19.052  0.00  0.00    +0.000 A 
ATOM     17  C   UNL     1      -4.336  12.652  20.285  0.00  0.00    +0.000 A 
ATOM     18  C   UNL     1      -3.024  12.811  20.738  0.00  0.00    +0.000 A 
ENDBRANCH  12  13
ENDBRANCH   7  12
ENDBRANCH   1   8
BRANCH   4  19
ATOM     19  N   UNL     1       3.553   6.437  17.505  0.00  0.00    +0.000 N 
ATOM     20  C   UNL     1       4.888   6.644  17.174  0.00  0.00    +0.000 C 
ATOM     21  O   UNL     1       5.577   7.590  17.551  0.00  0.00    +0.000 OA
ATOM     22  H   UNL     1       3.152   5.526  17.317  0.00  0.00    +0.000 HD
BRANCH  20  23
ATOM     23  C   UNL     1       5.498   5.582  16.287  0.00  0.00    +0.000 C 
BRANCH  23  24
ATOM     24  C   UNL     1       5.503   4.192  16.912  0.00  0.00    +0.000 C 
ATOM     25  S   UNL     1       3.877   3.415  17.077  0.00  0.00    +0.000 S 
ATOM     26  C   UNL     1       4.018   3.435  18.825  0.00  0.00    +0.000 C 
ATOM     27  N   UNL     1       2.951   3.043  19.587  0.00  0.00    +0.000 N 
ATOM     28  C   UNL     1       1.596   2.802  19.118  0.00  0.00    +0.000 C 
ATOM     29  C   UNL     1       0.733   3.162  20.318  0.00  0.00    +0.000 C 
ATOM     30  C   UNL     1       1.576   2.707  21.496  0.00  0.00    +0.000 C 
ATOM     31  C   UNL     1       3.017   2.953  21.043  0.00  0.00    +0.000 C 
ATOM     32  N   UNL     1       5.157   3.828  19.295  0.00  0.00    +0.000 NA
ATOM     33  C   UNL     1       6.044   4.225  18.325  0.00  0.00    +0.000 C 
ATOM     34  O   UNL     1       7.176   4.640  18.561  0.00  0.00    +0.000 OA
ENDBRANCH  23  24
ENDBRANCH  20  23
ENDBRANCH   4  19
TORSDOF 6
ENDMDL
MODEL 4
REMARK VINA RESULT:      -8.6      2.168      3.923
REMARK  Name = 
REMARK  7 active torsions:
REMARK  status: ('A' for Active; 'I' for Inactive)
REMARK    1  A    between atoms: C_1  and  C_2
REMARK    2  A    between atoms: C_2  and  N_3
REMARK    3  A    between atoms: C_2  and  C_27
REMARK    4  A    between atoms: C_4  and  C_6
REMARK    5  A    between atoms: C_9  and  N_10
REMARK    6  A    between atoms: C_11  and  C_13
REMARK    7  A    between atoms: C_13  and  C_14
REMARK                            x       y       z     vdW  Elec       q    Type
REMARK                         _______ _______ _______ _____ _____    ______ ____
ROOT
ATOM      1  C   UNL     1       1.153   9.100  19.748  0.00  0.00    +0.000 A 
ATOM      2  C   UNL     1       1.459   9.395  18.419  0.00  0.00    +0.000 A 
ATOM      3  C   UNL     1       2.226   8.506  17.663  0.00  0.00    +0.000 A 
ATOM      4  C   UNL     1       2.714   7.321  18.217  0.00  0.00    +0.000 A 
ATOM      5  C   UNL     1       2.401   7.020  19.549  0.00  0.00    +0.000 A 
ATOM      6  C   UNL     1       1.640   7.917  20.317  0.00  0.00    +0.000 A 
ENDROOT
BRANCH   1   8
ATOM      7  N   UNL     1       0.192  11.303  20.068  0.00  0.00    +0.000 N 
ATOM      8  C   UNL     1       0.318  10.025  20.568  0.00  0.00    +0.000 C 
ATOM      9  O   UNL     1      -0.225   9.632  21.592  0.00  0.00    +0.000 OA
ATOM     10  H   UNL     1       0.534  11.504  19.140  0.00  0.00    +0.000 HD
BRANCH   7  12
ATOM     11  C   UNL     1      -0.577  12.195  22.228  0.00  0.00    +0.000 C 
ATOM     12  C   UNL     1      -0.623  12.323  20.703  0.00  0.00    +0.000 C 
BRANCH  12  13
ATOM     13  C   UNL     1      -2.045  12.239  20.173  0.00  0.00    +0.000 A 
ATOM     14  C   UNL     1      -3.101  12.771  20.929  0.00  0.00    +0.000 A 
ATOM     15  C   UNL     1      -4.414  12.721  20.457  0.00  0.00    +0.000 A 
ATOM     16  C   UNL     1      -4.690  12.145  19.219  0.00  0.00    +0.000 A 
ATOM     17  C   UNL     1      -3.654  11.617  18.452  0.00  0.00    +0.000 A 
ATOM     18  C   UNL     1      -2.340  11.662  18.924  0.00  0.00    +0.000 A 
ENDBRANCH  12  13
ENDBRANCH   7  12
ENDBRANCH   1   8
BRANCH   4  19
ATOM     19  N   UNL     1       3.511   6.413  17.481  0.00  0.00    +0.000 N 
ATOM     20  C   UNL     1       4.849   6.612  17.159  0.00  0.00    +0.000 C 
ATOM     21  O   UNL     1       5.541   7.555  17.540  0.00  0.00    +0.000 OA
ATOM     22  H   UNL     1       3.106   5.504  17.291  0.00  0.00    +0.000 HD
BRANCH  20  23
ATOM     23  C   UNL     1       5.458   5.547  16.276  0.00  0.00    +0.000 C 
BRANCH  23  24
ATOM     24  C   UNL     1       5.482   4.163  16.914  0.00  0.00    +0.000 C 
ATOM     25  S   UNL     1       3.862   3.386  17.132  0.00  0.00    +0.000 S 
ATOM     26  C   UNL     1       4.051   3.425  18.876  0.00  0.00    +0.000 C 
ATOM     27  N   UNL     1       3.006   3.039  19.671  0.00  0.00    +0.000 N 
ATOM     28  C   UNL     1       1.638   2.792  19.240  0.00  0.00    +0.000 C 
ATOM     29  C   UNL     1       0.809   3.163  20.460  0.00  0.00    +0.000 C 
ATOM     30  C   UNL     1       1.684   2.721  21.619  0.00  0.00    +0.000 C 
ATOM     31  C   UNL     1       3.112   2.964  21.125  0.00  0.00    +0.000 C 
ATOM     32  N   UNL     1       5.202   3.823  19.310  0.00  0.00    +0.000 NA
ATOM     33  C   UNL     1       6.061   4.211  18.312  0.00  0.00    +0.000 C 
ATOM     34  O   UNL     1       7.199   4.630  18.512  0.00  0.00    +0.000 OA
ENDBRANCH  23  24
ENDBRANCH  20  23
ENDBRANCH   4  19
TORSDOF 6
ENDMDL
MODEL 5
REMARK VINA RESULT:      -8.6      2.393      4.672
REMARK  Name = 
REMARK  7 active torsions:
REMARK  status: ('A' for Active; 'I' for Inactive)
REMARK    1  A    between atoms: C_1  and  C_2
REMARK    2  A    between atoms: C_2  and  N_3
REMARK    3  A    between atoms: C_2  and  C_27
REMARK    4  A    between atoms: C_4  and  C_6
REMARK    5  A    between atoms: C_9  and  N_10
REMARK    6  A    between atoms: C_11  and  C_13
REMARK    7  A    between atoms: C_13  and  C_14
REMARK                            x       y       z     vdW  Elec       q    Type
REMARK                         _______ _______ _______ _____ _____    ______ ____
ROOT
ATOM      1  C   UNL     1       1.211   9.219  19.778  0.00  0.00    +0.000 A 
ATOM      2  C   UNL     1       1.503   9.524  18.448  0.00  0.00    +0.000 A 
ATOM      3  C   UNL     1       2.225   8.621  17.665  0.00  0.00    +0.000 A 
ATOM      4  C   UNL     1       2.683   7.412  18.192  0.00  0.00    +0.000 A 
ATOM      5  C   UNL     1       2.384   7.102  19.525  0.00  0.00    +0.000 A 
ATOM      6  C   UNL     1       1.668   8.012  20.320  0.00  0.00    +0.000 A 
ENDROOT
BRANCH   1   8
ATOM      7  N   UNL     1      -0.394  11.028  19.938  0.00  0.00    +0.000 N 
ATOM      8  C   UNL     1       0.422  10.159  20.627  0.00  0.00    +0.000 C 
ATOM      9  O   UNL     1       0.501  10.112  21.847  0.00  0.00    +0.000 OA
ATOM     10  H   UNL     1      -0.526  10.899  18.946  0.00  0.00    +0.000 HD
BRANCH   7  12
ATOM     11  C   UNL     1      -2.534  12.231  19.771  0.00  0.00    +0.000 C 
ATOM     12  C   UNL     1      -1.271  11.978  20.598  0.00  0.00    +0.000 C 
BRANCH  12  13
ATOM     13  C   UNL     1      -0.510  13.265  20.873  0.00  0.00    +0.000 A 
ATOM     14  C   UNL     1      -0.517  13.814  22.164  0.00  0.00    +0.000 A 
ATOM     15  C   UNL     1       0.187  14.987  22.446  0.00  0.00    +0.000 A 
ATOM     16  C   UNL     1       0.913  15.624  21.442  0.00  0.00    +0.000 A 
ATOM     17  C   UNL     1       0.936  15.091  20.156  0.00  0.00    +0.000 A 
ATOM     18  C   UNL     1       0.228  13.920  19.871  0.00  0.00    +0.000 A 
ENDBRANCH  12  13
ENDBRANCH   7  12
ENDBRANCH   1   8
BRANCH   4  19
ATOM     19  N   UNL     1       3.435   6.489  17.428  0.00  0.00    +0.000 N 
ATOM     20  C   UNL     1       4.796   6.603  17.162  0.00  0.00    +0.000 C 
ATOM     21  O   UNL     1       5.542   7.465  17.621  0.00  0.00    +0.000 OA
ATOM     22  H   UNL     1       2.970   5.628  17.170  0.00  0.00    +0.000 HD
BRANCH  20  23
ATOM     23  C   UNL     1       5.354   5.546  16.235  0.00  0.00    +0.000 C 
BRANCH  23  24
ATOM     24  C   UNL     1       5.374   4.149  16.843  0.00  0.00    +0.000 C 
ATOM     25  S   UNL     1       3.749   3.390  17.085  0.00  0.00    +0.000 S 
ATOM     26  C   UNL     1       3.983   3.387  18.823  0.00  0.00    +0.000 C 
ATOM     27  N   UNL     1       2.953   2.998  19.636  0.00  0.00    +0.000 N 
ATOM     28  C   UNL     1       1.571   2.780  19.236  0.00  0.00    +0.000 C 
ATOM     29  C   UNL     1       0.778   3.136  20.485  0.00  0.00    +0.000 C 
ATOM     30  C   UNL     1       1.676   2.656  21.611  0.00  0.00    +0.000 C 
ATOM     31  C   UNL     1       3.095   2.889  21.085  0.00  0.00    +0.000 C 
ATOM     32  N   UNL     1       5.150   3.760  19.237  0.00  0.00    +0.000 NA
ATOM     33  C   UNL     1       5.990   4.158  18.225  0.00  0.00    +0.000 C 
ATOM     34  O   UNL     1       7.137   4.555  18.406  0.00  0.00    +0.000 OA
ENDBRANCH  23  24
ENDBRANCH  20  23
ENDBRANCH   4  19
TORSDOF 6
ENDMDL
MODEL 6
REMARK VINA RESULT:      -8.2      2.190      2.848
REMARK  Name = 
REMARK  7 active torsions:
REMARK  status: ('A' for Active; 'I' for Inactive)
REMARK    1  A    between atoms: C_1  and  C_2
REMARK    2  A    between atoms: C_2  and  N_3
REMARK    3  A    between atoms: C_2  and  C_27
REMARK    4  A    between atoms: C_4  and  C_6
REMARK    5  A    between atoms: C_9  and  N_10
REMARK    6  A    between atoms: C_11  and  C_13
REMARK    7  A    between atoms: C_13  and  C_14
REMARK                            x       y       z     vdW  Elec       q    Type
REMARK                         _______ _______ _______ _____ _____    ______ ____
ROOT
ATOM      1  C   UNL     1       1.254   9.472  19.222  0.00  0.00    +0.000 A 
ATOM      2  C   UNL     1       1.968   8.654  18.345  0.00  0.00    +0.000 A 
ATOM      3  C   UNL     1       2.389   7.387  18.755  0.00  0.00    +0.000 A 
ATOM      4  C   UNL     1       2.123   6.920  20.043  0.00  0.00    +0.000 A 
ATOM      5  C   UNL     1       1.400   7.737  20.922  0.00  0.00    +0.000 A 
ATOM      6  C   UNL     1       0.986   9.017  20.518  0.00  0.00    +0.000 A 
ENDROOT
BRANCH   1   8
ATOM      7  N   UNL     1       1.671  11.849  18.992  0.00  0.00    +0.000 N 
ATOM      8  C   UNL     1       0.776  10.821  18.798  0.00  0.00    +0.000 C 
ATOM      9  O   UNL     1      -0.329  10.959  18.291  0.00  0.00    +0.000 OA
ATOM     10  H   UNL     1       2.619  11.633  19.265  0.00  0.00    +0.000 HD
BRANCH   7  12
ATOM     11  C   UNL     1       2.682  13.932  18.159  0.00  0.00    +0.000 C 
ATOM     12  C   UNL     1       1.399  13.219  18.594  0.00  0.00    +0.000 C 
BRANCH  12  13
ATOM     13  C   UNL     1       0.705  13.950  19.732  0.00  0.00    +0.000 A 
ATOM     14  C   UNL     1      -0.644  14.313  19.604  0.00  0.00    +0.000 A 
ATOM     15  C   UNL     1      -1.309  14.971  20.640  0.00  0.00    +0.000 A 
ATOM     16  C   UNL     1      -0.635  15.271  21.822  0.00  0.00    +0.000 A 
ATOM     17  C   UNL     1       0.703  14.914  21.970  0.00  0.00    +0.000 A 
ATOM     18  C   UNL     1       1.370  14.259  20.932  0.00  0.00    +0.000 A 
ENDBRANCH  12  13
ENDBRANCH   7  12
ENDBRANCH   1   8
BRANCH   4  19
ATOM     19  N   UNL     1       2.556   5.650  20.493  0.00  0.00    +0.000 N 
ATOM     20  C   UNL     1       1.732   4.541  20.649  0.00  0.00    +0.000 C 
ATOM     21  O   UNL     1       0.543   4.486  20.339  0.00  0.00    +0.000 OA
ATOM     22  H   UNL     1       3.556   5.517  20.582  0.00  0.00    +0.000 HD
BRANCH  20  23
ATOM     23  C   UNL     1       2.405   3.324  21.242  0.00  0.00    +0.000 C 
BRANCH  23  24
ATOM     24  C   UNL     1       3.247   2.541  20.241  0.00  0.00    +0.000 C 
ATOM     25  S   UNL     1       4.828   3.305  19.799  0.00  0.00    +0.000 S 
ATOM     26  C   UNL     1       4.297   3.499  18.138  0.00  0.00    +0.000 C 
ATOM     27  N   UNL     1       5.092   4.182  17.258  0.00  0.00    +0.000 N 
ATOM     28  C   UNL     1       6.265   4.976  17.589  0.00  0.00    +0.000 C 
ATOM     29  C   UNL     1       6.281   6.053  16.515  0.00  0.00    +0.000 C 
ATOM     30  C   UNL     1       5.770   5.322  15.287  0.00  0.00    +0.000 C 
ATOM     31  C   UNL     1       4.761   4.314  15.842  0.00  0.00    +0.000 C 
ATOM     32  N   UNL     1       3.157   2.965  17.844  0.00  0.00    +0.000 NA
ATOM     33  C   UNL     1       2.527   2.387  18.919  0.00  0.00    +0.000 C 
ATOM     34  O   UNL     1       1.432   1.833  18.854  0.00  0.00    +0.000 OA
ENDBRANCH  23  24
ENDBRANCH  20  23
ENDBRANCH   4  19
TORSDOF 6
ENDMDL
MODEL 7
REMARK VINA RESULT:      -8.2      0.846      1.592
REMARK  Name = 
REMARK  7 active torsions:
REMARK  status: ('A' for Active; 'I' for Inactive)
REMARK    1  A    between atoms: C_1  and  C_2
REMARK    2  A    between atoms: C_2  and  N_3
REMARK    3  A    between atoms: C_2  and  C_27
REMARK    4  A    between atoms: C_4  and  C_6
REMARK    5  A    between atoms: C_9  and  N_10
REMARK    6  A    between atoms: C_11  and  C_13
REMARK    7  A    between atoms: C_13  and  C_14
REMARK                            x       y       z     vdW  Elec       q    Type
REMARK                         _______ _______ _______ _____ _____    ______ ____
ROOT
ATOM      1  C   UNL     1       1.331   9.213  19.521  0.00  0.00    +0.000 A 
ATOM      2  C   UNL     1       1.093   8.622  20.762  0.00  0.00    +0.000 A 
ATOM      3  C   UNL     1       1.512   7.313  21.007  0.00  0.00    +0.000 A 
ATOM      4  C   UNL     1       2.158   6.565  20.020  0.00  0.00    +0.000 A 
ATOM      5  C   UNL     1       2.405   7.161  18.776  0.00  0.00    +0.000 A 
ATOM      6  C   UNL     1       1.974   8.473  18.522  0.00  0.00    +0.000 A 
ENDROOT
BRANCH   1   8
ATOM      7  N   UNL     1      -0.240  11.024  19.885  0.00  0.00    +0.000 N 
ATOM      8  C   UNL     1       0.911  10.618  19.246  0.00  0.00    +0.000 C 
ATOM      9  O   UNL     1       1.583  11.338  18.519  0.00  0.00    +0.000 OA
ATOM     10  H   UNL     1      -0.647  10.428  20.591  0.00  0.00    +0.000 HD
BRANCH   7  12
ATOM     11  C   UNL     1      -0.448  13.194  21.025  0.00  0.00    +0.000 C 
ATOM     12  C   UNL     1      -0.771  12.370  19.776  0.00  0.00    +0.000 C 
BRANCH  12  13
ATOM     13  C   UNL     1      -2.267  12.306  19.514  0.00  0.00    +0.000 A 
ATOM     14  C   UNL     1      -3.156  12.933  20.400  0.00  0.00    +0.000 A 
ATOM     15  C   UNL     1      -4.533  12.901  20.173  0.00  0.00    +0.000 A 
ATOM     16  C   UNL     1      -5.042  12.249  19.053  0.00  0.00    +0.000 A 
ATOM     17  C   UNL     1      -4.175  11.625  18.159  0.00  0.00    +0.000 A 
ATOM     18  C   UNL     1      -2.797  11.652  18.387  0.00  0.00    +0.000 A 
ENDBRANCH  12  13
ENDBRANCH   7  12
ENDBRANCH   1   8
BRANCH   4  19
ATOM     19  N   UNL     1       2.574   5.230  20.233  0.00  0.00    +0.000 N 
ATOM     20  C   UNL     1       1.716   4.145  20.373  0.00  0.00    +0.000 C 
ATOM     21  O   UNL     1       0.494   4.181  20.246  0.00  0.00    +0.000 OA
ATOM     22  H   UNL     1       3.567   5.045  20.149  0.00  0.00    +0.000 HD
BRANCH  20  23
ATOM     23  C   UNL     1       2.395   2.832  20.696  0.00  0.00    +0.000 C 
BRANCH  23  24
ATOM     24  C   UNL     1       3.335   2.344  19.600  0.00  0.00    +0.000 C 
ATOM     25  S   UNL     1       5.014   3.016  19.669  0.00  0.00    +0.000 S 
ATOM     26  C   UNL     1       4.778   3.828  18.132  0.00  0.00    +0.000 C 
ATOM     27  N   UNL     1       5.751   4.670  17.664  0.00  0.00    +0.000 N 
ATOM     28  C   UNL     1       6.904   5.155  18.406  0.00  0.00    +0.000 C 
ATOM     29  C   UNL     1       7.168   6.525  17.798  0.00  0.00    +0.000 C 
ATOM     30  C   UNL     1       6.818   6.325  16.335  0.00  0.00    +0.000 C 
ATOM     31  C   UNL     1       5.666   5.318  16.358  0.00  0.00    +0.000 C 
ATOM     32  N   UNL     1       3.669   3.569  17.521  0.00  0.00    +0.000 NA
ATOM     33  C   UNL     1       2.833   2.739  18.228  0.00  0.00    +0.000 C 
ATOM     34  O   UNL     1       1.729   2.378  17.828  0.00  0.00    +0.000 OA
ENDBRANCH  23  24
ENDBRANCH  20  23
ENDBRANCH   4  19
TORSDOF 6
ENDMDL
MODEL 8
REMARK VINA RESULT:      -8.1      2.183      4.282
REMARK  Name = 
REMARK  7 active torsions:
REMARK  status: ('A' for Active; 'I' for Inactive)
REMARK    1  A    between atoms: C_1  and  C_2
REMARK    2  A    between atoms: C_2  and  N_3
REMARK    3  A    between atoms: C_2  and  C_27
REMARK    4  A    between atoms: C_4  and  C_6
REMARK    5  A    between atoms: C_9  and  N_10
REMARK    6  A    between atoms: C_11  and  C_13
REMARK    7  A    between atoms: C_13  and  C_14
REMARK                            x       y       z     vdW  Elec       q    Type
REMARK                         _______ _______ _______ _____ _____    ______ ____
ROOT
ATOM      1  C   UNL     1       1.347   8.932  18.991  0.00  0.00    +0.000 A 
ATOM      2  C   UNL     1       2.043   9.336  17.851  0.00  0.00    +0.000 A 
ATOM      3  C   UNL     1       3.149   8.606  17.411  0.00  0.00    +0.000 A 
ATOM      4  C   UNL     1       3.590   7.476  18.102  0.00  0.00    +0.000 A 
ATOM      5  C   UNL     1       2.887   7.065  19.242  0.00  0.00    +0.000 A 
ATOM      6  C   UNL     1       1.781   7.804  19.696  0.00  0.00    +0.000 A 
ENDROOT
BRANCH   1   8
ATOM      7  N   UNL     1      -0.527  10.389  18.495  0.00  0.00    +0.000 N 
ATOM      8  C   UNL     1       0.149   9.685  19.467  0.00  0.00    +0.000 C 
ATOM      9  O   UNL     1      -0.192   9.635  20.641  0.00  0.00    +0.000 OA
ATOM     10  H   UNL     1      -0.280  10.252  17.526  0.00  0.00    +0.000 HD
BRANCH   7  12
ATOM     11  C   UNL     1      -2.702  11.075  17.573  0.00  0.00    +0.000 C 
ATOM     12  C   UNL     1      -1.742  11.137  18.763  0.00  0.00    +0.000 C 
BRANCH  12  13
ATOM     13  C   UNL     1      -1.385  12.570  19.127  0.00  0.00    +0.000 A 
ATOM     14  C   UNL     1      -1.994  13.178  20.235  0.00  0.00    +0.000 A 
ATOM     15  C   UNL     1      -1.672  14.487  20.599  0.00  0.00    +0.000 A 
ATOM     16  C   UNL     1      -0.732  15.205  19.864  0.00  0.00    +0.000 A 
ATOM     17  C   UNL     1      -0.113  14.616  18.763  0.00  0.00    +0.000 A 
ATOM     18  C   UNL     1      -0.438  13.308  18.395  0.00  0.00    +0.000 A 
ENDBRANCH  12  13
ENDBRANCH   7  12
ENDBRANCH   1   8
BRANCH   4  19
ATOM     19  N   UNL     1       4.720   6.730  17.691  0.00  0.00    +0.000 N 
ATOM     20  C   UNL     1       5.141   6.590  16.373  0.00  0.00    +0.000 C 
ATOM     21  O   UNL     1       4.648   7.161  15.402  0.00  0.00    +0.000 OA
ATOM     22  H   UNL     1       5.326   6.384  18.425  0.00  0.00    +0.000 HD
BRANCH  20  23
ATOM     23  C   UNL     1       6.315   5.658  16.175  0.00  0.00    +0.000 C 
BRANCH  23  24
ATOM     24  C   UNL     1       6.111   4.278  16.790  0.00  0.00    +0.000 C 
ATOM     25  S   UNL     1       4.405   3.674  16.779  0.00  0.00    +0.000 S 
ATOM     26  C   UNL     1       4.364   3.689  18.533  0.00  0.00    +0.000 C 
ATOM     27  N   UNL     1       3.188   3.414  19.177  0.00  0.00    +0.000 N 
ATOM     28  C   UNL     1       1.871   3.311  18.566  0.00  0.00    +0.000 C 
ATOM     29  C   UNL     1       0.929   3.765  19.671  0.00  0.00    +0.000 C 
ATOM     30  C   UNL     1       1.592   3.232  20.928  0.00  0.00    +0.000 C 
ATOM     31  C   UNL     1       3.091   3.325  20.631  0.00  0.00    +0.000 C 
ATOM     32  N   UNL     1       5.481   3.965  19.122  0.00  0.00    +0.000 NA
ATOM     33  C   UNL     1       6.501   4.263  18.252  0.00  0.00    +0.000 C 
ATOM     34  O   UNL     1       7.639   4.560  18.608  0.00  0.00    +0.000 OA
ENDBRANCH  23  24
ENDBRANCH  20  23
ENDBRANCH   4  19
TORSDOF 6
ENDMDL
MODEL 9
REMARK VINA RESULT:      -8.0      2.049      2.392
REMARK  Name = 
REMARK  7 active torsions:
REMARK  status: ('A' for Active; 'I' for Inactive)
REMARK    1  A    between atoms: C_1  and  C_2
REMARK    2  A    between atoms: C_2  and  N_3
REMARK    3  A    between atoms: C_2  and  C_27
REMARK    4  A    between atoms: C_4  and  C_6
REMARK    5  A    between atoms: C_9  and  N_10
REMARK    6  A    between atoms: C_11  and  C_13
REMARK    7  A    between atoms: C_13  and  C_14
REMARK                            x       y       z     vdW  Elec       q    Type
REMARK                         _______ _______ _______ _____ _____    ______ ____
ROOT
ATOM      1  C   UNL     1       1.054   9.470  19.806  0.00  0.00    +0.000 A 
ATOM      2  C   UNL     1       1.770   8.747  18.852  0.00  0.00    +0.000 A 
ATOM      3  C   UNL     1       2.216   7.455  19.141  0.00  0.00    +0.000 A 
ATOM      4  C   UNL     1       1.973   6.869  20.384  0.00  0.00    +0.000 A 
ATOM      5  C   UNL     1       1.248   7.591  21.341  0.00  0.00    +0.000 A 
ATOM      6  C   UNL     1       0.808   8.895  21.059  0.00  0.00    +0.000 A 
ENDROOT
BRANCH   1   8
ATOM      7  N   UNL     1      -0.075  11.479  20.561  0.00  0.00    +0.000 N 
ATOM      8  C   UNL     1       0.550  10.843  19.511  0.00  0.00    +0.000 C 
ATOM      9  O   UNL     1       0.723  11.346  18.409  0.00  0.00    +0.000 OA
ATOM     10  H   UNL     1      -0.036  11.064  21.481  0.00  0.00    +0.000 HD
BRANCH   7  12
ATOM     11  C   UNL     1       0.540  13.858  20.671  0.00  0.00    +0.000 C 
ATOM     12  C   UNL     1      -0.582  12.836  20.474  0.00  0.00    +0.000 C 
BRANCH  12  13
ATOM     13  C   UNL     1      -1.702  13.025  21.485  0.00  0.00    +0.000 A 
ATOM     14  C   UNL     1      -1.951  12.029  22.441  0.00  0.00    +0.000 A 
ATOM     15  C   UNL     1      -2.964  12.186  23.390  0.00  0.00    +0.000 A 
ATOM     16  C   UNL     1      -3.736  13.344  23.401  0.00  0.00    +0.000 A 
ATOM     17  C   UNL     1      -3.500  14.347  22.463  0.00  0.00    +0.000 A 
ATOM     18  C   UNL     1      -2.491  14.189  21.510  0.00  0.00    +0.000 A 
ENDBRANCH  12  13
ENDBRANCH   7  12
ENDBRANCH   1   8
BRANCH   4  19
ATOM     19  N   UNL     1       2.431   5.571  20.712  0.00  0.00    +0.000 N 
ATOM     20  C   UNL     1       1.644   4.425  20.698  0.00  0.00    +0.000 C 
ATOM     21  O   UNL     1       0.476   4.367  20.319  0.00  0.00    +0.000 OA
ATOM     22  H   UNL     1       3.430   5.461  20.841  0.00  0.00    +0.000 HD
BRANCH  20  23
ATOM     23  C   UNL     1       2.333   3.171  21.188  0.00  0.00    +0.000 C 
BRANCH  23  24
ATOM     24  C   UNL     1       3.156   2.467  20.116  0.00  0.00    +0.000 C 
ATOM     25  S   UNL     1       4.746   3.241  19.732  0.00  0.00    +0.000 S 
ATOM     26  C   UNL     1       4.209   3.588  18.098  0.00  0.00    +0.000 C 
ATOM     27  N   UNL     1       5.010   4.333  17.275  0.00  0.00    +0.000 N 
ATOM     28  C   UNL     1       6.198   5.077  17.666  0.00  0.00    +0.000 C 
ATOM     29  C   UNL     1       6.225   6.244  16.691  0.00  0.00    +0.000 C 
ATOM     30  C   UNL     1       5.695   5.632  15.407  0.00  0.00    +0.000 C 
ATOM     31  C   UNL     1       4.673   4.595  15.879  0.00  0.00    +0.000 C 
ATOM     32  N   UNL     1       3.059   3.101  17.766  0.00  0.00    +0.000 NA
ATOM     33  C   UNL     1       2.426   2.440  18.790  0.00  0.00    +0.000 C 
ATOM     34  O   UNL     1       1.322   1.912  18.685  0.00  0.00    +0.000 OA
ENDBRANCH  23  24
ENDBRANCH  20  23
ENDBRANCH   4  19
TORSDOF 6
ENDMDL
