MODEL 1
REMARK VINA RESULT:      -8.4      0.000      0.000
REMARK  Name = 
REMARK  11 active torsions:
REMARK  status: ('A' for Active; 'I' for Inactive)
REMARK    1  A    between atoms: C_1  and  C_2
REMARK    2  A    between atoms: C_2  and  C_3
REMARK    3  A    between atoms: C_2  and  O_4
REMARK    4  A    between atoms: C_2  and  C_5
REMARK    5  A    between atoms: C_5  and  C_7
REMARK    6  A    between atoms: C_7  and  N_8
REMARK    7  A    between atoms: C_9  and  C_11
REMARK    8  A    between atoms: C_14  and  N_15
REMARK    9  A    between atoms: N_15  and  C_16
REMARK   10  A    between atoms: C_26  and  N_27
REMARK   11  A    between atoms: N_27  and  C_28
REMARK                            x       y       z     vdW  Elec       q    Type
REMARK                         _______ _______ _______ _____ _____    ______ ____
ROOT
ATOM      1  C   UNL     1       2.956   6.637  18.760  0.00  0.00    +0.000 A 
ATOM      2  C   UNL     1       2.903   7.827  18.040  0.00  0.00    +0.000 A 
ATOM      3  N   UNL     1       2.193   8.921  18.402  0.00  0.00    +0.000 NA
ATOM      4  C   UNL     1       1.476   8.858  19.533  0.00  0.00    +0.000 A 
ATOM      5  C   UNL     1       1.519   7.732  20.350  0.00  0.00    +0.000 A 
ATOM      6  C   UNL     1       2.283   6.605  19.992  0.00  0.00    +0.000 A 
ENDROOT
BRANCH   1   8
ATOM      7  N   UNL     1       5.006   5.338  18.336  0.00  0.00    +0.000 N 
ATOM      8  C   UNL     1       3.671   5.511  18.082  0.00  0.00    +0.000 C 
ATOM      9  O   UNL     1       3.040   4.772  17.331  0.00  0.00    +0.000 OA
ATOM     10  H   UNL     1       5.529   6.180  18.584  0.00  0.00    +0.000 HD
BRANCH   7  11
ATOM     11  C   UNL     1       5.757   4.292  17.646  0.00  0.00    +0.000 C 
BRANCH  11  12
ATOM     12  C   UNL     1       6.925   4.801  16.789  0.00  0.00    +0.000 C 
ATOM     13  F   UNL     1       7.338   6.000  17.305  0.00  0.00    +0.000 F 
BRANCH  12  15
ATOM     14  C   UNL     1       5.530   6.103  15.150  0.00  0.00    +0.000 C 
ATOM     15  C   UNL     1       6.590   5.002  15.289  0.00  0.00    +0.000 C 
ATOM     16  C   UNL     1       6.073   3.721  14.626  0.00  0.00    +0.000 C 
BRANCH  15  17
ATOM     17  O   UNL     1       7.766   5.410  14.578  0.00  0.00    +0.000 OA
ATOM     18  H   UNL     1       8.286   4.607  14.381  0.00  0.00    +0.000 HD
ENDBRANCH  15  17
ENDBRANCH  12  15
ENDBRANCH  11  12
ENDBRANCH   7  11
ENDBRANCH   1   8
BRANCH   4  19
ATOM     19  N   UNL     1       0.644   9.929  19.914  0.00  0.00    +0.000 N 
ATOM     20  H   UNL     1       1.159  10.627  20.436  0.00  0.00    +0.000 HD
BRANCH  19  21
ATOM     21  C   UNL     1      -0.461  10.435  19.197  0.00  0.00    +0.000 A 
ATOM     22  C   UNL     1      -1.282  11.407  19.776  0.00  0.00    +0.000 A 
ATOM     23  C   UNL     1      -2.440  11.859  19.127  0.00  0.00    +0.000 A 
ATOM     24  C   UNL     1      -2.804  11.313  17.881  0.00  0.00    +0.000 A 
ATOM     25  N   UNL     1      -3.945  11.622  17.157  0.00  0.00    +0.000 NA
ATOM     26  C   UNL     1      -3.970  10.904  16.058  0.00  0.00    +0.000 A 
ATOM     27  S   UNL     1      -2.644   9.855  15.798  0.00  0.00    +0.000 S 
ATOM     28  C   UNL     1      -1.968  10.358  17.301  0.00  0.00    +0.000 A 
ATOM     29  C   UNL     1      -0.790   9.925  17.931  0.00  0.00    +0.000 A 
ENDBRANCH  19  21
ENDBRANCH   4  19
BRANCH   6  30
ATOM     30  N   UNL     1       2.437   5.556  20.921  0.00  0.00    +0.000 N 
ATOM     31  H   UNL     1       3.096   5.735  21.678  0.00  0.00    +0.000 HD
BRANCH  30  32
ATOM     32  C   UNL     1       1.884   4.221  20.703  0.00  0.00    +0.000 C 
ATOM     33  C   UNL     1       2.841   3.058  20.753  0.00  0.00    +0.000 C 
ATOM     34  C   UNL     1       1.762   3.175  21.785  0.00  0.00    +0.000 C 
ENDBRANCH  30  32
ENDBRANCH   6  30
TORSDOF 9
ENDMDL
MODEL 2
REMARK VINA RESULT:      -7.9      2.757      3.869
REMARK  Name = 
REMARK  11 active torsions:
REMARK  status: ('A' for Active; 'I' for Inactive)
REMARK    1  A    between atoms: C_1  and  C_2
REMARK    2  A    between atoms: C_2  and  C_3
REMARK    3  A    between atoms: C_2  and  O_4
REMARK    4  A    between atoms: C_2  and  C_5
REMARK    5  A    between atoms: C_5  and  C_7
REMARK    6  A    between atoms: C_7  and  N_8
REMARK    7  A    between atoms: C_9  and  C_11
REMARK    8  A    between atoms: C_14  and  N_15
REMARK    9  A    between atoms: N_15  and  C_16
REMARK   10  A    between atoms: C_26  and  N_27
REMARK   11  A    between atoms: N_27  and  C_28
REMARK                            x       y       z     vdW  Elec       q    Type
REMARK                         _______ _______ _______ _____ _____    ______ ____
ROOT
ATOM      1  C   UNL     1       2.145   7.693  19.324  0.00  0.00    +0.000 A 
ATOM      2  C   UNL     1       2.192   8.134  18.004  0.00  0.00    +0.000 A 
ATOM      3  N   UNL     1       1.503   9.189  17.515  0.00  0.00    +0.000 NA
ATOM      4  C   UNL     1       0.703   9.862  18.356  0.00  0.00    +0.000 A 
ATOM      5  C   UNL     1       0.641   9.532  19.707  0.00  0.00    +0.000 A 
ATOM      6  C   UNL     1       1.383   8.454  20.225  0.00  0.00    +0.000 A 
ENDROOT
BRANCH   1   8
ATOM      7  N   UNL     1       3.994   6.127  18.878  0.00  0.00    +0.000 N 
ATOM      8  C   UNL     1       2.862   6.407  19.596  0.00  0.00    +0.000 C 
ATOM      9  O   UNL     1       2.421   5.652  20.458  0.00  0.00    +0.000 OA
ATOM     10  H   UNL     1       4.046   6.537  17.943  0.00  0.00    +0.000 HD
BRANCH   7  11
ATOM     11  C   UNL     1       4.687   4.855  19.064  0.00  0.00    +0.000 C 
BRANCH  11  12
ATOM     12  C   UNL     1       4.242   3.736  18.112  0.00  0.00    +0.000 C 
ATOM     13  F   UNL     1       3.693   4.319  17.001  0.00  0.00    +0.000 F 
BRANCH  12  15
ATOM     14  C   UNL     1       3.604   1.314  18.345  0.00  0.00    +0.000 C 
ATOM     15  C   UNL     1       3.205   2.749  18.709  0.00  0.00    +0.000 C 
ATOM     16  C   UNL     1       1.782   3.018  18.206  0.00  0.00    +0.000 C 
BRANCH  15  17
ATOM     17  O   UNL     1       3.185   2.870  20.138  0.00  0.00    +0.000 OA
ATOM     18  H   UNL     1       2.252   2.934  20.417  0.00  0.00    +0.000 HD
ENDBRANCH  15  17
ENDBRANCH  12  15
ENDBRANCH  11  12
ENDBRANCH   7  11
ENDBRANCH   1   8
BRANCH   4  19
ATOM     19  N   UNL     1      -0.110  10.911  17.885  0.00  0.00    +0.000 N 
ATOM     20  H   UNL     1       0.338  11.412  17.128  0.00  0.00    +0.000 HD
BRANCH  19  21
ATOM     21  C   UNL     1      -1.520  10.933  17.845  0.00  0.00    +0.000 A 
ATOM     22  C   UNL     1      -2.197  10.320  16.786  0.00  0.00    +0.000 A 
ATOM     23  C   UNL     1      -3.592  10.406  16.670  0.00  0.00    +0.000 A 
ATOM     24  C   UNL     1      -4.331  11.140  17.617  0.00  0.00    +0.000 A 
ATOM     25  N   UNL     1      -5.700  11.356  17.594  0.00  0.00    +0.000 NA
ATOM     26  C   UNL     1      -6.039  12.104  18.619  0.00  0.00    +0.000 A 
ATOM     27  S   UNL     1      -4.778  12.567  19.679  0.00  0.00    +0.000 S 
ATOM     28  C   UNL     1      -3.650  11.732  18.682  0.00  0.00    +0.000 A 
ATOM     29  C   UNL     1      -2.256  11.622  18.822  0.00  0.00    +0.000 A 
ENDBRANCH  19  21
ENDBRANCH   4  19
BRANCH   6  30
ATOM     30  N   UNL     1       1.426   8.258  21.620  0.00  0.00    +0.000 N 
ATOM     31  H   UNL     1       1.479   7.287  21.924  0.00  0.00    +0.000 HD
BRANCH  30  32
ATOM     32  C   UNL     1       1.178   9.336  22.577  0.00  0.00    +0.000 C 
ATOM     33  C   UNL     1      -0.019  10.217  22.332  0.00  0.00    +0.000 C 
ATOM     34  C   UNL     1       0.023   9.346  23.550  0.00  0.00    +0.000 C 
ENDBRANCH  30  32
ENDBRANCH   6  30
TORSDOF 9
ENDMDL
MODEL 3
REMARK VINA RESULT:      -7.8      1.043      1.208
REMARK  Name = 
REMARK  11 active torsions:
REMARK  status: ('A' for Active; 'I' for Inactive)
REMARK    1  A    between atoms: C_1  and  C_2
REMARK    2  A    between atoms: C_2  and  C_3
REMARK    3  A    between atoms: C_2  and  O_4
REMARK    4  A    between atoms: C_2  and  C_5
REMARK    5  A    between atoms: C_5  and  C_7
REMARK    6  A    between atoms: C_7  and  N_8
REMARK    7  A    between atoms: C_9  and  C_11
REMARK    8  A    between atoms: C_14  and  N_15
REMARK    9  A    between atoms: N_15  and  C_16
REMARK   10  A    between atoms: C_26  and  N_27
REMARK   11  A    between atoms: N_27  and  C_28
REMARK                            x       y       z     vdW  Elec       q    Type
REMARK                         _______ _______ _______ _____ _____    ______ ____
ROOT
ATOM      1  C   UNL     1       3.027   6.904  18.538  0.00  0.00    +0.000 A 
ATOM      2  C   UNL     1       2.879   8.140  17.914  0.00  0.00    +0.000 A 
ATOM      3  N   UNL     1       2.094   9.145  18.363  0.00  0.00    +0.000 NA
ATOM      4  C   UNL     1       1.393   8.941  19.489  0.00  0.00    +0.000 A 
ATOM      5  C   UNL     1       1.528   7.761  20.214  0.00  0.00    +0.000 A 
ATOM      6  C   UNL     1       2.369   6.725  19.766  0.00  0.00    +0.000 A 
ENDROOT
BRANCH   1   8
ATOM      7  N   UNL     1       5.127   6.165  17.483  0.00  0.00    +0.000 N 
ATOM      8  C   UNL     1       3.817   5.890  17.771  0.00  0.00    +0.000 C 
ATOM      9  O   UNL     1       3.271   4.843  17.433  0.00  0.00    +0.000 OA
ATOM     10  H   UNL     1       5.370   7.154  17.396  0.00  0.00    +0.000 HD
BRANCH   7  11
ATOM     11  C   UNL     1       5.917   5.234  16.681  0.00  0.00    +0.000 C 
BRANCH  11  12
ATOM     12  C   UNL     1       6.107   5.651  15.216  0.00  0.00    +0.000 C 
ATOM     13  F   UNL     1       4.975   6.308  14.813  0.00  0.00    +0.000 F 
BRANCH  12  15
ATOM     14  C   UNL     1       7.582   4.814  13.359  0.00  0.00    +0.000 C 
ATOM     15  C   UNL     1       6.369   4.479  14.236  0.00  0.00    +0.000 C 
ATOM     16  C   UNL     1       5.164   4.187  13.335  0.00  0.00    +0.000 C 
BRANCH  15  17
ATOM     17  O   UNL     1       6.654   3.283  14.972  0.00  0.00    +0.000 OA
ATOM     18  H   UNL     1       5.899   2.676  14.856  0.00  0.00    +0.000 HD
ENDBRANCH  15  17
ENDBRANCH  12  15
ENDBRANCH  11  12
ENDBRANCH   7  11
ENDBRANCH   1   8
BRANCH   4  19
ATOM     19  N   UNL     1       0.489   9.915  19.956  0.00  0.00    +0.000 N 
ATOM     20  H   UNL     1       0.938  10.558  20.595  0.00  0.00    +0.000 HD
BRANCH  19  21
ATOM     21  C   UNL     1      -0.600  10.463  19.245  0.00  0.00    +0.000 A 
ATOM     22  C   UNL     1      -1.353  11.496  19.811  0.00  0.00    +0.000 A 
ATOM     23  C   UNL     1      -2.496  11.995  19.171  0.00  0.00    +0.000 A 
ATOM     24  C   UNL     1      -2.916  11.437  17.949  0.00  0.00    +0.000 A 
ATOM     25  N   UNL     1      -4.052  11.792  17.238  0.00  0.00    +0.000 NA
ATOM     26  C   UNL     1      -4.140  11.047  16.160  0.00  0.00    +0.000 A 
ATOM     27  S   UNL     1      -2.881   9.916  15.906  0.00  0.00    +0.000 S 
ATOM     28  C   UNL     1      -2.148  10.421  17.380  0.00  0.00    +0.000 A 
ATOM     29  C   UNL     1      -0.983   9.938  18.000  0.00  0.00    +0.000 A 
ENDBRANCH  19  21
ENDBRANCH   4  19
BRANCH   6  30
ATOM     30  N   UNL     1       2.609   5.622  20.608  0.00  0.00    +0.000 N 
ATOM     31  H   UNL     1       3.587   5.450  20.838  0.00  0.00    +0.000 HD
BRANCH  30  32
ATOM     32  C   UNL     1       1.574   4.646  20.946  0.00  0.00    +0.000 C 
ATOM     33  C   UNL     1       1.224   3.618  19.902  0.00  0.00    +0.000 C 
ATOM     34  C   UNL     1       1.847   3.181  21.192  0.00  0.00    +0.000 C 
ENDBRANCH  30  32
ENDBRANCH   6  30
TORSDOF 9
ENDMDL
MODEL 4
REMARK VINA RESULT:      -7.8      5.087     10.057
REMARK  Name = 
REMARK  11 active torsions:
REMARK  status: ('A' for Active; 'I' for Inactive)
REMARK    1  A    between atoms: C_1  and  C_2
REMARK    2  A    between atoms: C_2  and  C_3
REMARK    3  A    between atoms: C_2  and  O_4
REMARK    4  A    between atoms: C_2  and  C_5
REMARK    5  A    between atoms: C_5  and  C_7
REMARK    6  A    between atoms: C_7  and  N_8
REMARK    7  A    between atoms: C_9  and  C_11
REMARK    8  A    between atoms: C_14  and  N_15
REMARK    9  A    between atoms: N_15  and  C_16
REMARK   10  A    between atoms: C_26  and  N_27
REMARK   11  A    between atoms: N_27  and  C_28
REMARK                            x       y       z     vdW  Elec       q    Type
REMARK                         _______ _______ _______ _____ _____    ______ ____
ROOT
ATOM      1  C   UNL     1      -0.564  11.214  20.354  0.00  0.00    +0.000 A 
ATOM      2  C   UNL     1       0.030  10.953  21.585  0.00  0.00    +0.000 A 
ATOM      3  N   UNL     1       0.863   9.918  21.840  0.00  0.00    +0.000 NA
ATOM      4  C   UNL     1       1.133   9.068  20.838  0.00  0.00    +0.000 A 
ATOM      5  C   UNL     1       0.635   9.285  19.557  0.00  0.00    +0.000 A 
ATOM      6  C   UNL     1      -0.205  10.380  19.281  0.00  0.00    +0.000 A 
ENDROOT
BRANCH   1   8
ATOM      7  N   UNL     1      -2.494  12.361  21.368  0.00  0.00    +0.000 N 
ATOM      8  C   UNL     1      -1.576  12.316  20.352  0.00  0.00    +0.000 C 
ATOM      9  O   UNL     1      -1.546  13.149  19.450  0.00  0.00    +0.000 OA
ATOM     10  H   UNL     1      -2.736  11.464  21.794  0.00  0.00    +0.000 HD
BRANCH   7  11
ATOM     11  C   UNL     1      -3.540  13.380  21.371  0.00  0.00    +0.000 C 
BRANCH  11  12
ATOM     12  C   UNL     1      -4.845  12.957  22.060  0.00  0.00    +0.000 C 
ATOM     13  F   UNL     1      -5.837  13.807  21.647  0.00  0.00    +0.000 F 
BRANCH  12  15
ATOM     14  C   UNL     1      -6.209  12.745  24.162  0.00  0.00    +0.000 C 
ATOM     15  C   UNL     1      -4.797  12.977  23.609  0.00  0.00    +0.000 C 
ATOM     16  C   UNL     1      -4.253  14.299  24.163  0.00  0.00    +0.000 C 
BRANCH  15  17
ATOM     17  O   UNL     1      -3.943  11.928  24.084  0.00  0.00    +0.000 OA
ATOM     18  H   UNL     1      -4.511  11.174  24.333  0.00  0.00    +0.000 HD
ENDBRANCH  15  17
ENDBRANCH  12  15
ENDBRANCH  11  12
ENDBRANCH   7  11
ENDBRANCH   1   8
BRANCH   4  19
ATOM     19  N   UNL     1       1.918   7.920  21.065  0.00  0.00    +0.000 N 
ATOM     20  H   UNL     1       1.973   7.701  22.052  0.00  0.00    +0.000 HD
BRANCH  19  21
ATOM     21  C   UNL     1       2.046   6.804  20.212  0.00  0.00    +0.000 A 
ATOM     22  C   UNL     1       2.530   6.972  18.911  0.00  0.00    +0.000 A 
ATOM     23  C   UNL     1       2.578   5.899  18.011  0.00  0.00    +0.000 A 
ATOM     24  C   UNL     1       2.112   4.631  18.405  0.00  0.00    +0.000 A 
ATOM     25  N   UNL     1       2.048   3.500  17.605  0.00  0.00    +0.000 NA
ATOM     26  C   UNL     1       1.538   2.507  18.297  0.00  0.00    +0.000 A 
ATOM     27  S   UNL     1       1.137   2.836  19.928  0.00  0.00    +0.000 S 
ATOM     28  C   UNL     1       1.650   4.465  19.711  0.00  0.00    +0.000 A 
ATOM     29  C   UNL     1       1.629   5.529  20.629  0.00  0.00    +0.000 A 
ENDBRANCH  19  21
ENDBRANCH   4  19
BRANCH   6  30
ATOM     30  N   UNL     1      -0.550  10.663  17.945  0.00  0.00    +0.000 N 
ATOM     31  H   UNL     1      -0.174  11.533  17.570  0.00  0.00    +0.000 HD
BRANCH  30  32
ATOM     32  C   UNL     1      -1.558   9.899  17.212  0.00  0.00    +0.000 C 
ATOM     33  C   UNL     1      -2.984   9.999  17.688  0.00  0.00    +0.000 C 
ATOM     34  C   UNL     1      -2.616  10.529  16.336  0.00  0.00    +0.000 C 
ENDBRANCH  30  32
ENDBRANCH   6  30
TORSDOF 9
ENDMDL
MODEL 5
REMARK VINA RESULT:      -7.8      2.066      2.537
REMARK  Name = 
REMARK  11 active torsions:
REMARK  status: ('A' for Active; 'I' for Inactive)
REMARK    1  A    between atoms: C_1  and  C_2
REMARK    2  A    between atoms: C_2  and  C_3
REMARK    3  A    between atoms: C_2  and  O_4
REMARK    4  A    between atoms: C_2  and  C_5
REMARK    5  A    between atoms: C_5  and  C_7
REMARK    6  A    between atoms: C_7  and  N_8
REMARK    7  A    between atoms: C_9  and  C_11
REMARK    8  A    between atoms: C_14  and  N_15
REMARK    9  A    between atoms: N_15  and  C_16
REMARK   10  A    between atoms: C_26  and  N_27
REMARK   11  A    between atoms: N_27  and  C_28
REMARK                            x       y       z     vdW  Elec       q    Type
REMARK                         _______ _______ _______ _____ _____    ______ ____
ROOT
ATOM      1  C   UNL     1       2.902   6.362  19.167  0.00  0.00    +0.000 A 
ATOM      2  C   UNL     1       2.734   7.614  18.583  0.00  0.00    +0.000 A 
ATOM      3  N   UNL     1       1.918   8.585  19.053  0.00  0.00    +0.000 NA
ATOM      4  C   UNL     1       1.205   8.325  20.160  0.00  0.00    +0.000 A 
ATOM      5  C   UNL     1       1.356   7.124  20.847  0.00  0.00    +0.000 A 
ATOM      6  C   UNL     1       2.230   6.125  20.377  0.00  0.00    +0.000 A 
ENDROOT
BRANCH   1   8
ATOM      7  N   UNL     1       5.055   5.261  18.693  0.00  0.00    +0.000 N 
ATOM      8  C   UNL     1       3.728   5.394  18.379  0.00  0.00    +0.000 C 
ATOM      9  O   UNL     1       3.192   4.744  17.486  0.00  0.00    +0.000 OA
ATOM     10  H   UNL     1       5.505   6.084  19.098  0.00  0.00    +0.000 HD
BRANCH   7  11
ATOM     11  C   UNL     1       5.913   4.377  17.908  0.00  0.00    +0.000 C 
BRANCH  11  12
ATOM     12  C   UNL     1       6.915   5.099  16.997  0.00  0.00    +0.000 C 
ATOM     13  F   UNL     1       7.032   6.391  17.437  0.00  0.00    +0.000 F 
BRANCH  12  15
ATOM     14  C   UNL     1       5.461   6.205  15.267  0.00  0.00    +0.000 C 
ATOM     15  C   UNL     1       6.527   5.126  15.496  0.00  0.00    +0.000 C 
ATOM     16  C   UNL     1       5.990   3.777  15.006  0.00  0.00    +0.000 C 
BRANCH  15  17
ATOM     17  O   UNL     1       7.678   5.445  14.702  0.00  0.00    +0.000 OA
ATOM     18  H   UNL     1       8.420   5.617  15.312  0.00  0.00    +0.000 HD
ENDBRANCH  15  17
ENDBRANCH  12  15
ENDBRANCH  11  12
ENDBRANCH   7  11
ENDBRANCH   1   8
BRANCH   4  19
ATOM     19  N   UNL     1       0.269   9.261  20.644  0.00  0.00    +0.000 N 
ATOM     20  H   UNL     1       0.122   9.151  21.640  0.00  0.00    +0.000 HD
BRANCH  19  21
ATOM     21  C   UNL     1       0.061  10.570  20.164  0.00  0.00    +0.000 A 
ATOM     22  C   UNL     1      -0.883  10.803  19.159  0.00  0.00    +0.000 A 
ATOM     23  C   UNL     1      -1.045  12.076  18.596  0.00  0.00    +0.000 A 
ATOM     24  C   UNL     1      -0.231  13.141  19.025  0.00  0.00    +0.000 A 
ATOM     25  N   UNL     1      -0.242  14.432  18.519  0.00  0.00    +0.000 NA
ATOM     26  C   UNL     1       0.666  15.150  19.139  0.00  0.00    +0.000 A 
ATOM     27  S   UNL     1       1.558  14.361  20.368  0.00  0.00    +0.000 S 
ATOM     28  C   UNL     1       0.695  12.907  20.042  0.00  0.00    +0.000 A 
ATOM     29  C   UNL     1       0.839  11.641  20.633  0.00  0.00    +0.000 A 
ENDBRANCH  19  21
ENDBRANCH   4  19
BRANCH   6  30
ATOM     30  N   UNL     1       2.484   5.000  21.186  0.00  0.00    +0.000 N 
ATOM     31  H   UNL     1       2.987   5.187  22.052  0.00  0.00    +0.000 HD
BRANCH  30  32
ATOM     32  C   UNL     1       2.261   3.630  20.725  0.00  0.00    +0.000 C 
ATOM     33  C   UNL     1       1.411   2.737  21.591  0.00  0.00    +0.000 C 
ATOM     34  C   UNL     1       0.931   3.118  20.224  0.00  0.00    +0.000 C 
ENDBRANCH  30  32
ENDBRANCH   6  30
TORSDOF 9
ENDMDL
MODEL 6
REMARK VINA RESULT:      -7.7      3.625      5.790
REMARK  Name = 
REMARK  11 active torsions:
REMARK  status: ('A' for Active; 'I' for Inactive)
REMARK    1  A    between atoms: C_1  and  C_2
REMARK    2  A    between atoms: C_2  and  C_3
REMARK    3  A    between atoms: C_2  and  O_4
REMARK    4  A    between atoms: C_2  and  C_5
REMARK    5  A    between atoms: C_5  and  C_7
REMARK    6  A    between atoms: C_7  and  N_8
REMARK    7  A    between atoms: C_9  and  C_11
REMARK    8  A    between atoms: C_14  and  N_15
REMARK    9  A    between atoms: N_15  and  C_16
REMARK   10  A    between atoms: C_26  and  N_27
REMARK   11  A    between atoms: N_27  and  C_28
REMARK                            x       y       z     vdW  Elec       q    Type
REMARK                         _______ _______ _______ _____ _____    ______ ____
ROOT
ATOM      1  C   UNL     1       0.945   9.337  19.535  0.00  0.00    +0.000 A 
ATOM      2  C   UNL     1       1.170   8.865  20.826  0.00  0.00    +0.000 A 
ATOM      3  N   UNL     1       0.553   9.326  21.937  0.00  0.00    +0.000 NA
ATOM      4  C   UNL     1      -0.336  10.320  21.796  0.00  0.00    +0.000 A 
ATOM      5  C   UNL     1      -0.672  10.811  20.538  0.00  0.00    +0.000 A 
ATOM      6  C   UNL     1      -0.055  10.311  19.376  0.00  0.00    +0.000 A 
ENDROOT
BRANCH   1   8
ATOM      7  N   UNL     1       2.509   7.611  18.733  0.00  0.00    +0.000 N 
ATOM      8  C   UNL     1       1.862   8.792  18.485  0.00  0.00    +0.000 C 
ATOM      9  O   UNL     1       1.996   9.412  17.434  0.00  0.00    +0.000 OA
ATOM     10  H   UNL     1       2.697   7.400  19.715  0.00  0.00    +0.000 HD
BRANCH   7  11
ATOM     11  C   UNL     1       3.463   7.077  17.765  0.00  0.00    +0.000 C 
BRANCH  11  12
ATOM     12  C   UNL     1       3.567   5.545  17.746  0.00  0.00    +0.000 C 
ATOM     13  F   UNL     1       2.307   5.037  17.571  0.00  0.00    +0.000 F 
BRANCH  12  15
ATOM     14  C   UNL     1       5.655   5.304  19.127  0.00  0.00    +0.000 C 
ATOM     15  C   UNL     1       4.174   4.920  19.029  0.00  0.00    +0.000 C 
ATOM     16  C   UNL     1       4.049   3.392  19.052  0.00  0.00    +0.000 C 
BRANCH  15  17
ATOM     17  O   UNL     1       3.493   5.424  20.185  0.00  0.00    +0.000 OA
ATOM     18  H   UNL     1       2.596   5.691  19.908  0.00  0.00    +0.000 HD
ENDBRANCH  15  17
ENDBRANCH  12  15
ENDBRANCH  11  12
ENDBRANCH   7  11
ENDBRANCH   1   8
BRANCH   4  19
ATOM     19  N   UNL     1      -0.942  10.904  22.927  0.00  0.00    +0.000 N 
ATOM     20  H   UNL     1      -0.445  10.665  23.775  0.00  0.00    +0.000 HD
BRANCH  19  21
ATOM     21  C   UNL     1      -1.618  12.142  22.975  0.00  0.00    +0.000 A 
ATOM     22  C   UNL     1      -0.892  13.335  22.933  0.00  0.00    +0.000 A 
ATOM     23  C   UNL     1      -1.528  14.577  23.074  0.00  0.00    +0.000 A 
ATOM     24  C   UNL     1      -2.918  14.633  23.288  0.00  0.00    +0.000 A 
ATOM     25  N   UNL     1      -3.666  15.781  23.501  0.00  0.00    +0.000 NA
ATOM     26  C   UNL     1      -4.923  15.452  23.687  0.00  0.00    +0.000 A 
ATOM     27  S   UNL     1      -5.302  13.786  23.592  0.00  0.00    +0.000 S 
ATOM     28  C   UNL     1      -3.639  13.438  23.309  0.00  0.00    +0.000 A 
ATOM     29  C   UNL     1      -3.012  12.193  23.135  0.00  0.00    +0.000 A 
ENDBRANCH  19  21
ENDBRANCH   4  19
BRANCH   6  30
ATOM     30  N   UNL     1      -0.540  10.710  18.115  0.00  0.00    +0.000 N 
ATOM     31  H   UNL     1       0.168  11.023  17.452  0.00  0.00    +0.000 HD
BRANCH  30  32
ATOM     32  C   UNL     1      -1.964  10.893  17.838  0.00  0.00    +0.000 C 
ATOM     33  C   UNL     1      -2.445  10.579  16.446  0.00  0.00    +0.000 C 
ATOM     34  C   UNL     1      -2.927   9.754  17.599  0.00  0.00    +0.000 C 
ENDBRANCH  30  32
ENDBRANCH   6  30
TORSDOF 9
ENDMDL
MODEL 7
REMARK VINA RESULT:      -7.7      2.469      3.097
REMARK  Name = 
REMARK  11 active torsions:
REMARK  status: ('A' for Active; 'I' for Inactive)
REMARK    1  A    between atoms: C_1  and  C_2
REMARK    2  A    between atoms: C_2  and  C_3
REMARK    3  A    between atoms: C_2  and  O_4
REMARK    4  A    between atoms: C_2  and  C_5
REMARK    5  A    between atoms: C_5  and  C_7
REMARK    6  A    between atoms: C_7  and  N_8
REMARK    7  A    between atoms: C_9  and  C_11
REMARK    8  A    between atoms: C_14  and  N_15
REMARK    9  A    between atoms: N_15  and  C_16
REMARK   10  A    between atoms: C_26  and  N_27
REMARK   11  A    between atoms: N_27  and  C_28
REMARK                            x       y       z     vdW  Elec       q    Type
REMARK                         _______ _______ _______ _____ _____    ______ ____
ROOT
ATOM      1  C   UNL     1       2.757   6.963  18.500  0.00  0.00    +0.000 A 
ATOM      2  C   UNL     1       2.447   8.213  17.971  0.00  0.00    +0.000 A 
ATOM      3  N   UNL     1       1.728   9.166  18.606  0.00  0.00    +0.000 NA
ATOM      4  C   UNL     1       1.265   8.890  19.835  0.00  0.00    +0.000 A 
ATOM      5  C   UNL     1       1.578   7.691  20.468  0.00  0.00    +0.000 A 
ATOM      6  C   UNL     1       2.354   6.710  19.822  0.00  0.00    +0.000 A 
ENDROOT
BRANCH   1   8
ATOM      7  N   UNL     1       4.576   6.410  16.933  0.00  0.00    +0.000 N 
ATOM      8  C   UNL     1       3.420   6.013  17.552  0.00  0.00    +0.000 C 
ATOM      9  O   UNL     1       2.916   4.909  17.367  0.00  0.00    +0.000 OA
ATOM     10  H   UNL     1       4.685   7.415  16.787  0.00  0.00    +0.000 HD
BRANCH   7  11
ATOM     11  C   UNL     1       5.221   5.541  15.952  0.00  0.00    +0.000 C 
BRANCH  11  12
ATOM     12  C   UNL     1       6.115   4.448  16.553  0.00  0.00    +0.000 C 
ATOM     13  F   UNL     1       5.303   3.472  17.068  0.00  0.00    +0.000 F 
BRANCH  12  15
ATOM     14  C   UNL     1       6.359   4.816  19.030  0.00  0.00    +0.000 C 
ATOM     15  C   UNL     1       7.069   4.933  17.675  0.00  0.00    +0.000 C 
ATOM     16  C   UNL     1       7.527   6.381  17.471  0.00  0.00    +0.000 C 
BRANCH  15  17
ATOM     17  O   UNL     1       8.244   4.111  17.704  0.00  0.00    +0.000 OA
ATOM     18  H   UNL     1       8.160   3.449  16.992  0.00  0.00    +0.000 HD
ENDBRANCH  15  17
ENDBRANCH  12  15
ENDBRANCH  11  12
ENDBRANCH   7  11
ENDBRANCH   1   8
BRANCH   4  19
ATOM     19  N   UNL     1       0.433   9.806  20.509  0.00  0.00    +0.000 N 
ATOM     20  H   UNL     1       0.422   9.628  21.505  0.00  0.00    +0.000 HD
BRANCH  19  21
ATOM     21  C   UNL     1       0.197  11.150  20.152  0.00  0.00    +0.000 A 
ATOM     22  C   UNL     1      -0.949  11.488  19.426  0.00  0.00    +0.000 A 
ATOM     23  C   UNL     1      -1.163  12.799  18.977  0.00  0.00    +0.000 A 
ATOM     24  C   UNL     1      -0.201  13.794  19.234  0.00  0.00    +0.000 A 
ATOM     25  N   UNL     1      -0.253  15.111  18.803  0.00  0.00    +0.000 NA
ATOM     26  C   UNL     1       0.824  15.744  19.207  0.00  0.00    +0.000 A 
ATOM     27  S   UNL     1       1.939  14.840  20.139  0.00  0.00    +0.000 S 
ATOM     28  C   UNL     1       0.930  13.454  19.977  0.00  0.00    +0.000 A 
ATOM     29  C   UNL     1       1.134  12.150  20.458  0.00  0.00    +0.000 A 
ENDBRANCH  19  21
ENDBRANCH   4  19
BRANCH   6  30
ATOM     30  N   UNL     1       2.791   5.588  20.553  0.00  0.00    +0.000 N 
ATOM     31  H   UNL     1       3.781   5.364  20.462  0.00  0.00    +0.000 HD
BRANCH  30  32
ATOM     32  C   UNL     1       1.867   4.664  21.208  0.00  0.00    +0.000 C 
ATOM     33  C   UNL     1       1.096   3.715  20.328  0.00  0.00    +0.000 C 
ATOM     34  C   UNL     1       2.095   3.174  21.304  0.00  0.00    +0.000 C 
ENDBRANCH  30  32
ENDBRANCH   6  30
TORSDOF 9
ENDMDL
MODEL 8
REMARK VINA RESULT:      -7.6      1.014      1.146
REMARK  Name = 
REMARK  11 active torsions:
REMARK  status: ('A' for Active; 'I' for Inactive)
REMARK    1  A    between atoms: C_1  and  C_2
REMARK    2  A    between atoms: C_2  and  C_3
REMARK    3  A    between atoms: C_2  and  O_4
REMARK    4  A    between atoms: C_2  and  C_5
REMARK    5  A    between atoms: C_5  and  C_7
REMARK    6  A    between atoms: C_7  and  N_8
REMARK    7  A    between atoms: C_9  and  C_11
REMARK    8  A    between atoms: C_14  and  N_15
REMARK    9  A    between atoms: N_15  and  C_16
REMARK   10  A    between atoms: C_26  and  N_27
REMARK   11  A    between atoms: N_27  and  C_28
REMARK                            x       y       z     vdW  Elec       q    Type
REMARK                         _______ _______ _______ _____ _____    ______ ____
ROOT
ATOM      1  C   UNL     1       2.987   6.628  18.701  0.00  0.00    +0.000 A 
ATOM      2  C   UNL     1       2.949   7.820  17.982  0.00  0.00    +0.000 A 
ATOM      3  N   UNL     1       2.239   8.915  18.335  0.00  0.00    +0.000 NA
ATOM      4  C   UNL     1       1.504   8.854  19.456  0.00  0.00    +0.000 A 
ATOM      5  C   UNL     1       1.531   7.727  20.272  0.00  0.00    +0.000 A 
ATOM      6  C   UNL     1       2.296   6.597  19.924  0.00  0.00    +0.000 A 
ENDROOT
BRANCH   1   8
ATOM      7  N   UNL     1       5.071   5.441  18.139  0.00  0.00    +0.000 N 
ATOM      8  C   UNL     1       3.707   5.500  18.033  0.00  0.00    +0.000 C 
ATOM      9  O   UNL     1       3.055   4.658  17.421  0.00  0.00    +0.000 OA
ATOM     10  H   UNL     1       5.551   6.336  18.258  0.00  0.00    +0.000 HD
BRANCH   7  11
ATOM     11  C   UNL     1       5.820   4.394  17.448  0.00  0.00    +0.000 C 
BRANCH  11  12
ATOM     12  C   UNL     1       5.310   4.066  16.038  0.00  0.00    +0.000 C 
ATOM     13  F   UNL     1       5.639   2.766  15.761  0.00  0.00    +0.000 F 
BRANCH  12  15
ATOM     14  C   UNL     1       5.517   4.370  13.549  0.00  0.00    +0.000 C 
ATOM     15  C   UNL     1       5.885   4.966  14.914  0.00  0.00    +0.000 C 
ATOM     16  C   UNL     1       7.408   5.115  15.003  0.00  0.00    +0.000 C 
BRANCH  15  17
ATOM     17  O   UNL     1       5.319   6.280  15.005  0.00  0.00    +0.000 OA
ATOM     18  H   UNL     1       5.889   6.809  15.595  0.00  0.00    +0.000 HD
ENDBRANCH  15  17
ENDBRANCH  12  15
ENDBRANCH  11  12
ENDBRANCH   7  11
ENDBRANCH   1   8
BRANCH   4  19
ATOM     19  N   UNL     1       0.672   9.929  19.826  0.00  0.00    +0.000 N 
ATOM     20  H   UNL     1       1.186  10.632  20.342  0.00  0.00    +0.000 HD
BRANCH  19  21
ATOM     21  C   UNL     1      -0.432  10.427  19.103  0.00  0.00    +0.000 A 
ATOM     22  C   UNL     1      -1.234  11.429  19.657  0.00  0.00    +0.000 A 
ATOM     23  C   UNL     1      -2.391  11.877  19.004  0.00  0.00    +0.000 A 
ATOM     24  C   UNL     1      -2.775  11.296  17.781  0.00  0.00    +0.000 A 
ATOM     25  N   UNL     1      -3.918  11.599  17.057  0.00  0.00    +0.000 NA
ATOM     26  C   UNL     1      -3.964  10.847  15.981  0.00  0.00    +0.000 A 
ATOM     27  S   UNL     1      -2.655   9.770  15.744  0.00  0.00    +0.000 S 
ATOM     28  C   UNL     1      -1.958  10.312  17.223  0.00  0.00    +0.000 A 
ATOM     29  C   UNL     1      -0.780   9.882  17.857  0.00  0.00    +0.000 A 
ENDBRANCH  19  21
ENDBRANCH   4  19
BRANCH   6  30
ATOM     30  N   UNL     1       2.432   5.547  20.853  0.00  0.00    +0.000 N 
ATOM     31  H   UNL     1       3.345   5.473  21.300  0.00  0.00    +0.000 HD
BRANCH  30  32
ATOM     32  C   UNL     1       1.431   4.492  21.004  0.00  0.00    +0.000 C 
ATOM     33  C   UNL     1       1.536   3.302  20.086  0.00  0.00    +0.000 C 
ATOM     34  C   UNL     1       1.734   3.120  21.560  0.00  0.00    +0.000 C 
ENDBRANCH  30  32
ENDBRANCH   6  30
TORSDOF 9
ENDMDL
MODEL 9
REMARK VINA RESULT:      -7.6      2.404      3.007
REMARK  Name = 
REMARK  11 active torsions:
REMARK  status: ('A' for Active; 'I' for Inactive)
REMARK    1  A    between atoms: C_1  and  C_2
REMARK    2  A    between atoms: C_2  and  C_3
REMARK    3  A    between atoms: C_2  and  O_4
REMARK    4  A    between atoms: C_2  and  C_5
REMARK    5  A    between atoms: C_5  and  C_7
REMARK    6  A    between atoms: C_7  and  N_8
REMARK    7  A    between atoms: C_9  and  C_11
REMARK    8  A    between atoms: C_14  and  N_15
REMARK    9  A    between atoms: N_15  and  C_16
REMARK   10  A    between atoms: C_26  and  N_27
REMARK   11  A    between atoms: N_27  and  C_28
REMARK                            x       y       z     vdW  Elec       q    Type
REMARK                         _______ _______ _______ _____ _____    ______ ____
ROOT
ATOM      1  C   UNL     1       3.473   6.068  18.442  0.00  0.00    +0.000 A 
ATOM      2  C   UNL     1       3.560   7.147  17.567  0.00  0.00    +0.000 A 
ATOM      3  N   UNL     1       2.883   8.310  17.703  0.00  0.00    +0.000 NA
ATOM      4  C   UNL     1       2.056   8.437  18.751  0.00  0.00    +0.000 A 
ATOM      5  C   UNL     1       1.953   7.435  19.711  0.00  0.00    +0.000 A 
ATOM      6  C   UNL     1       2.682   6.237  19.590  0.00  0.00    +0.000 A 
ENDROOT
BRANCH   1   8
ATOM      7  N   UNL     1       5.015   4.902  16.914  0.00  0.00    +0.000 N 
ATOM      8  C   UNL     1       4.185   4.827  18.000  0.00  0.00    +0.000 C 
ATOM      9  O   UNL     1       4.011   3.786  18.629  0.00  0.00    +0.000 OA
ATOM     10  H   UNL     1       4.783   5.616  16.220  0.00  0.00    +0.000 HD
BRANCH   7  11
ATOM     11  C   UNL     1       5.678   3.703  16.409  0.00  0.00    +0.000 C 
BRANCH  11  12
ATOM     12  C   UNL     1       6.890   3.972  15.505  0.00  0.00    +0.000 C 
ATOM     13  F   UNL     1       7.787   4.726  16.214  0.00  0.00    +0.000 F 
BRANCH  12  15
ATOM     14  C   UNL     1       5.645   3.836  13.323  0.00  0.00    +0.000 C 
ATOM     15  C   UNL     1       6.562   4.715  14.184  0.00  0.00    +0.000 C 
ATOM     16  C   UNL     1       7.819   5.066  13.381  0.00  0.00    +0.000 C 
BRANCH  15  17
ATOM     17  O   UNL     1       5.879   5.942  14.472  0.00  0.00    +0.000 OA
ATOM     18  H   UNL     1       6.552   6.643  14.556  0.00  0.00    +0.000 HD
ENDBRANCH  15  17
ENDBRANCH  12  15
ENDBRANCH  11  12
ENDBRANCH   7  11
ENDBRANCH   1   8
BRANCH   4  19
ATOM     19  N   UNL     1       1.255   9.587  18.895  0.00  0.00    +0.000 N 
ATOM     20  H   UNL     1       0.730   9.778  18.051  0.00  0.00    +0.000 HD
BRANCH  19  21
ATOM     21  C   UNL     1       0.639  10.042  20.080  0.00  0.00    +0.000 A 
ATOM     22  C   UNL     1       0.913   9.409  21.296  0.00  0.00    +0.000 A 
ATOM     23  C   UNL     1       0.246   9.777  22.473  0.00  0.00    +0.000 A 
ATOM     24  C   UNL     1      -0.736  10.785  22.436  0.00  0.00    +0.000 A 
ATOM     25  N   UNL     1      -1.511  11.209  23.505  0.00  0.00    +0.000 NA
ATOM     26  C   UNL     1      -2.337  12.146  23.098  0.00  0.00    +0.000 A 
ATOM     27  S   UNL     1      -2.228  12.601  21.452  0.00  0.00    +0.000 S 
ATOM     28  C   UNL     1      -0.989  11.427  21.223  0.00  0.00    +0.000 A 
ATOM     29  C   UNL     1      -0.301  11.085  20.047  0.00  0.00    +0.000 A 
ENDBRANCH  19  21
ENDBRANCH   4  19
BRANCH   6  30
ATOM     30  N   UNL     1       2.683   5.322  20.662  0.00  0.00    +0.000 N 
ATOM     31  H   UNL     1       3.598   5.116  21.060  0.00  0.00    +0.000 HD
BRANCH  30  32
ATOM     32  C   UNL     1       1.505   4.540  21.034  0.00  0.00    +0.000 C 
ATOM     33  C   UNL     1       0.891   3.665  19.973  0.00  0.00    +0.000 C 
ATOM     34  C   UNL     1       1.508   3.037  21.185  0.00  0.00    +0.000 C 
ENDBRANCH  30  32
ENDBRANCH   6  30
TORSDOF 9
ENDMDL
