MODEL 1
REMARK VINA RESULT:      -8.5      0.000      0.000
REMARK  Name = 
REMARK  8 active torsions:
REMARK  status: ('A' for Active; 'I' for Inactive)
REMARK    1  A    between atoms: C_1  and  C_2
REMARK    2  A    between atoms: C_2  and  N_3
REMARK    3  A    between atoms: C_4  and  C_6
REMARK    4  A    between atoms: C_8  and  N_9
REMARK    5  A    between atoms: N_14  and  C_15
REMARK    6  A    between atoms: C_20  and  C_21
REMARK    7  A    between atoms: C_31  and  O_32
REMARK    8  A    between atoms: C_33  and  O_34
REMARK                            x       y       z     vdW  Elec       q    Type
REMARK                         _______ _______ _______ _____ _____    ______ ____
ROOT
ATOM      1  N   UNL     1       2.293   7.085  18.531  0.00  0.00    +0.000 N 
ATOM      2  C   UNL     1       2.997   7.330  17.375  0.00  0.00    +0.000 A 
ATOM      3  N   UNL     1       3.069   8.614  17.102  0.00  0.00    +0.000 NA
ATOM      4  C   UNL     1       2.371   9.230  18.122  0.00  0.00    +0.000 A 
ATOM      5  C   UNL     1       2.055  10.577  18.366  0.00  0.00    +0.000 A 
ATOM      6  N   UNL     1       2.418  11.589  17.485  0.00  0.00    +0.000 N 
ATOM      7  C   UNL     1       2.680  12.904  18.031  0.00  0.00    +0.000 C 
ATOM      8  N   UNL     1       1.316  10.860  19.468  0.00  0.00    +0.000 NA
ATOM      9  C   UNL     1       0.925   9.859  20.297  0.00  0.00    +0.000 A 
ATOM     10  N   UNL     1       0.104  10.235  21.400  0.00  0.00    +0.000 N 
ATOM     11  C   UNL     1      -0.402  11.482  21.673  0.00  0.00    +0.000 A 
ATOM     12  C   UNL     1      -1.221  11.293  22.760  0.00  0.00    +0.000 A 
ATOM     13  N   UNL     1      -1.127   9.990  23.175  0.00  0.00    +0.000 NA
ATOM     14  N   UNL     1      -0.321   9.348  22.339  0.00  0.00    +0.000 NA
ATOM     15  N   UNL     1       1.217   8.545  20.155  0.00  0.00    +0.000 NA
ATOM     16  C   UNL     1       1.912   8.296  19.041  0.00  0.00    +0.000 A 
ATOM     17  H   UNL     1       3.088  11.254  16.794  0.00  0.00    +0.000 HD
ENDROOT
BRANCH  12  18
ATOM     18  C   UNL     1      -2.107  12.283  23.343  0.00  0.00    +0.000 A 
ATOM     19  C   UNL     1      -1.668  13.586  23.553  0.00  0.00    +0.000 A 
ATOM     20  C   UNL     1      -2.517  14.483  24.194  0.00  0.00    +0.000 A 
ATOM     21  C   UNL     1      -3.773  14.054  24.608  0.00  0.00    +0.000 A 
ATOM     22  C   UNL     1      -4.133  12.742  24.354  0.00  0.00    +0.000 A 
ATOM     23  N   UNL     1      -3.335  11.850  23.727  0.00  0.00    +0.000 NA
ENDBRANCH  12  18
BRANCH   1  26
ATOM     24  C   UNL     1       3.248   4.018  19.887  0.00  0.00    +0.000 C 
ATOM     25  O   UNL     1       2.788   5.358  20.104  0.00  0.00    +0.000 OA
ATOM     26  C   UNL     1       1.948   5.754  19.007  0.00  0.00    +0.000 C 
ATOM     27  C   UNL     1       2.060   4.675  17.932  0.00  0.00    +0.000 C 
ATOM     28  C   UNL     1       2.417   3.442  18.745  0.00  0.00    +0.000 C 
BRANCH  24  30
ATOM     29  N   UNL     1       5.362   5.098  19.298  0.00  0.00    +0.000 N 
ATOM     30  C   UNL     1       4.756   3.906  19.616  0.00  0.00    +0.000 C 
ATOM     31  O   UNL     1       5.371   2.853  19.766  0.00  0.00    +0.000 OA
ATOM     32  H   UNL     1       4.772   5.869  18.982  0.00  0.00    +0.000 HD
BRANCH  29  34
ATOM     33  C   UNL     1       7.226   5.033  17.710  0.00  0.00    +0.000 C 
ATOM     34  C   UNL     1       6.798   5.217  19.152  0.00  0.00    +0.000 C 
ENDBRANCH  29  34
ENDBRANCH  24  30
BRANCH  27  35
ATOM     35  O   UNL     1       0.825   4.498  17.231  0.00  0.00    +0.000 OA
ATOM     36  H   UNL     1       0.310   5.321  17.379  0.00  0.00    +0.000 HD
ENDBRANCH  27  35
BRANCH  28  37
ATOM     37  O   UNL     1       1.186   2.849  19.209  0.00  0.00    +0.000 OA
ATOM     38  H   UNL     1       1.058   3.072  20.150  0.00  0.00    +0.000 HD
ENDBRANCH  28  37
ENDBRANCH   1  26
TORSDOF 6
ENDMDL
MODEL 2
REMARK VINA RESULT:      -8.1      1.473      1.504
REMARK  Name = 
REMARK  8 active torsions:
REMARK  status: ('A' for Active; 'I' for Inactive)
REMARK    1  A    between atoms: C_1  and  C_2
REMARK    2  A    between atoms: C_2  and  N_3
REMARK    3  A    between atoms: C_4  and  C_6
REMARK    4  A    between atoms: C_8  and  N_9
REMARK    5  A    between atoms: N_14  and  C_15
REMARK    6  A    between atoms: C_20  and  C_21
REMARK    7  A    between atoms: C_31  and  O_32
REMARK    8  A    between atoms: C_33  and  O_34
REMARK                            x       y       z     vdW  Elec       q    Type
REMARK                         _______ _______ _______ _____ _____    ______ ____
ROOT
ATOM      1  N   UNL     1       2.603   6.416  19.445  0.00  0.00    +0.000 N 
ATOM      2  C   UNL     1       3.190   6.453  18.202  0.00  0.00    +0.000 A 
ATOM      3  N   UNL     1       3.091   7.639  17.643  0.00  0.00    +0.000 NA
ATOM      4  C   UNL     1       2.399   8.404  18.560  0.00  0.00    +0.000 A 
ATOM      5  C   UNL     1       1.945   9.733  18.526  0.00  0.00    +0.000 A 
ATOM      6  N   UNL     1       2.124  10.543  17.410  0.00  0.00    +0.000 N 
ATOM      7  C   UNL     1       2.267  11.967  17.621  0.00  0.00    +0.000 C 
ATOM      8  N   UNL     1       1.257  10.190  19.601  0.00  0.00    +0.000 NA
ATOM      9  C   UNL     1       1.045   9.377  20.667  0.00  0.00    +0.000 A 
ATOM     10  N   UNL     1       0.265   9.917  21.731  0.00  0.00    +0.000 N 
ATOM     11  C   UNL     1      -0.364  11.137  21.765  0.00  0.00    +0.000 A 
ATOM     12  C   UNL     1      -1.077  11.127  22.940  0.00  0.00    +0.000 A 
ATOM     13  N   UNL     1      -0.802   9.971  23.625  0.00  0.00    +0.000 NA
ATOM     14  N   UNL     1       0.014   9.235  22.880  0.00  0.00    +0.000 NA
ATOM     15  N   UNL     1       1.478   8.101  20.796  0.00  0.00    +0.000 NA
ATOM     16  C   UNL     1       2.118   7.669  19.705  0.00  0.00    +0.000 A 
ATOM     17  H   UNL     1       2.779  10.123  16.752  0.00  0.00    +0.000 HD
ENDROOT
BRANCH  12  18
ATOM     18  C   UNL     1      -2.030  12.133  23.367  0.00  0.00    +0.000 A 
ATOM     19  C   UNL     1      -1.660  13.472  23.433  0.00  0.00    +0.000 A 
ATOM     20  C   UNL     1      -2.575  14.396  23.931  0.00  0.00    +0.000 A 
ATOM     21  C   UNL     1      -3.825  13.956  24.351  0.00  0.00    +0.000 A 
ATOM     22  C   UNL     1      -4.114  12.606  24.246  0.00  0.00    +0.000 A 
ATOM     23  N   UNL     1      -3.252  11.688  23.759  0.00  0.00    +0.000 NA
ENDBRANCH  12  18
BRANCH   1  26
ATOM     24  C   UNL     1       3.329   3.050  19.989  0.00  0.00    +0.000 C 
ATOM     25  O   UNL     1       3.656   4.423  20.233  0.00  0.00    +0.000 OA
ATOM     26  C   UNL     1       2.450   5.205  20.236  0.00  0.00    +0.000 C 
ATOM     27  C   UNL     1       1.318   4.301  19.755  0.00  0.00    +0.000 C 
ATOM     28  C   UNL     1       1.817   2.919  20.143  0.00  0.00    +0.000 C 
BRANCH  24  30
ATOM     29  N   UNL     1       4.478   3.445  17.867  0.00  0.00    +0.000 N 
ATOM     30  C   UNL     1       3.818   2.515  18.635  0.00  0.00    +0.000 C 
ATOM     31  O   UNL     1       3.705   1.333  18.319  0.00  0.00    +0.000 OA
ATOM     32  H   UNL     1       4.345   4.433  18.086  0.00  0.00    +0.000 HD
BRANCH  29  34
ATOM     33  C   UNL     1       5.434   4.317  15.786  0.00  0.00    +0.000 C 
ATOM     34  C   UNL     1       5.136   3.091  16.626  0.00  0.00    +0.000 C 
ENDBRANCH  29  34
ENDBRANCH  24  30
BRANCH  27  35
ATOM     35  O   UNL     1       0.081   4.611  20.406  0.00  0.00    +0.000 OA
ATOM     36  H   UNL     1       0.159   4.252  21.317  0.00  0.00    +0.000 HD
ENDBRANCH  27  35
BRANCH  28  37
ATOM     37  O   UNL     1       1.425   2.678  21.512  0.00  0.00    +0.000 OA
ATOM     38  H   UNL     1       1.104   3.511  21.904  0.00  0.00    +0.000 HD
ENDBRANCH  28  37
ENDBRANCH   1  26
TORSDOF 6
ENDMDL
MODEL 3
REMARK VINA RESULT:      -7.6      3.708      6.204
REMARK  Name = 
REMARK  8 active torsions:
REMARK  status: ('A' for Active; 'I' for Inactive)
REMARK    1  A    between atoms: C_1  and  C_2
REMARK    2  A    between atoms: C_2  and  N_3
REMARK    3  A    between atoms: C_4  and  C_6
REMARK    4  A    between atoms: C_8  and  N_9
REMARK    5  A    between atoms: N_14  and  C_15
REMARK    6  A    between atoms: C_20  and  C_21
REMARK    7  A    between atoms: C_31  and  O_32
REMARK    8  A    between atoms: C_33  and  O_34
REMARK                            x       y       z     vdW  Elec       q    Type
REMARK                         _______ _______ _______ _____ _____    ______ ____
ROOT
ATOM      1  N   UNL     1       4.813   4.304  16.698  0.00  0.00    +0.000 N 
ATOM      2  C   UNL     1       4.852   2.958  16.979  0.00  0.00    +0.000 A 
ATOM      3  N   UNL     1       3.993   2.622  17.916  0.00  0.00    +0.000 NA
ATOM      4  C   UNL     1       3.375   3.805  18.267  0.00  0.00    +0.000 A 
ATOM      5  C   UNL     1       2.404   4.109  19.236  0.00  0.00    +0.000 A 
ATOM      6  N   UNL     1       1.901   3.143  20.100  0.00  0.00    +0.000 N 
ATOM      7  C   UNL     1       0.540   3.293  20.569  0.00  0.00    +0.000 C 
ATOM      8  N   UNL     1       2.014   5.402  19.351  0.00  0.00    +0.000 NA
ATOM      9  C   UNL     1       2.546   6.347  18.535  0.00  0.00    +0.000 A 
ATOM     10  N   UNL     1       2.123   7.690  18.760  0.00  0.00    +0.000 N 
ATOM     11  C   UNL     1       1.302   8.146  19.761  0.00  0.00    +0.000 A 
ATOM     12  C   UNL     1       1.307   9.513  19.617  0.00  0.00    +0.000 A 
ATOM     13  N   UNL     1       2.036   9.847  18.505  0.00  0.00    +0.000 NA
ATOM     14  N   UNL     1       2.535   8.731  17.988  0.00  0.00    +0.000 NA
ATOM     15  N   UNL     1       3.455   6.134  17.555  0.00  0.00    +0.000 NA
ATOM     16  C   UNL     1       3.846   4.858  17.493  0.00  0.00    +0.000 A 
ATOM     17  H   UNL     1       2.167   2.206  19.801  0.00  0.00    +0.000 HD
ENDROOT
BRANCH  12  18
ATOM     18  C   UNL     1       0.707  10.469  20.528  0.00  0.00    +0.000 A 
ATOM     19  C   UNL     1       0.042  10.033  21.670  0.00  0.00    +0.000 A 
ATOM     20  C   UNL     1      -0.596  10.975  22.472  0.00  0.00    +0.000 A 
ATOM     21  C   UNL     1      -0.555  12.316  22.112  0.00  0.00    +0.000 A 
ATOM     22  C   UNL     1       0.135  12.665  20.963  0.00  0.00    +0.000 A 
ATOM     23  N   UNL     1       0.770  11.776  20.168  0.00  0.00    +0.000 NA
ENDBRANCH  12  18
BRANCH   1  26
ATOM     24  C   UNL     1       6.028   4.860  13.478  0.00  0.00    +0.000 C 
ATOM     25  O   UNL     1       5.126   5.242  14.525  0.00  0.00    +0.000 OA
ATOM     26  C   UNL     1       5.737   4.974  15.798  0.00  0.00    +0.000 C 
ATOM     27  C   UNL     1       7.015   4.181  15.534  0.00  0.00    +0.000 C 
ATOM     28  C   UNL     1       7.386   4.619  14.127  0.00  0.00    +0.000 C 
BRANCH  24  30
ATOM     29  N   UNL     1       4.368   3.844  11.996  0.00  0.00    +0.000 N 
ATOM     30  C   UNL     1       5.561   3.652  12.653  0.00  0.00    +0.000 C 
ATOM     31  O   UNL     1       6.249   2.642  12.523  0.00  0.00    +0.000 OA
ATOM     32  H   UNL     1       3.759   4.599  12.316  0.00  0.00    +0.000 HD
BRANCH  29  34
ATOM     33  C   UNL     1       3.061   3.547   9.945  0.00  0.00    +0.000 C 
ATOM     34  C   UNL     1       3.841   2.876  11.057  0.00  0.00    +0.000 C 
ENDBRANCH  29  34
ENDBRANCH  24  30
BRANCH  27  35
ATOM     35  O   UNL     1       8.045   4.509  16.472  0.00  0.00    +0.000 OA
ATOM     36  H   UNL     1       7.828   5.407  16.807  0.00  0.00    +0.000 HD
ENDBRANCH  27  35
BRANCH  28  37
ATOM     37  O   UNL     1       8.164   5.830  14.235  0.00  0.00    +0.000 OA
ATOM     38  H   UNL     1       8.037   6.365  13.429  0.00  0.00    +0.000 HD
ENDBRANCH  28  37
ENDBRANCH   1  26
TORSDOF 6
ENDMDL
MODEL 4
REMARK VINA RESULT:      -7.5      3.546     10.252
REMARK  Name = 
REMARK  8 active torsions:
REMARK  status: ('A' for Active; 'I' for Inactive)
REMARK    1  A    between atoms: C_1  and  C_2
REMARK    2  A    between atoms: C_2  and  N_3
REMARK    3  A    between atoms: C_4  and  C_6
REMARK    4  A    between atoms: C_8  and  N_9
REMARK    5  A    between atoms: N_14  and  C_15
REMARK    6  A    between atoms: C_20  and  C_21
REMARK    7  A    between atoms: C_31  and  O_32
REMARK    8  A    between atoms: C_33  and  O_34
REMARK                            x       y       z     vdW  Elec       q    Type
REMARK                         _______ _______ _______ _____ _____    ______ ____
ROOT
ATOM      1  N   UNL     1       1.491   8.431  20.145  0.00  0.00    +0.000 N 
ATOM      2  C   UNL     1       0.827   7.883  21.217  0.00  0.00    +0.000 A 
ATOM      3  N   UNL     1       1.062   6.594  21.338  0.00  0.00    +0.000 NA
ATOM      4  C   UNL     1       1.910   6.291  20.293  0.00  0.00    +0.000 A 
ATOM      5  C   UNL     1       2.477   5.080  19.861  0.00  0.00    +0.000 A 
ATOM      6  N   UNL     1       2.194   3.872  20.488  0.00  0.00    +0.000 N 
ATOM      7  C   UNL     1       3.218   2.849  20.483  0.00  0.00    +0.000 C 
ATOM      8  N   UNL     1       3.265   5.113  18.758  0.00  0.00    +0.000 NA
ATOM      9  C   UNL     1       3.496   6.291  18.124  0.00  0.00    +0.000 A 
ATOM     10  N   UNL     1       4.289   6.228  16.941  0.00  0.00    +0.000 N 
ATOM     11  C   UNL     1       4.778   5.101  16.326  0.00  0.00    +0.000 A 
ATOM     12  C   UNL     1       5.361   5.563  15.170  0.00  0.00    +0.000 A 
ATOM     13  N   UNL     1       5.301   6.933  15.151  0.00  0.00    +0.000 NA
ATOM     14  N   UNL     1       4.642   7.333  16.231  0.00  0.00    +0.000 NA
ATOM     15  N   UNL     1       3.021   7.502  18.494  0.00  0.00    +0.000 NA
ATOM     16  C   UNL     1       2.218   7.430  19.560  0.00  0.00    +0.000 A 
ATOM     17  H   UNL     1       1.719   4.020  21.377  0.00  0.00    +0.000 HD
ENDROOT
BRANCH  12  18
ATOM     18  C   UNL     1       5.893   4.745  14.098  0.00  0.00    +0.000 A 
ATOM     19  C   UNL     1       7.179   4.963  13.615  0.00  0.00    +0.000 A 
ATOM     20  C   UNL     1       7.621   4.215  12.527  0.00  0.00    +0.000 A 
ATOM     21  C   UNL     1       6.769   3.278  11.954  0.00  0.00    +0.000 A 
ATOM     22  C   UNL     1       5.507   3.119  12.501  0.00  0.00    +0.000 A 
ATOM     23  N   UNL     1       5.052   3.823  13.561  0.00  0.00    +0.000 NA
ENDBRANCH  12  18
BRANCH   1  26
ATOM     24  C   UNL     1       0.472  11.707  20.764  0.00  0.00    +0.000 C 
ATOM     25  O   UNL     1       1.525  10.735  20.771  0.00  0.00    +0.000 OA
ATOM     26  C   UNL     1       1.318   9.804  19.696  0.00  0.00    +0.000 C 
ATOM     27  C   UNL     1      -0.064  10.083  19.110  0.00  0.00    +0.000 C 
ATOM     28  C   UNL     1      -0.267  11.552  19.440  0.00  0.00    +0.000 C 
BRANCH  24  30
ATOM     29  N   UNL     1      -1.653  12.314  21.813  0.00  0.00    +0.000 N 
ATOM     30  C   UNL     1      -0.478  11.617  21.969  0.00  0.00    +0.000 C 
ATOM     31  O   UNL     1      -0.237  10.905  22.940  0.00  0.00    +0.000 OA
ATOM     32  H   UNL     1      -1.690  13.042  21.098  0.00  0.00    +0.000 HD
BRANCH  29  34
ATOM     33  C   UNL     1      -2.868  13.516  23.568  0.00  0.00    +0.000 C 
ATOM     34  C   UNL     1      -2.730  12.231  22.777  0.00  0.00    +0.000 C 
ENDBRANCH  29  34
ENDBRANCH  24  30
BRANCH  27  35
ATOM     35  O   UNL     1      -0.094   9.856  17.697  0.00  0.00    +0.000 OA
ATOM     36  H   UNL     1      -0.681  10.551  17.325  0.00  0.00    +0.000 HD
ENDBRANCH  27  35
BRANCH  28  37
ATOM     37  O   UNL     1       0.335  12.328  18.382  0.00  0.00    +0.000 OA
ATOM     38  H   UNL     1       1.174  12.710  18.703  0.00  0.00    +0.000 HD
ENDBRANCH  28  37
ENDBRANCH   1  26
TORSDOF 6
ENDMDL
MODEL 5
REMARK VINA RESULT:      -7.4      3.576      6.103
REMARK  Name = 
REMARK  8 active torsions:
REMARK  status: ('A' for Active; 'I' for Inactive)
REMARK    1  A    between atoms: C_1  and  C_2
REMARK    2  A    between atoms: C_2  and  N_3
REMARK    3  A    between atoms: C_4  and  C_6
REMARK    4  A    between atoms: C_8  and  N_9
REMARK    5  A    between atoms: N_14  and  C_15
REMARK    6  A    between atoms: C_20  and  C_21
REMARK    7  A    between atoms: C_31  and  O_32
REMARK    8  A    between atoms: C_33  and  O_34
REMARK                            x       y       z     vdW  Elec       q    Type
REMARK                         _______ _______ _______ _____ _____    ______ ____
ROOT
ATOM      1  N   UNL     1       4.828   4.213  16.926  0.00  0.00    +0.000 N 
ATOM      2  C   UNL     1       4.925   2.866  17.187  0.00  0.00    +0.000 A 
ATOM      3  N   UNL     1       4.098   2.485  18.136  0.00  0.00    +0.000 NA
ATOM      4  C   UNL     1       3.442   3.638  18.515  0.00  0.00    +0.000 A 
ATOM      5  C   UNL     1       2.479   3.891  19.507  0.00  0.00    +0.000 A 
ATOM      6  N   UNL     1       2.031   2.896  20.368  0.00  0.00    +0.000 N 
ATOM      7  C   UNL     1       0.675   2.987  20.865  0.00  0.00    +0.000 C 
ATOM      8  N   UNL     1       2.042   5.167  19.648  0.00  0.00    +0.000 NA
ATOM      9  C   UNL     1       2.521   6.143  18.834  0.00  0.00    +0.000 A 
ATOM     10  N   UNL     1       2.051   7.465  19.085  0.00  0.00    +0.000 N 
ATOM     11  C   UNL     1       1.233   7.876  20.109  0.00  0.00    +0.000 A 
ATOM     12  C   UNL     1       1.183   9.244  19.983  0.00  0.00    +0.000 A 
ATOM     13  N   UNL     1       1.875   9.620  18.861  0.00  0.00    +0.000 NA
ATOM     14  N   UNL     1       2.407   8.531  18.320  0.00  0.00    +0.000 NA
ATOM     15  N   UNL     1       3.417   5.978  17.834  0.00  0.00    +0.000 NA
ATOM     16  C   UNL     1       3.857   4.718  17.747  0.00  0.00    +0.000 A 
ATOM     17  H   UNL     1       2.327   1.974  20.050  0.00  0.00    +0.000 HD
ENDROOT
BRANCH  12  18
ATOM     18  C   UNL     1       0.564  10.163  20.919  0.00  0.00    +0.000 A 
ATOM     19  C   UNL     1      -0.093   9.686  22.048  0.00  0.00    +0.000 A 
ATOM     20  C   UNL     1      -0.749  10.593  22.874  0.00  0.00    +0.000 A 
ATOM     21  C   UNL     1      -0.732  11.945  22.550  0.00  0.00    +0.000 A 
ATOM     22  C   UNL     1      -0.049  12.336  21.411  0.00  0.00    +0.000 A 
ATOM     23  N   UNL     1       0.603  11.481  20.593  0.00  0.00    +0.000 NA
ENDBRANCH  12  18
BRANCH   1  26
ATOM     24  C   UNL     1       5.886   4.933  13.683  0.00  0.00    +0.000 C 
ATOM     25  O   UNL     1       5.036   5.259  14.790  0.00  0.00    +0.000 OA
ATOM     26  C   UNL     1       5.708   4.930  16.017  0.00  0.00    +0.000 C 
ATOM     27  C   UNL     1       6.972   4.155  15.653  0.00  0.00    +0.000 C 
ATOM     28  C   UNL     1       7.275   4.664  14.254  0.00  0.00    +0.000 C 
BRANCH  24  30
ATOM     29  N   UNL     1       6.365   2.890  12.427  0.00  0.00    +0.000 N 
ATOM     30  C   UNL     1       5.381   3.765  12.822  0.00  0.00    +0.000 C 
ATOM     31  O   UNL     1       4.187   3.590  12.592  0.00  0.00    +0.000 OA
ATOM     32  H   UNL     1       7.335   3.206  12.464  0.00  0.00    +0.000 HD
BRANCH  29  34
ATOM     33  C   UNL     1       7.081   1.363  10.649  0.00  0.00    +0.000 C 
ATOM     34  C   UNL     1       6.063   1.655  11.734  0.00  0.00    +0.000 C 
ENDBRANCH  29  34
ENDBRANCH  24  30
BRANCH  27  35
ATOM     35  O   UNL     1       8.045   4.439  16.556  0.00  0.00    +0.000 OA
ATOM     36  H   UNL     1       7.651   4.963  17.287  0.00  0.00    +0.000 HD
ENDBRANCH  27  35
BRANCH  28  37
ATOM     37  O   UNL     1       8.056   5.871  14.384  0.00  0.00    +0.000 OA
ATOM     38  H   UNL     1       8.950   5.712  14.028  0.00  0.00    +0.000 HD
ENDBRANCH  28  37
ENDBRANCH   1  26
TORSDOF 6
ENDMDL
MODEL 6
REMARK VINA RESULT:      -7.1      3.654      6.054
REMARK  Name = 
REMARK  8 active torsions:
REMARK  status: ('A' for Active; 'I' for Inactive)
REMARK    1  A    between atoms: C_1  and  C_2
REMARK    2  A    between atoms: C_2  and  N_3
REMARK    3  A    between atoms: C_4  and  C_6
REMARK    4  A    between atoms: C_8  and  N_9
REMARK    5  A    between atoms: N_14  and  C_15
REMARK    6  A    between atoms: C_20  and  C_21
REMARK    7  A    between atoms: C_31  and  O_32
REMARK    8  A    between atoms: C_33  and  O_34
REMARK                            x       y       z     vdW  Elec       q    Type
REMARK                         _______ _______ _______ _____ _____    ______ ____
ROOT
ATOM      1  N   UNL     1       4.856   4.501  16.741  0.00  0.00    +0.000 N 
ATOM      2  C   UNL     1       4.887   3.180  17.122  0.00  0.00    +0.000 A 
ATOM      3  N   UNL     1       4.021   2.920  18.076  0.00  0.00    +0.000 NA
ATOM      4  C   UNL     1       3.405   4.128  18.333  0.00  0.00    +0.000 A 
ATOM      5  C   UNL     1       2.429   4.508  19.269  0.00  0.00    +0.000 A 
ATOM      6  N   UNL     1       1.916   3.612  20.200  0.00  0.00    +0.000 N 
ATOM      7  C   UNL     1       0.553   3.803  20.647  0.00  0.00    +0.000 C 
ATOM      8  N   UNL     1       2.045   5.808  19.284  0.00  0.00    +0.000 NA
ATOM      9  C   UNL     1       2.587   6.686  18.402  0.00  0.00    +0.000 A 
ATOM     10  N   UNL     1       2.169   8.044  18.522  0.00  0.00    +0.000 N 
ATOM     11  C   UNL     1       1.343   8.579  19.480  0.00  0.00    +0.000 A 
ATOM     12  C   UNL     1       1.356   9.930  19.233  0.00  0.00    +0.000 A 
ATOM     13  N   UNL     1       2.093  10.176  18.104  0.00  0.00    +0.000 NA
ATOM     14  N   UNL     1       2.591   9.022  17.677  0.00  0.00    +0.000 NA
ATOM     15  N   UNL     1       3.501   6.396  17.447  0.00  0.00    +0.000 NA
ATOM     16  C   UNL     1       3.887   5.117  17.484  0.00  0.00    +0.000 A 
ATOM     17  H   UNL     1       2.180   2.655  19.974  0.00  0.00    +0.000 HD
ENDROOT
BRANCH  12  18
ATOM     18  C   UNL     1       0.754  10.954  20.065  0.00  0.00    +0.000 A 
ATOM     19  C   UNL     1       1.172  12.277  19.970  0.00  0.00    +0.000 A 
ATOM     20  C   UNL     1       0.632  13.215  20.847  0.00  0.00    +0.000 A 
ATOM     21  C   UNL     1      -0.303  12.805  21.790  0.00  0.00    +0.000 A 
ATOM     22  C   UNL     1      -0.669  11.469  21.812  0.00  0.00    +0.000 A 
ATOM     23  N   UNL     1      -0.170  10.538  20.970  0.00  0.00    +0.000 NA
ENDBRANCH  12  18
BRANCH   1  26
ATOM     24  C   UNL     1       5.981   4.945  13.471  0.00  0.00    +0.000 C 
ATOM     25  O   UNL     1       5.150   5.397  14.547  0.00  0.00    +0.000 OA
ATOM     26  C   UNL     1       5.790   5.097  15.799  0.00  0.00    +0.000 C 
ATOM     27  C   UNL     1       6.997   4.214  15.495  0.00  0.00    +0.000 C 
ATOM     28  C   UNL     1       7.344   4.614  14.070  0.00  0.00    +0.000 C 
BRANCH  24  30
ATOM     29  N   UNL     1       6.336   2.847  12.265  0.00  0.00    +0.000 N 
ATOM     30  C   UNL     1       5.399   3.765  12.677  0.00  0.00    +0.000 C 
ATOM     31  O   UNL     1       4.191   3.620  12.513  0.00  0.00    +0.000 OA
ATOM     32  H   UNL     1       7.315   3.135  12.242  0.00  0.00    +0.000 HD
BRANCH  29  34
ATOM     33  C   UNL     1       7.044   1.111  10.687  0.00  0.00    +0.000 C 
ATOM     34  C   UNL     1       5.963   1.599  11.631  0.00  0.00    +0.000 C 
ENDBRANCH  29  34
ENDBRANCH  24  30
BRANCH  27  35
ATOM     35  O   UNL     1       8.083   4.477  16.389  0.00  0.00    +0.000 OA
ATOM     36  H   UNL     1       8.717   3.735  16.270  0.00  0.00    +0.000 HD
ENDBRANCH  27  35
BRANCH  28  37
ATOM     37  O   UNL     1       8.208   5.768  14.136  0.00  0.00    +0.000 OA
ATOM     38  H   UNL     1       8.342   6.016  15.070  0.00  0.00    +0.000 HD
ENDBRANCH  28  37
ENDBRANCH   1  26
TORSDOF 6
ENDMDL
MODEL 7
REMARK VINA RESULT:      -6.8      5.447      8.627
REMARK  Name = 
REMARK  8 active torsions:
REMARK  status: ('A' for Active; 'I' for Inactive)
REMARK    1  A    between atoms: C_1  and  C_2
REMARK    2  A    between atoms: C_2  and  N_3
REMARK    3  A    between atoms: C_4  and  C_6
REMARK    4  A    between atoms: C_8  and  N_9
REMARK    5  A    between atoms: N_14  and  C_15
REMARK    6  A    between atoms: C_20  and  C_21
REMARK    7  A    between atoms: C_31  and  O_32
REMARK    8  A    between atoms: C_33  and  O_34
REMARK                            x       y       z     vdW  Elec       q    Type
REMARK                         _______ _______ _______ _____ _____    ______ ____
ROOT
ATOM      1  N   UNL     1      -3.895  11.264  18.466  0.00  0.00    +0.000 N 
ATOM      2  C   UNL     1      -3.873  10.211  17.581  0.00  0.00    +0.000 A 
ATOM      3  N   UNL     1      -2.654   9.764  17.374  0.00  0.00    +0.000 NA
ATOM      4  C   UNL     1      -1.847  10.569  18.152  0.00  0.00    +0.000 A 
ATOM      5  C   UNL     1      -0.453  10.620  18.324  0.00  0.00    +0.000 A 
ATOM      6  N   UNL     1       0.405   9.785  17.617  0.00  0.00    +0.000 N 
ATOM      7  C   UNL     1       1.649   9.398  18.249  0.00  0.00    +0.000 C 
ATOM      8  N   UNL     1       0.043  11.566  19.159  0.00  0.00    +0.000 NA
ATOM      9  C   UNL     1      -0.801  12.408  19.808  0.00  0.00    +0.000 A 
ATOM     10  N   UNL     1      -0.194  13.408  20.623  0.00  0.00    +0.000 N 
ATOM     11  C   UNL     1       1.148  13.667  20.762  0.00  0.00    +0.000 A 
ATOM     12  C   UNL     1       1.203  14.793  21.548  0.00  0.00    +0.000 A 
ATOM     13  N   UNL     1      -0.066  15.133  21.940  0.00  0.00    +0.000 NA
ATOM     14  N   UNL     1      -0.915  14.288  21.368  0.00  0.00    +0.000 NA
ATOM     15  N   UNL     1      -2.151  12.402  19.728  0.00  0.00    +0.000 NA
ATOM     16  C   UNL     1      -2.606  11.485  18.868  0.00  0.00    +0.000 A 
ATOM     17  H   UNL     1      -0.107   9.038  17.152  0.00  0.00    +0.000 HD
ENDROOT
BRANCH  12  18
ATOM     18  C   UNL     1       2.397  15.555  21.863  0.00  0.00    +0.000 A 
ATOM     19  C   UNL     1       3.311  15.877  20.865  0.00  0.00    +0.000 A 
ATOM     20  C   UNL     1       4.486  16.532  21.222  0.00  0.00    +0.000 A 
ATOM     21  C   UNL     1       4.714  16.843  22.557  0.00  0.00    +0.000 A 
ATOM     22  C   UNL     1       3.749  16.492  23.485  0.00  0.00    +0.000 A 
ATOM     23  N   UNL     1       2.595  15.863  23.170  0.00  0.00    +0.000 NA
ENDBRANCH  12  18
BRANCH   1  26
ATOM     24  C   UNL     1      -5.794  13.090  20.749  0.00  0.00    +0.000 C 
ATOM     25  O   UNL     1      -4.795  13.084  19.721  0.00  0.00    +0.000 OA
ATOM     26  C   UNL     1      -5.087  12.035  18.783  0.00  0.00    +0.000 C 
ATOM     27  C   UNL     1      -6.217  11.195  19.373  0.00  0.00    +0.000 C 
ATOM     28  C   UNL     1      -6.930  12.193  20.270  0.00  0.00    +0.000 C 
BRANCH  24  30
ATOM     29  N   UNL     1      -3.909  12.541  22.208  0.00  0.00    +0.000 N 
ATOM     30  C   UNL     1      -5.276  12.674  22.134  0.00  0.00    +0.000 C 
ATOM     31  O   UNL     1      -6.020  12.564  23.105  0.00  0.00    +0.000 OA
ATOM     32  H   UNL     1      -3.388  12.432  21.337  0.00  0.00    +0.000 HD
BRANCH  29  34
ATOM     33  C   UNL     1      -1.937  11.529  23.252  0.00  0.00    +0.000 C 
ATOM     34  C   UNL     1      -3.227  12.297  23.462  0.00  0.00    +0.000 C 
ENDBRANCH  29  34
ENDBRANCH  24  30
BRANCH  27  35
ATOM     35  O   UNL     1      -7.089  10.693  18.355  0.00  0.00    +0.000 OA
ATOM     36  H   UNL     1      -7.872  11.286  18.353  0.00  0.00    +0.000 HD
ENDBRANCH  27  35
BRANCH  28  37
ATOM     37  O   UNL     1      -7.888  12.908  19.460  0.00  0.00    +0.000 OA
ATOM     38  H   UNL     1      -8.709  13.034  19.971  0.00  0.00    +0.000 HD
ENDBRANCH  28  37
ENDBRANCH   1  26
TORSDOF 6
ENDMDL
MODEL 8
REMARK VINA RESULT:      -6.8      3.275      5.814
REMARK  Name = 
REMARK  8 active torsions:
REMARK  status: ('A' for Active; 'I' for Inactive)
REMARK    1  A    between atoms: C_1  and  C_2
REMARK    2  A    between atoms: C_2  and  N_3
REMARK    3  A    between atoms: C_4  and  C_6
REMARK    4  A    between atoms: C_8  and  N_9
REMARK    5  A    between atoms: N_14  and  C_15
REMARK    6  A    between atoms: C_20  and  C_21
REMARK    7  A    between atoms: C_31  and  O_32
REMARK    8  A    between atoms: C_33  and  O_34
REMARK                            x       y       z     vdW  Elec       q    Type
REMARK                         _______ _______ _______ _____ _____    ______ ____
ROOT
ATOM      1  N   UNL     1       5.076   4.336  17.771  0.00  0.00    +0.000 N 
ATOM      2  C   UNL     1       5.334   3.037  18.144  0.00  0.00    +0.000 A 
ATOM      3  N   UNL     1       4.548   2.637  19.119  0.00  0.00    +0.000 NA
ATOM      4  C   UNL     1       3.751   3.728  19.400  0.00  0.00    +0.000 A 
ATOM      5  C   UNL     1       2.752   3.942  20.365  0.00  0.00    +0.000 A 
ATOM      6  N   UNL     1       2.419   2.973  21.304  0.00  0.00    +0.000 N 
ATOM      7  C   UNL     1       1.056   2.937  21.789  0.00  0.00    +0.000 C 
ATOM      8  N   UNL     1       2.161   5.161  20.398  0.00  0.00    +0.000 NA
ATOM      9  C   UNL     1       2.527   6.118  19.507  0.00  0.00    +0.000 A 
ATOM     10  N   UNL     1       1.896   7.388  19.646  0.00  0.00    +0.000 N 
ATOM     11  C   UNL     1       1.021   7.779  20.630  0.00  0.00    +0.000 A 
ATOM     12  C   UNL     1       0.805   9.115  20.391  0.00  0.00    +0.000 A 
ATOM     13  N   UNL     1       1.461   9.480  19.244  0.00  0.00    +0.000 NA
ATOM     14  N   UNL     1       2.128   8.424  18.796  0.00  0.00    +0.000 NA
ATOM     15  N   UNL     1       3.449   5.983  18.526  0.00  0.00    +0.000 NA
ATOM     16  C   UNL     1       4.040   4.784  18.545  0.00  0.00    +0.000 A 
ATOM     17  H   UNL     1       2.829   2.072  21.065  0.00  0.00    +0.000 HD
ENDROOT
BRANCH  12  18
ATOM     18  C   UNL     1       0.067  10.025  21.246  0.00  0.00    +0.000 A 
ATOM     19  C   UNL     1      -0.184  11.331  20.836  0.00  0.00    +0.000 A 
ATOM     20  C   UNL     1      -0.818  12.199  21.720  0.00  0.00    +0.000 A 
ATOM     21  C   UNL     1      -1.179  11.741  22.982  0.00  0.00    +0.000 A 
ATOM     22  C   UNL     1      -0.898  10.425  23.307  0.00  0.00    +0.000 A 
ATOM     23  N   UNL     1      -0.291   9.557  22.469  0.00  0.00    +0.000 NA
ENDBRANCH  12  18
BRANCH   1  26
ATOM     24  C   UNL     1       5.879   5.107  14.467  0.00  0.00    +0.000 C 
ATOM     25  O   UNL     1       5.106   5.406  15.637  0.00  0.00    +0.000 OA
ATOM     26  C   UNL     1       5.873   5.079  16.808  0.00  0.00    +0.000 C 
ATOM     27  C   UNL     1       7.121   4.332  16.343  0.00  0.00    +0.000 C 
ATOM     28  C   UNL     1       7.310   4.860  14.931  0.00  0.00    +0.000 C 
BRANCH  24  30
ATOM     29  N   UNL     1       6.084   3.643  12.519  0.00  0.00    +0.000 N 
ATOM     30  C   UNL     1       5.334   3.938  13.633  0.00  0.00    +0.000 C 
ATOM     31  O   UNL     1       4.365   3.273  13.992  0.00  0.00    +0.000 OA
ATOM     32  H   UNL     1       6.728   4.354  12.170  0.00  0.00    +0.000 HD
BRANCH  29  34
ATOM     33  C   UNL     1       7.090   1.826  11.218  0.00  0.00    +0.000 C 
ATOM     34  C   UNL     1       5.810   2.487  11.691  0.00  0.00    +0.000 C 
ENDBRANCH  29  34
ENDBRANCH  24  30
BRANCH  27  35
ATOM     35  O   UNL     1       8.252   4.629  17.168  0.00  0.00    +0.000 OA
ATOM     36  H   UNL     1       8.009   4.340  18.074  0.00  0.00    +0.000 HD
ENDBRANCH  27  35
BRANCH  28  37
ATOM     37  O   UNL     1       8.076   6.080  15.017  0.00  0.00    +0.000 OA
ATOM     38  H   UNL     1       8.036   6.544  14.160  0.00  0.00    +0.000 HD
ENDBRANCH  28  37
ENDBRANCH   1  26
TORSDOF 6
ENDMDL
MODEL 9
REMARK VINA RESULT:      -6.8      5.136      9.986
REMARK  Name = 
REMARK  8 active torsions:
REMARK  status: ('A' for Active; 'I' for Inactive)
REMARK    1  A    between atoms: C_1  and  C_2
REMARK    2  A    between atoms: C_2  and  N_3
REMARK    3  A    between atoms: C_4  and  C_6
REMARK    4  A    between atoms: C_8  and  N_9
REMARK    5  A    between atoms: N_14  and  C_15
REMARK    6  A    between atoms: C_20  and  C_21
REMARK    7  A    between atoms: C_31  and  O_32
REMARK    8  A    between atoms: C_33  and  O_34
REMARK                            x       y       z     vdW  Elec       q    Type
REMARK                         _______ _______ _______ _____ _____    ______ ____
ROOT
ATOM      1  N   UNL     1      -3.272  15.748  22.368  0.00  0.00    +0.000 N 
ATOM      2  C   UNL     1      -4.495  16.206  21.935  0.00  0.00    +0.000 A 
ATOM      3  N   UNL     1      -5.047  15.392  21.062  0.00  0.00    +0.000 NA
ATOM      4  C   UNL     1      -4.137  14.365  20.914  0.00  0.00    +0.000 A 
ATOM      5  C   UNL     1      -4.131  13.225  20.093  0.00  0.00    +0.000 A 
ATOM      6  N   UNL     1      -5.150  12.968  19.183  0.00  0.00    +0.000 N 
ATOM      7  C   UNL     1      -5.458  11.587  18.881  0.00  0.00    +0.000 C 
ATOM      8  N   UNL     1      -3.053  12.404  20.166  0.00  0.00    +0.000 NA
ATOM      9  C   UNL     1      -2.040  12.689  21.023  0.00  0.00    +0.000 A 
ATOM     10  N   UNL     1      -0.921  11.807  20.996  0.00  0.00    +0.000 N 
ATOM     11  C   UNL     1      -0.716  10.749  20.144  0.00  0.00    +0.000 A 
ATOM     12  C   UNL     1       0.551  10.307  20.440  0.00  0.00    +0.000 A 
ATOM     13  N   UNL     1       1.044  11.023  21.500  0.00  0.00    +0.000 NA
ATOM     14  N   UNL     1       0.143  11.940  21.832  0.00  0.00    +0.000 NA
ATOM     15  N   UNL     1      -1.985  13.742  21.871  0.00  0.00    +0.000 NA
ATOM     16  C   UNL     1      -3.042  14.551  21.747  0.00  0.00    +0.000 A 
ATOM     17  H   UNL     1      -5.951  13.576  19.346  0.00  0.00    +0.000 HD
ENDROOT
BRANCH  12  18
ATOM     18  C   UNL     1       1.293   9.296  19.711  0.00  0.00    +0.000 A 
ATOM     19  C   UNL     1       1.565   9.460  18.356  0.00  0.00    +0.000 A 
ATOM     20  C   UNL     1       2.202   8.429  17.672  0.00  0.00    +0.000 A 
ATOM     21  C   UNL     1       2.545   7.268  18.356  0.00  0.00    +0.000 A 
ATOM     22  C   UNL     1       2.243   7.190  19.705  0.00  0.00    +0.000 A 
ATOM     23  N   UNL     1       1.634   8.175  20.399  0.00  0.00    +0.000 NA
ENDBRANCH  12  18
BRANCH   1  26
ATOM     24  C   UNL     1      -0.071  16.874  23.169  0.00  0.00    +0.000 C 
ATOM     25  O   UNL     1      -1.311  17.105  22.488  0.00  0.00    +0.000 OA
ATOM     26  C   UNL     1      -2.381  16.503  23.235  0.00  0.00    +0.000 C 
ATOM     27  C   UNL     1      -1.750  15.661  24.342  0.00  0.00    +0.000 C 
ATOM     28  C   UNL     1      -0.418  16.359  24.562  0.00  0.00    +0.000 C 
BRANCH  24  30
ATOM     29  N   UNL     1       0.498  15.622  21.146  0.00  0.00    +0.000 N 
ATOM     30  C   UNL     1       0.889  15.931  22.428  0.00  0.00    +0.000 C 
ATOM     31  O   UNL     1       1.956  15.568  22.916  0.00  0.00    +0.000 OA
ATOM     32  H   UNL     1      -0.479  15.772  20.892  0.00  0.00    +0.000 HD
BRANCH  29  34
ATOM     33  C   UNL     1       0.570  14.380  19.036  0.00  0.00    +0.000 C 
ATOM     34  C   UNL     1       1.343  14.866  20.245  0.00  0.00    +0.000 C 
ENDBRANCH  29  34
ENDBRANCH  24  30
BRANCH  27  35
ATOM     35  O   UNL     1      -2.545  15.668  25.531  0.00  0.00    +0.000 OA
ATOM     36  H   UNL     1      -2.025  15.180  26.207  0.00  0.00    +0.000 HD
ENDBRANCH  27  35
BRANCH  28  37
ATOM     37  O   UNL     1      -0.633  17.431  25.504  0.00  0.00    +0.000 OA
ATOM     38  H   UNL     1      -0.386  17.125  26.397  0.00  0.00    +0.000 HD
ENDBRANCH  28  37
ENDBRANCH   1  26
TORSDOF 6
ENDMDL
