MODEL 1
REMARK VINA RESULT:      -7.4      0.000      0.000
REMARK  Name = 
REMARK  4 active torsions:
REMARK  status: ('A' for Active; 'I' for Inactive)
REMARK    1  A    between atoms: C_1  and  O_2
REMARK    2  A    between atoms: O_2  and  C_3
REMARK    3  A    between atoms: C_3  and  C_5
REMARK    4  A    between atoms: N_15  and  C_16
REMARK                            x       y       z     vdW  Elec       q    Type
REMARK                         _______ _______ _______ _____ _____    ______ ____
ROOT
ATOM      1  C   UNL     1       1.788   8.619  18.969  0.00  0.00    +0.000 A 
ATOM      2  N   UNL     1       1.215   8.018  19.993  0.00  0.00    +0.000 NA
ATOM      3  C   UNL     1       1.738   6.740  20.150  0.00  0.00    +0.000 A 
ATOM      4  C   UNL     1       1.340   5.800  21.115  0.00  0.00    +0.000 A 
ATOM      5  C   UNL     1       1.930   4.529  21.131  0.00  0.00    +0.000 A 
ATOM      6  C   UNL     1       2.915   4.158  20.234  0.00  0.00    +0.000 A 
ATOM      7  N   UNL     1       3.400   2.917  20.315  0.00  0.00    +0.000 NA
ATOM      8  C   UNL     1       4.348   2.578  19.435  0.00  0.00    +0.000 A 
ATOM      9  N   UNL     1       4.853   3.365  18.484  0.00  0.00    +0.000 NA
ATOM     10  C   UNL     1       4.364   4.617  18.395  0.00  0.00    +0.000 A 
ATOM     11  N   UNL     1       4.973   5.476  17.450  0.00  0.00    +0.000 N 
ATOM     12  C   UNL     1       3.363   5.081  19.274  0.00  0.00    +0.000 A 
ATOM     13  C   UNL     1       2.740   6.375  19.245  0.00  0.00    +0.000 A 
ATOM     14  S   UNL     1       2.993   7.703  18.174  0.00  0.00    +0.000 S 
ATOM     15  H   UNL     1       4.404   6.301  17.272  0.00  0.00    +0.000 HD
ENDROOT
BRANCH  11  16
ATOM     16  C   UNL     1       5.575   5.076  16.229  0.00  0.00    +0.000 A 
ATOM     17  C   UNL     1       4.869   4.277  15.315  0.00  0.00    +0.000 A 
ATOM     18  C   UNL     1       5.419   3.950  14.077  0.00  0.00    +0.000 A 
ATOM     19  C   UNL     1       6.672   4.439  13.736  0.00  0.00    +0.000 A 
ATOM     20  F   UNL     1       7.194   4.128  12.544  0.00  0.00    +0.000 F 
ATOM     21  C   UNL     1       7.383   5.258  14.602  0.00  0.00    +0.000 A 
ATOM     22  C   UNL     1       6.830   5.587  15.840  0.00  0.00    +0.000 A 
ATOM     23 CL   UNL     1       7.731   6.631  16.883  0.00  0.00    +0.000 Cl
ENDBRANCH  11  16
BRANCH   1  24
ATOM     24  C   UNL     1       1.480   9.950  18.475  0.00  0.00    +0.000 C 
ATOM     25  N   UNL     1       2.046  10.457  17.428  0.00  0.00    +0.000 NA
ATOM     26  H   UNL     1       1.706  11.392  17.225  0.00  0.00    +0.000 HD
BRANCH  24  28
ATOM     27  C   UNL     1      -0.747  10.841  18.649  0.00  0.00    +0.000 C 
ATOM     28  O   UNL     1       0.541  10.587  19.221  0.00  0.00    +0.000 OA
ENDBRANCH  24  28
ENDBRANCH   1  24
TORSDOF 3
ENDMDL
MODEL 2
REMARK VINA RESULT:      -7.0      1.404      1.640
REMARK  Name = 
REMARK  4 active torsions:
REMARK  status: ('A' for Active; 'I' for Inactive)
REMARK    1  A    between atoms: C_1  and  O_2
REMARK    2  A    between atoms: O_2  and  C_3
REMARK    3  A    between atoms: C_3  and  C_5
REMARK    4  A    between atoms: N_15  and  C_16
REMARK                            x       y       z     vdW  Elec       q    Type
REMARK                         _______ _______ _______ _____ _____    ______ ____
ROOT
ATOM      1  C   UNL     1       1.758   7.225  20.055  0.00  0.00    +0.000 A 
ATOM      2  N   UNL     1       1.025   6.341  20.703  0.00  0.00    +0.000 NA
ATOM      3  C   UNL     1       1.440   5.053  20.386  0.00  0.00    +0.000 A 
ATOM      4  C   UNL     1       0.866   3.862  20.862  0.00  0.00    +0.000 A 
ATOM      5  C   UNL     1       1.365   2.627  20.425  0.00  0.00    +0.000 A 
ATOM      6  C   UNL     1       2.426   2.528  19.544  0.00  0.00    +0.000 A 
ATOM      7  N   UNL     1       2.815   1.307  19.168  0.00  0.00    +0.000 NA
ATOM      8  C   UNL     1       3.840   1.233  18.313  0.00  0.00    +0.000 A 
ATOM      9  N   UNL     1       4.509   2.267  17.800  0.00  0.00    +0.000 NA
ATOM     10  C   UNL     1       4.118   3.502  18.171  0.00  0.00    +0.000 A 
ATOM     11  N   UNL     1       4.893   4.587  17.700  0.00  0.00    +0.000 N 
ATOM     12  C   UNL     1       3.048   3.695  19.071  0.00  0.00    +0.000 A 
ATOM     13  C   UNL     1       2.519   4.959  19.502  0.00  0.00    +0.000 A 
ATOM     14  S   UNL     1       2.989   6.561  19.070  0.00  0.00    +0.000 S 
ATOM     15  H   UNL     1       4.406   5.473  17.814  0.00  0.00    +0.000 HD
ENDROOT
BRANCH  11  16
ATOM     16  C   UNL     1       5.613   4.627  16.478  0.00  0.00    +0.000 A 
ATOM     17  C   UNL     1       5.045   4.117  15.300  0.00  0.00    +0.000 A 
ATOM     18  C   UNL     1       5.708   4.230  14.079  0.00  0.00    +0.000 A 
ATOM     19  C   UNL     1       6.937   4.871  14.026  0.00  0.00    +0.000 A 
ATOM     20  F   UNL     1       7.569   4.982  12.851  0.00  0.00    +0.000 F 
ATOM     21  C   UNL     1       7.512   5.414  15.167  0.00  0.00    +0.000 A 
ATOM     22  C   UNL     1       6.845   5.304  16.387  0.00  0.00    +0.000 A 
ATOM     23 CL   UNL     1       7.579   6.017  17.782  0.00  0.00    +0.000 Cl
ENDBRANCH  11  16
BRANCH   1  24
ATOM     24  C   UNL     1       1.600   8.668  20.102  0.00  0.00    +0.000 C 
ATOM     25  N   UNL     1       1.333   9.307  21.195  0.00  0.00    +0.000 NA
ATOM     26  H   UNL     1       1.263  10.309  21.044  0.00  0.00    +0.000 HD
BRANCH  24  28
ATOM     27  C   UNL     1       0.617   9.742  18.188  0.00  0.00    +0.000 C 
ATOM     28  O   UNL     1       1.768   9.259  18.891  0.00  0.00    +0.000 OA
ENDBRANCH  24  28
ENDBRANCH   1  24
TORSDOF 3
ENDMDL
MODEL 3
REMARK VINA RESULT:      -7.0      3.904      6.865
REMARK  Name = 
REMARK  4 active torsions:
REMARK  status: ('A' for Active; 'I' for Inactive)
REMARK    1  A    between atoms: C_1  and  O_2
REMARK    2  A    between atoms: O_2  and  C_3
REMARK    3  A    between atoms: C_3  and  C_5
REMARK    4  A    between atoms: N_15  and  C_16
REMARK                            x       y       z     vdW  Elec       q    Type
REMARK                         _______ _______ _______ _____ _____    ______ ____
ROOT
ATOM      1  C   UNL     1       6.239   5.630  17.382  0.00  0.00    +0.000 A 
ATOM      2  N   UNL     1       6.311   4.332  17.603  0.00  0.00    +0.000 NA
ATOM      3  C   UNL     1       5.215   3.915  18.348  0.00  0.00    +0.000 A 
ATOM      4  C   UNL     1       4.976   2.606  18.800  0.00  0.00    +0.000 A 
ATOM      5  C   UNL     1       3.844   2.335  19.580  0.00  0.00    +0.000 A 
ATOM      6  C   UNL     1       2.926   3.314  19.916  0.00  0.00    +0.000 A 
ATOM      7  N   UNL     1       1.890   2.963  20.682  0.00  0.00    +0.000 NA
ATOM      8  C   UNL     1       1.017   3.925  20.999  0.00  0.00    +0.000 A 
ATOM      9  N   UNL     1       1.087   5.202  20.622  0.00  0.00    +0.000 NA
ATOM     10  C   UNL     1       2.132   5.564  19.853  0.00  0.00    +0.000 A 
ATOM     11  N   UNL     1       2.146   6.895  19.376  0.00  0.00    +0.000 N 
ATOM     12  C   UNL     1       3.112   4.629  19.457  0.00  0.00    +0.000 A 
ATOM     13  C   UNL     1       4.286   4.907  18.678  0.00  0.00    +0.000 A 
ATOM     14  S   UNL     1       4.852   6.398  18.022  0.00  0.00    +0.000 S 
ATOM     15  H   UNL     1       3.063   7.156  19.019  0.00  0.00    +0.000 HD
ENDROOT
BRANCH  11  16
ATOM     16  C   UNL     1       1.586   8.020  20.033  0.00  0.00    +0.000 A 
ATOM     17  C   UNL     1       1.482   8.048  21.433  0.00  0.00    +0.000 A 
ATOM     18  C   UNL     1       1.013   9.182  22.093  0.00  0.00    +0.000 A 
ATOM     19  C   UNL     1       0.663  10.305  21.358  0.00  0.00    +0.000 A 
ATOM     20  F   UNL     1       0.218  11.395  21.995  0.00  0.00    +0.000 F 
ATOM     21  C   UNL     1       0.784  10.323  19.974  0.00  0.00    +0.000 A 
ATOM     22  C   UNL     1       1.257   9.188  19.316  0.00  0.00    +0.000 A 
ATOM     23 CL   UNL     1       1.420   9.255  17.595  0.00  0.00    +0.000 Cl
ENDBRANCH  11  16
BRANCH   1  24
ATOM     24  C   UNL     1       7.219   6.433  16.670  0.00  0.00    +0.000 C 
ATOM     25  N   UNL     1       7.619   7.588  17.093  0.00  0.00    +0.000 NA
ATOM     26  H   UNL     1       8.308   8.004  16.474  0.00  0.00    +0.000 HD
BRANCH  24  28
ATOM     27  C   UNL     1       6.733   5.122  14.713  0.00  0.00    +0.000 C 
ATOM     28  O   UNL     1       7.664   5.839  15.532  0.00  0.00    +0.000 OA
ENDBRANCH  24  28
ENDBRANCH   1  24
TORSDOF 3
ENDMDL
MODEL 4
REMARK VINA RESULT:      -7.0      3.802      6.760
REMARK  Name = 
REMARK  4 active torsions:
REMARK  status: ('A' for Active; 'I' for Inactive)
REMARK    1  A    between atoms: C_1  and  O_2
REMARK    2  A    between atoms: O_2  and  C_3
REMARK    3  A    between atoms: C_3  and  C_5
REMARK    4  A    between atoms: N_15  and  C_16
REMARK                            x       y       z     vdW  Elec       q    Type
REMARK                         _______ _______ _______ _____ _____    ______ ____
ROOT
ATOM      1  C   UNL     1       5.960   5.402  16.952  0.00  0.00    +0.000 A 
ATOM      2  N   UNL     1       5.979   4.095  17.123  0.00  0.00    +0.000 NA
ATOM      3  C   UNL     1       4.904   3.702  17.912  0.00  0.00    +0.000 A 
ATOM      4  C   UNL     1       4.626   2.389  18.329  0.00  0.00    +0.000 A 
ATOM      5  C   UNL     1       3.524   2.144  19.160  0.00  0.00    +0.000 A 
ATOM      6  C   UNL     1       2.674   3.151  19.580  0.00  0.00    +0.000 A 
ATOM      7  N   UNL     1       1.664   2.821  20.389  0.00  0.00    +0.000 NA
ATOM      8  C   UNL     1       0.858   3.811  20.786  0.00  0.00    +0.000 A 
ATOM      9  N   UNL     1       0.970   5.097  20.451  0.00  0.00    +0.000 NA
ATOM     10  C   UNL     1       1.990   5.437  19.639  0.00  0.00    +0.000 A 
ATOM     11  N   UNL     1       2.045   6.783  19.209  0.00  0.00    +0.000 N 
ATOM     12  C   UNL     1       2.900   4.472  19.157  0.00  0.00    +0.000 A 
ATOM     13  C   UNL     1       4.044   4.724  18.326  0.00  0.00    +0.000 A 
ATOM     14  S   UNL     1       4.648   6.210  17.693  0.00  0.00    +0.000 S 
ATOM     15  H   UNL     1       2.953   7.013  18.813  0.00  0.00    +0.000 HD
ENDROOT
BRANCH  11  16
ATOM     16  C   UNL     1       1.576   7.908  19.935  0.00  0.00    +0.000 A 
ATOM     17  C   UNL     1       1.560   7.893  21.339  0.00  0.00    +0.000 A 
ATOM     18  C   UNL     1       1.183   9.023  22.063  0.00  0.00    +0.000 A 
ATOM     19  C   UNL     1       0.838  10.184  21.385  0.00  0.00    +0.000 A 
ATOM     20  F   UNL     1       0.481  11.269  22.083  0.00  0.00    +0.000 F 
ATOM     21  C   UNL     1       0.874  10.243  19.999  0.00  0.00    +0.000 A 
ATOM     22  C   UNL     1       1.255   9.112  19.276  0.00  0.00    +0.000 A 
ATOM     23 CL   UNL     1       1.315   9.230  17.552  0.00  0.00    +0.000 Cl
ENDBRANCH  11  16
BRANCH   1  24
ATOM     24  C   UNL     1       6.939   6.184  16.217  0.00  0.00    +0.000 C 
ATOM     25  N   UNL     1       7.617   5.703  15.225  0.00  0.00    +0.000 NA
ATOM     26  H   UNL     1       8.251   6.390  14.827  0.00  0.00    +0.000 HD
BRANCH  24  28
ATOM     27  C   UNL     1       7.864   7.706  17.833  0.00  0.00    +0.000 C 
ATOM     28  O   UNL     1       7.055   7.456  16.678  0.00  0.00    +0.000 OA
ENDBRANCH  24  28
ENDBRANCH   1  24
TORSDOF 3
ENDMDL
MODEL 5
REMARK VINA RESULT:      -6.8      0.944      1.066
REMARK  Name = 
REMARK  4 active torsions:
REMARK  status: ('A' for Active; 'I' for Inactive)
REMARK    1  A    between atoms: C_1  and  O_2
REMARK    2  A    between atoms: O_2  and  C_3
REMARK    3  A    between atoms: C_3  and  C_5
REMARK    4  A    between atoms: N_15  and  C_16
REMARK                            x       y       z     vdW  Elec       q    Type
REMARK                         _______ _______ _______ _____ _____    ______ ____
ROOT
ATOM      1  C   UNL     1       1.807   8.734  18.687  0.00  0.00    +0.000 A 
ATOM      2  N   UNL     1       1.259   8.229  19.775  0.00  0.00    +0.000 NA
ATOM      3  C   UNL     1       1.761   6.956  20.015  0.00  0.00    +0.000 A 
ATOM      4  C   UNL     1       1.379   6.104  21.064  0.00  0.00    +0.000 A 
ATOM      5  C   UNL     1       1.943   4.824  21.161  0.00  0.00    +0.000 A 
ATOM      6  C   UNL     1       2.888   4.362  20.262  0.00  0.00    +0.000 A 
ATOM      7  N   UNL     1       3.350   3.120  20.424  0.00  0.00    +0.000 NA
ATOM      8  C   UNL     1       4.258   2.691  19.542  0.00  0.00    +0.000 A 
ATOM      9  N   UNL     1       4.745   3.389  18.515  0.00  0.00    +0.000 NA
ATOM     10  C   UNL     1       4.278   4.642  18.343  0.00  0.00    +0.000 A 
ATOM     11  N   UNL     1       4.870   5.410  17.313  0.00  0.00    +0.000 N 
ATOM     12  C   UNL     1       3.319   5.196  19.217  0.00  0.00    +0.000 A 
ATOM     13  C   UNL     1       2.722   6.497  19.107  0.00  0.00    +0.000 A 
ATOM     14  S   UNL     1       2.963   7.731  17.926  0.00  0.00    +0.000 S 
ATOM     15  H   UNL     1       4.312   6.231  17.090  0.00  0.00    +0.000 HD
ENDROOT
BRANCH  11  16
ATOM     16  C   UNL     1       5.419   4.901  16.107  0.00  0.00    +0.000 A 
ATOM     17  C   UNL     1       4.624   4.788  14.955  0.00  0.00    +0.000 A 
ATOM     18  C   UNL     1       5.175   4.371  13.745  0.00  0.00    +0.000 A 
ATOM     19  C   UNL     1       6.531   4.084  13.674  0.00  0.00    +0.000 A 
ATOM     20  F   UNL     1       7.057   3.689  12.509  0.00  0.00    +0.000 F 
ATOM     21  C   UNL     1       7.351   4.216  14.786  0.00  0.00    +0.000 A 
ATOM     22  C   UNL     1       6.799   4.637  15.996  0.00  0.00    +0.000 A 
ATOM     23 CL   UNL     1       7.855   4.817  17.354  0.00  0.00    +0.000 Cl
ENDBRANCH  11  16
BRANCH   1  24
ATOM     24  C   UNL     1       1.507  10.029  18.100  0.00  0.00    +0.000 C 
ATOM     25  N   UNL     1       0.308  10.391  17.777  0.00  0.00    +0.000 NA
ATOM     26  H   UNL     1       0.284  11.328  17.385  0.00  0.00    +0.000 HD
BRANCH  24  28
ATOM     27  C   UNL     1       2.495  12.222  18.107  0.00  0.00    +0.000 C 
ATOM     28  O   UNL     1       2.610  10.804  17.937  0.00  0.00    +0.000 OA
ENDBRANCH  24  28
ENDBRANCH   1  24
TORSDOF 3
ENDMDL
MODEL 6
REMARK VINA RESULT:      -6.7      7.912     10.097
REMARK  Name = 
REMARK  4 active torsions:
REMARK  status: ('A' for Active; 'I' for Inactive)
REMARK    1  A    between atoms: C_1  and  O_2
REMARK    2  A    between atoms: O_2  and  C_3
REMARK    3  A    between atoms: C_3  and  C_5
REMARK    4  A    between atoms: N_15  and  C_16
REMARK                            x       y       z     vdW  Elec       q    Type
REMARK                         _______ _______ _______ _____ _____    ______ ____
ROOT
ATOM      1  C   UNL     1      -5.132  13.025  22.217  0.00  0.00    +0.000 A 
ATOM      2  N   UNL     1      -6.224  12.719  21.544  0.00  0.00    +0.000 NA
ATOM      3  C   UNL     1      -5.891  12.284  20.267  0.00  0.00    +0.000 A 
ATOM      4  C   UNL     1      -6.798  11.910  19.262  0.00  0.00    +0.000 A 
ATOM      5  C   UNL     1      -6.319  11.528  18.001  0.00  0.00    +0.000 A 
ATOM      6  C   UNL     1      -4.969  11.488  17.703  0.00  0.00    +0.000 A 
ATOM      7  N   UNL     1      -4.611  11.133  16.466  0.00  0.00    +0.000 NA
ATOM      8  C   UNL     1      -3.302  11.105  16.198  0.00  0.00    +0.000 A 
ATOM      9  N   UNL     1      -2.320  11.400  17.051  0.00  0.00    +0.000 NA
ATOM     10  C   UNL     1      -2.675  11.763  18.300  0.00  0.00    +0.000 A 
ATOM     11  N   UNL     1      -1.627  11.979  19.226  0.00  0.00    +0.000 N 
ATOM     12  C   UNL     1      -4.029  11.825  18.692  0.00  0.00    +0.000 A 
ATOM     13  C   UNL     1      -4.524  12.238  19.975  0.00  0.00    +0.000 A 
ATOM     14  S   UNL     1      -3.667  12.776  21.371  0.00  0.00    +0.000 S 
ATOM     15  H   UNL     1      -1.953  12.476  20.051  0.00  0.00    +0.000 HD
ENDROOT
BRANCH  11  16
ATOM     16  C   UNL     1      -0.322  12.439  18.913  0.00  0.00    +0.000 A 
ATOM     17  C   UNL     1      -0.042  13.814  18.873  0.00  0.00    +0.000 A 
ATOM     18  C   UNL     1       1.255  14.274  18.652  0.00  0.00    +0.000 A 
ATOM     19  C   UNL     1       2.285  13.359  18.488  0.00  0.00    +0.000 A 
ATOM     20  F   UNL     1       3.530  13.804  18.281  0.00  0.00    +0.000 F 
ATOM     21  C   UNL     1       2.049  11.993  18.554  0.00  0.00    +0.000 A 
ATOM     22  C   UNL     1       0.751  11.534  18.779  0.00  0.00    +0.000 A 
ATOM     23 CL   UNL     1       0.498   9.826  18.882  0.00  0.00    +0.000 Cl
ENDBRANCH  11  16
BRANCH   1  24
ATOM     24  C   UNL     1      -5.079  13.547  23.572  0.00  0.00    +0.000 C 
ATOM     25  N   UNL     1      -6.131  13.951  24.208  0.00  0.00    +0.000 NA
ATOM     26  H   UNL     1      -5.909  14.279  25.144  0.00  0.00    +0.000 HD
BRANCH  24  28
ATOM     27  C   UNL     1      -3.322  14.763  24.675  0.00  0.00    +0.000 C 
ATOM     28  O   UNL     1      -3.822  13.557  24.087  0.00  0.00    +0.000 OA
ENDBRANCH  24  28
ENDBRANCH   1  24
TORSDOF 3
ENDMDL
MODEL 7
REMARK VINA RESULT:      -6.7      3.988      6.398
REMARK  Name = 
REMARK  4 active torsions:
REMARK  status: ('A' for Active; 'I' for Inactive)
REMARK    1  A    between atoms: C_1  and  O_2
REMARK    2  A    between atoms: O_2  and  C_3
REMARK    3  A    between atoms: C_3  and  C_5
REMARK    4  A    between atoms: N_15  and  C_16
REMARK                            x       y       z     vdW  Elec       q    Type
REMARK                         _______ _______ _______ _____ _____    ______ ____
ROOT
ATOM      1  C   UNL     1      -2.398  11.186  18.007  0.00  0.00    +0.000 A 
ATOM      2  N   UNL     1      -2.824  11.904  19.027  0.00  0.00    +0.000 NA
ATOM      3  C   UNL     1      -2.098  11.588  20.169  0.00  0.00    +0.000 A 
ATOM      4  C   UNL     1      -2.300  12.129  21.450  0.00  0.00    +0.000 A 
ATOM      5  C   UNL     1      -1.516  11.686  22.523  0.00  0.00    +0.000 A 
ATOM      6  C   UNL     1      -0.523  10.734  22.372  0.00  0.00    +0.000 A 
ATOM      7  N   UNL     1       0.156  10.360  23.458  0.00  0.00    +0.000 NA
ATOM      8  C   UNL     1       1.107   9.436  23.290  0.00  0.00    +0.000 A 
ATOM      9  N   UNL     1       1.440   8.853  22.137  0.00  0.00    +0.000 NA
ATOM     10  C   UNL     1       0.755   9.223  21.038  0.00  0.00    +0.000 A 
ATOM     11  N   UNL     1       1.178   8.675  19.804  0.00  0.00    +0.000 N 
ATOM     12  C   UNL     1      -0.269  10.192  21.100  0.00  0.00    +0.000 A 
ATOM     13  C   UNL     1      -1.091  10.632  20.007  0.00  0.00    +0.000 A 
ATOM     14  S   UNL     1      -1.098  10.133  18.357  0.00  0.00    +0.000 S 
ATOM     15  H   UNL     1       0.478   8.804  19.077  0.00  0.00    +0.000 HD
ENDROOT
BRANCH  11  16
ATOM     16  C   UNL     1       1.783   7.405  19.623  0.00  0.00    +0.000 A 
ATOM     17  C   UNL     1       1.485   6.343  20.492  0.00  0.00    +0.000 A 
ATOM     18  C   UNL     1       2.006   5.070  20.272  0.00  0.00    +0.000 A 
ATOM     19  C   UNL     1       2.816   4.845  19.168  0.00  0.00    +0.000 A 
ATOM     20  F   UNL     1       3.312   3.620  18.956  0.00  0.00    +0.000 F 
ATOM     21  C   UNL     1       3.106   5.865  18.271  0.00  0.00    +0.000 A 
ATOM     22  C   UNL     1       2.580   7.138  18.491  0.00  0.00    +0.000 A 
ATOM     23 CL   UNL     1       2.939   8.377  17.339  0.00  0.00    +0.000 Cl
ENDBRANCH  11  16
BRANCH   1  24
ATOM     24  C   UNL     1      -2.935  11.213  16.658  0.00  0.00    +0.000 C 
ATOM     25  N   UNL     1      -3.930  11.966  16.315  0.00  0.00    +0.000 NA
ATOM     26  H   UNL     1      -4.169  11.860  15.333  0.00  0.00    +0.000 HD
BRANCH  24  28
ATOM     27  C   UNL     1      -2.880  10.055  14.550  0.00  0.00    +0.000 C 
ATOM     28  O   UNL     1      -2.281  10.376  15.811  0.00  0.00    +0.000 OA
ENDBRANCH  24  28
ENDBRANCH   1  24
TORSDOF 3
ENDMDL
MODEL 8
REMARK VINA RESULT:      -6.7      8.344     10.572
REMARK  Name = 
REMARK  4 active torsions:
REMARK  status: ('A' for Active; 'I' for Inactive)
REMARK    1  A    between atoms: C_1  and  O_2
REMARK    2  A    between atoms: O_2  and  C_3
REMARK    3  A    between atoms: C_3  and  C_5
REMARK    4  A    between atoms: N_15  and  C_16
REMARK                            x       y       z     vdW  Elec       q    Type
REMARK                         _______ _______ _______ _____ _____    ______ ____
ROOT
ATOM      1  C   UNL     1      -5.781  12.999  22.381  0.00  0.00    +0.000 A 
ATOM      2  N   UNL     1      -6.839  12.702  21.652  0.00  0.00    +0.000 NA
ATOM      3  C   UNL     1      -6.445  12.295  20.383  0.00  0.00    +0.000 A 
ATOM      4  C   UNL     1      -7.302  11.936  19.329  0.00  0.00    +0.000 A 
ATOM      5  C   UNL     1      -6.763  11.584  18.084  0.00  0.00    +0.000 A 
ATOM      6  C   UNL     1      -5.401  11.557  17.848  0.00  0.00    +0.000 A 
ATOM      7  N   UNL     1      -4.985  11.230  16.622  0.00  0.00    +0.000 NA
ATOM      8  C   UNL     1      -3.664  11.215  16.414  0.00  0.00    +0.000 A 
ATOM      9  N   UNL     1      -2.725  11.498  17.318  0.00  0.00    +0.000 NA
ATOM     10  C   UNL     1      -3.138  11.833  18.555  0.00  0.00    +0.000 A 
ATOM     11  N   UNL     1      -2.136  12.035  19.533  0.00  0.00    +0.000 N 
ATOM     12  C   UNL     1      -4.509  11.879  18.886  0.00  0.00    +0.000 A 
ATOM     13  C   UNL     1      -5.066  12.263  20.153  0.00  0.00    +0.000 A 
ATOM     14  S   UNL     1      -4.278  12.777  21.598  0.00  0.00    +0.000 S 
ATOM     15  H   UNL     1      -2.503  12.514  20.352  0.00  0.00    +0.000 HD
ENDROOT
BRANCH  11  16
ATOM     16  C   UNL     1      -0.821  12.509  19.290  0.00  0.00    +0.000 A 
ATOM     17  C   UNL     1      -0.570  13.886  19.175  0.00  0.00    +0.000 A 
ATOM     18  C   UNL     1       0.730  14.366  19.023  0.00  0.00    +0.000 A 
ATOM     19  C   UNL     1       1.790  13.471  19.004  0.00  0.00    +0.000 A 
ATOM     20  F   UNL     1       3.037  13.936  18.862  0.00  0.00    +0.000 F 
ATOM     21  C   UNL     1       1.580  12.106  19.147  0.00  0.00    +0.000 A 
ATOM     22  C   UNL     1       0.279  11.628  19.303  0.00  0.00    +0.000 A 
ATOM     23 CL   UNL     1       0.057   9.925  19.506  0.00  0.00    +0.000 Cl
ENDBRANCH  11  16
BRANCH   1  24
ATOM     24  C   UNL     1      -5.794  13.494  23.746  0.00  0.00    +0.000 C 
ATOM     25  N   UNL     1      -5.250  12.852  24.729  0.00  0.00    +0.000 NA
ATOM     26  H   UNL     1      -5.349  13.347  25.611  0.00  0.00    +0.000 HD
BRANCH  24  28
ATOM     27  C   UNL     1      -5.644  15.882  23.987  0.00  0.00    +0.000 C 
ATOM     28  O   UNL     1      -6.428  14.689  23.871  0.00  0.00    +0.000 OA
ENDBRANCH  24  28
ENDBRANCH   1  24
TORSDOF 3
ENDMDL
MODEL 9
REMARK VINA RESULT:      -6.5      5.443      9.431
REMARK  Name = 
REMARK  4 active torsions:
REMARK  status: ('A' for Active; 'I' for Inactive)
REMARK    1  A    between atoms: C_1  and  O_2
REMARK    2  A    between atoms: O_2  and  C_3
REMARK    3  A    between atoms: C_3  and  C_5
REMARK    4  A    between atoms: N_15  and  C_16
REMARK                            x       y       z     vdW  Elec       q    Type
REMARK                         _______ _______ _______ _____ _____    ______ ____
ROOT
ATOM      1  C   UNL     1       1.465   8.860  19.532  0.00  0.00    +0.000 A 
ATOM      2  N   UNL     1       1.026   8.381  20.680  0.00  0.00    +0.000 NA
ATOM      3  C   UNL     1       0.376   9.379  21.396  0.00  0.00    +0.000 A 
ATOM      4  C   UNL     1      -0.187   9.242  22.675  0.00  0.00    +0.000 A 
ATOM      5  C   UNL     1      -0.779  10.350  23.297  0.00  0.00    +0.000 A 
ATOM      6  C   UNL     1      -0.848  11.591  22.688  0.00  0.00    +0.000 A 
ATOM      7  N   UNL     1      -1.411  12.591  23.370  0.00  0.00    +0.000 NA
ATOM      8  C   UNL     1      -1.463  13.783  22.765  0.00  0.00    +0.000 A 
ATOM      9  N   UNL     1      -1.004  14.064  21.546  0.00  0.00    +0.000 NA
ATOM     10  C   UNL     1      -0.430  13.059  20.854  0.00  0.00    +0.000 A 
ATOM     11  N   UNL     1      -0.035  13.340  19.525  0.00  0.00    +0.000 N 
ATOM     12  C   UNL     1      -0.324  11.761  21.396  0.00  0.00    +0.000 A 
ATOM     13  C   UNL     1       0.303  10.629  20.772  0.00  0.00    +0.000 A 
ATOM     14  S   UNL     1       1.096  10.504  19.246  0.00  0.00    +0.000 S 
ATOM     15  H   UNL     1       0.596  12.628  19.164  0.00  0.00    +0.000 HD
ENDROOT
BRANCH  11  16
ATOM     16  C   UNL     1       0.385  14.602  19.032  0.00  0.00    +0.000 A 
ATOM     17  C   UNL     1      -0.559  15.584  18.692  0.00  0.00    +0.000 A 
ATOM     18  C   UNL     1      -0.156  16.856  18.289  0.00  0.00    +0.000 A 
ATOM     19  C   UNL     1       1.197  17.160  18.241  0.00  0.00    +0.000 A 
ATOM     20  F   UNL     1       1.581  18.383  17.858  0.00  0.00    +0.000 F 
ATOM     21  C   UNL     1       2.156  16.222  18.600  0.00  0.00    +0.000 A 
ATOM     22  C   UNL     1       1.750  14.951  19.008  0.00  0.00    +0.000 A 
ATOM     23 CL   UNL     1       2.971  13.818  19.475  0.00  0.00    +0.000 Cl
ENDBRANCH  11  16
BRANCH   1  24
ATOM     24  C   UNL     1       2.221   8.126  18.532  0.00  0.00    +0.000 C 
ATOM     25  N   UNL     1       2.449   8.591  17.346  0.00  0.00    +0.000 NA
ATOM     26  H   UNL     1       2.997   7.947  16.782  0.00  0.00    +0.000 HD
BRANCH  24  28
ATOM     27  C   UNL     1       2.547   5.779  18.121  0.00  0.00    +0.000 C 
ATOM     28  O   UNL     1       2.659   6.920  18.979  0.00  0.00    +0.000 OA
ENDBRANCH  24  28
ENDBRANCH   1  24
TORSDOF 3
ENDMDL
