MODEL 1
REMARK VINA RESULT:      -8.1      0.000      0.000
REMARK  Name = 
REMARK  5 active torsions:
REMARK  status: ('A' for Active; 'I' for Inactive)
REMARK    1  A    between atoms: C_1  and  S_2
REMARK    2  A    between atoms: S_2  and  N_5
REMARK    3  A    between atoms: C_8  and  C_9
REMARK    4  A    between atoms: N_11  and  C_12
REMARK    5  A    between atoms: C_16  and  C_17
REMARK                            x       y       z     vdW  Elec       q    Type
REMARK                         _______ _______ _______ _____ _____    ______ ____
ROOT
ATOM      1  C   UNL     1       2.507   5.161  18.856  0.00  0.00    +0.000 C 
ATOM      2  O   UNL     1       1.593   5.140  18.035  0.00  0.00    +0.000 OA
ATOM      3  N   UNL     1       2.871   6.274  19.595  0.00  0.00    +0.000 N 
ATOM      4  H   UNL     1       3.798   6.282  20.002  0.00  0.00    +0.000 HD
ENDROOT
BRANCH   1   8
ATOM      5  N   UNL     1       5.590   4.242  17.225  0.00  0.00    +0.000 NA
ATOM      6  C   UNL     1       5.576   5.018  18.493  0.00  0.00    +0.000 C 
ATOM      7  C   UNL     1       4.774   4.304  19.580  0.00  0.00    +0.000 C 
ATOM      8  C   UNL     1       3.366   3.915  19.107  0.00  0.00    +0.000 C 
ATOM      9  C   UNL     1       3.511   3.036  17.865  0.00  0.00    +0.000 C 
ATOM     10  C   UNL     1       4.273   3.750  16.752  0.00  0.00    +0.000 C 
BRANCH   5  12
ATOM     11  C   UNL     1       6.063   4.017  14.536  0.00  0.00    +0.000 C 
ATOM     12  S   UNL     1       6.599   4.893  16.000  0.00  0.00    +0.000 S 
ATOM     13  O   UNL     1       7.957   4.487  16.287  0.00  0.00    +0.000 OA
ATOM     14  O   UNL     1       6.253   6.289  15.833  0.00  0.00    +0.000 OA
ENDBRANCH   5  12
ENDBRANCH   1   8
BRANCH   3  15
ATOM     15  C   UNL     1       2.141   7.488  19.637  0.00  0.00    +0.000 A 
ATOM     16  C   UNL     1       2.076   8.368  18.550  0.00  0.00    +0.000 A 
ATOM     17  C   UNL     1       1.365   9.564  18.638  0.00  0.00    +0.000 A 
ATOM     18  C   UNL     1       0.703   9.897  19.815  0.00  0.00    +0.000 A 
ATOM     19  C   UNL     1       0.736   9.028  20.914  0.00  0.00    +0.000 A 
ATOM     20  C   UNL     1       1.445   7.812  20.808  0.00  0.00    +0.000 A 
BRANCH  19  21
ATOM     21  C   UNL     1       0.040   9.396  22.200  0.00  0.00    +0.000 C 
ATOM     22  F   UNL     1      -0.546  10.626  22.172  0.00  0.00    +0.000 F 
ATOM     23  F   UNL     1      -0.949   8.519  22.526  0.00  0.00    +0.000 F 
ATOM     24  F   UNL     1       0.891   9.412  23.263  0.00  0.00    +0.000 F 
ENDBRANCH  19  21
ENDBRANCH   3  15
TORSDOF 4
ENDMDL
MODEL 2
REMARK VINA RESULT:      -8.0      5.526      8.339
REMARK  Name = 
REMARK  5 active torsions:
REMARK  status: ('A' for Active; 'I' for Inactive)
REMARK    1  A    between atoms: C_1  and  S_2
REMARK    2  A    between atoms: S_2  and  N_5
REMARK    3  A    between atoms: C_8  and  C_9
REMARK    4  A    between atoms: N_11  and  C_12
REMARK    5  A    between atoms: C_16  and  C_17
REMARK                            x       y       z     vdW  Elec       q    Type
REMARK                         _______ _______ _______ _____ _____    ______ ____
ROOT
ATOM      1  C   UNL     1       5.457   6.032  16.375  0.00  0.00    +0.000 C 
ATOM      2  O   UNL     1       4.981   6.923  15.675  0.00  0.00    +0.000 OA
ATOM      3  N   UNL     1       6.054   4.885  15.881  0.00  0.00    +0.000 N 
ATOM      4  H   UNL     1       6.135   4.093  16.509  0.00  0.00    +0.000 HD
ENDROOT
BRANCH   1   8
ATOM      5  N   UNL     1       3.139   4.367  18.579  0.00  0.00    +0.000 NA
ATOM      6  C   UNL     1       4.457   3.772  18.235  0.00  0.00    +0.000 C 
ATOM      7  C   UNL     1       5.604   4.735  18.541  0.00  0.00    +0.000 C 
ATOM      8  C   UNL     1       5.393   6.116  17.905  0.00  0.00    +0.000 C 
ATOM      9  C   UNL     1       4.062   6.671  18.412  0.00  0.00    +0.000 C 
ATOM     10  C   UNL     1       2.899   5.742  18.077  0.00  0.00    +0.000 C 
BRANCH   5  12
ATOM     11  C   UNL     1       0.944   3.498  19.969  0.00  0.00    +0.000 C 
ATOM     12  S   UNL     1       1.809   3.297  18.417  0.00  0.00    +0.000 S 
ATOM     13  O   UNL     1       2.331   1.949  18.373  0.00  0.00    +0.000 OA
ATOM     14  O   UNL     1       0.954   3.805  17.365  0.00  0.00    +0.000 OA
ENDBRANCH   5  12
ENDBRANCH   1   8
BRANCH   3  15
ATOM     15  C   UNL     1       6.353   4.653  14.516  0.00  0.00    +0.000 A 
ATOM     16  C   UNL     1       7.558   5.054  13.928  0.00  0.00    +0.000 A 
ATOM     17  C   UNL     1       7.807   4.827  12.575  0.00  0.00    +0.000 A 
ATOM     18  C   UNL     1       6.854   4.189  11.789  0.00  0.00    +0.000 A 
ATOM     19  C   UNL     1       5.645   3.759  12.354  0.00  0.00    +0.000 A 
ATOM     20  C   UNL     1       5.411   3.980  13.728  0.00  0.00    +0.000 A 
BRANCH  19  21
ATOM     21  C   UNL     1       4.599   3.089  11.499  0.00  0.00    +0.000 C 
ATOM     22  F   UNL     1       3.420   2.870  12.147  0.00  0.00    +0.000 F 
ATOM     23  F   UNL     1       4.286   3.818  10.393  0.00  0.00    +0.000 F 
ATOM     24  F   UNL     1       5.005   1.872  11.042  0.00  0.00    +0.000 F 
ENDBRANCH  19  21
ENDBRANCH   3  15
TORSDOF 4
ENDMDL
MODEL 3
REMARK VINA RESULT:      -7.9      0.680      1.450
REMARK  Name = 
REMARK  5 active torsions:
REMARK  status: ('A' for Active; 'I' for Inactive)
REMARK    1  A    between atoms: C_1  and  S_2
REMARK    2  A    between atoms: S_2  and  N_5
REMARK    3  A    between atoms: C_8  and  C_9
REMARK    4  A    between atoms: N_11  and  C_12
REMARK    5  A    between atoms: C_16  and  C_17
REMARK                            x       y       z     vdW  Elec       q    Type
REMARK                         _______ _______ _______ _____ _____    ______ ____
ROOT
ATOM      1  C   UNL     1       2.348   5.148  18.565  0.00  0.00    +0.000 C 
ATOM      2  O   UNL     1       1.494   5.256  17.688  0.00  0.00    +0.000 OA
ATOM      3  N   UNL     1       2.739   6.174  19.407  0.00  0.00    +0.000 N 
ATOM      4  H   UNL     1       3.634   6.082  19.872  0.00  0.00    +0.000 HD
ENDROOT
BRANCH   1   8
ATOM      5  N   UNL     1       5.730   4.347  17.600  0.00  0.00    +0.000 NA
ATOM      6  C   UNL     1       5.405   4.877  18.950  0.00  0.00    +0.000 C 
ATOM      7  C   UNL     1       4.342   4.029  19.646  0.00  0.00    +0.000 C 
ATOM      8  C   UNL     1       3.095   3.824  18.774  0.00  0.00    +0.000 C 
ATOM      9  C   UNL     1       3.537   3.180  17.461  0.00  0.00    +0.000 C 
ATOM     10  C   UNL     1       4.569   4.035  16.731  0.00  0.00    +0.000 C 
BRANCH   5  12
ATOM     11  C   UNL     1       7.372   6.518  17.903  0.00  0.00    +0.000 C 
ATOM     12  S   UNL     1       7.027   5.145  16.812  0.00  0.00    +0.000 S 
ATOM     13  O   UNL     1       6.521   5.683  15.568  0.00  0.00    +0.000 OA
ATOM     14  O   UNL     1       8.174   4.262  16.835  0.00  0.00    +0.000 OA
ENDBRANCH   5  12
ENDBRANCH   1   8
BRANCH   3  15
ATOM     15  C   UNL     1       2.099   7.435  19.496  0.00  0.00    +0.000 A 
ATOM     16  C   UNL     1       2.084   8.350  18.436  0.00  0.00    +0.000 A 
ATOM     17  C   UNL     1       1.461   9.591  18.568  0.00  0.00    +0.000 A 
ATOM     18  C   UNL     1       0.837   9.933  19.763  0.00  0.00    +0.000 A 
ATOM     19  C   UNL     1       0.821   9.030  20.836  0.00  0.00    +0.000 A 
ATOM     20  C   UNL     1       1.440   7.771  20.684  0.00  0.00    +0.000 A 
BRANCH  19  21
ATOM     21  C   UNL     1       0.167   9.408  22.141  0.00  0.00    +0.000 C 
ATOM     22  F   UNL     1      -0.888   8.613  22.476  0.00  0.00    +0.000 F 
ATOM     23  F   UNL     1       1.031   9.344  23.192  0.00  0.00    +0.000 F 
ATOM     24  F   UNL     1      -0.314  10.682  22.131  0.00  0.00    +0.000 F 
ENDBRANCH  19  21
ENDBRANCH   3  15
TORSDOF 4
ENDMDL
MODEL 4
REMARK VINA RESULT:      -7.8      5.608      8.282
REMARK  Name = 
REMARK  5 active torsions:
REMARK  status: ('A' for Active; 'I' for Inactive)
REMARK    1  A    between atoms: C_1  and  S_2
REMARK    2  A    between atoms: S_2  and  N_5
REMARK    3  A    between atoms: C_8  and  C_9
REMARK    4  A    between atoms: N_11  and  C_12
REMARK    5  A    between atoms: C_16  and  C_17
REMARK                            x       y       z     vdW  Elec       q    Type
REMARK                         _______ _______ _______ _____ _____    ______ ____
ROOT
ATOM      1  C   UNL     1       6.499   5.199  16.902  0.00  0.00    +0.000 C 
ATOM      2  O   UNL     1       7.384   4.354  17.021  0.00  0.00    +0.000 OA
ATOM      3  N   UNL     1       6.034   5.679  15.690  0.00  0.00    +0.000 N 
ATOM      4  H   UNL     1       5.543   6.565  15.696  0.00  0.00    +0.000 HD
ENDROOT
BRANCH   1   8
ATOM      5  N   UNL     1       3.474   4.163  18.570  0.00  0.00    +0.000 NA
ATOM      6  C   UNL     1       4.811   3.669  18.994  0.00  0.00    +0.000 C 
ATOM      7  C   UNL     1       5.767   4.823  19.293  0.00  0.00    +0.000 C 
ATOM      8  C   UNL     1       5.846   5.831  18.138  0.00  0.00    +0.000 C 
ATOM      9  C   UNL     1       4.433   6.346  17.862  0.00  0.00    +0.000 C 
ATOM     10  C   UNL     1       3.475   5.210  17.519  0.00  0.00    +0.000 C 
BRANCH   5  12
ATOM     11  C   UNL     1       1.726   2.648  20.038  0.00  0.00    +0.000 C 
ATOM     12  S   UNL     1       2.291   2.938  18.367  0.00  0.00    +0.000 S 
ATOM     13  O   UNL     1       2.969   1.742  17.915  0.00  0.00    +0.000 OA
ATOM     14  O   UNL     1       1.189   3.502  17.617  0.00  0.00    +0.000 OA
ENDBRANCH   5  12
ENDBRANCH   1   8
BRANCH   3  15
ATOM     15  C   UNL     1       6.383   5.149  14.423  0.00  0.00    +0.000 A 
ATOM     16  C   UNL     1       7.640   5.350  13.842  0.00  0.00    +0.000 A 
ATOM     17  C   UNL     1       7.940   4.830  12.583  0.00  0.00    +0.000 A 
ATOM     18  C   UNL     1       6.986   4.094  11.888  0.00  0.00    +0.000 A 
ATOM     19  C   UNL     1       5.724   3.861  12.453  0.00  0.00    +0.000 A 
ATOM     20  C   UNL     1       5.438   4.379  13.735  0.00  0.00    +0.000 A 
BRANCH  19  21
ATOM     21  C   UNL     1       4.679   3.086  11.692  0.00  0.00    +0.000 C 
ATOM     22  F   UNL     1       5.083   1.838  11.323  0.00  0.00    +0.000 F 
ATOM     23  F   UNL     1       3.536   2.909  12.412  0.00  0.00    +0.000 F 
ATOM     24  F   UNL     1       4.303   3.711  10.543  0.00  0.00    +0.000 F 
ENDBRANCH  19  21
ENDBRANCH   3  15
TORSDOF 4
ENDMDL
MODEL 5
REMARK VINA RESULT:      -7.6      1.165      1.596
REMARK  Name = 
REMARK  5 active torsions:
REMARK  status: ('A' for Active; 'I' for Inactive)
REMARK    1  A    between atoms: C_1  and  S_2
REMARK    2  A    between atoms: S_2  and  N_5
REMARK    3  A    between atoms: C_8  and  C_9
REMARK    4  A    between atoms: N_11  and  C_12
REMARK    5  A    between atoms: C_16  and  C_17
REMARK                            x       y       z     vdW  Elec       q    Type
REMARK                         _______ _______ _______ _____ _____    ______ ____
ROOT
ATOM      1  C   UNL     1       2.314   4.916  18.381  0.00  0.00    +0.000 C 
ATOM      2  O   UNL     1       1.359   4.978  17.609  0.00  0.00    +0.000 OA
ATOM      3  N   UNL     1       2.869   6.007  19.028  0.00  0.00    +0.000 N 
ATOM      4  H   UNL     1       3.811   5.907  19.387  0.00  0.00    +0.000 HD
ENDROOT
BRANCH   1   8
ATOM      5  N   UNL     1       5.846   4.195  18.276  0.00  0.00    +0.000 NA
ATOM      6  C   UNL     1       5.168   4.606  19.533  0.00  0.00    +0.000 C 
ATOM      7  C   UNL     1       3.977   3.703  19.850  0.00  0.00    +0.000 C 
ATOM      8  C   UNL     1       3.007   3.578  18.666  0.00  0.00    +0.000 C 
ATOM      9  C   UNL     1       3.792   3.050  17.466  0.00  0.00    +0.000 C 
ATOM     10  C   UNL     1       4.961   3.963  17.109  0.00  0.00    +0.000 C 
BRANCH   5  12
ATOM     11  C   UNL     1       6.681   6.648  17.388  0.00  0.00    +0.000 C 
ATOM     12  S   UNL     1       7.288   5.056  17.928  0.00  0.00    +0.000 S 
ATOM     13  O   UNL     1       7.920   4.415  16.795  0.00  0.00    +0.000 OA
ATOM     14  O   UNL     1       8.002   5.252  19.171  0.00  0.00    +0.000 OA
ENDBRANCH   5  12
ENDBRANCH   1   8
BRANCH   3  15
ATOM     15  C   UNL     1       2.317   7.311  19.030  0.00  0.00    +0.000 A 
ATOM     16  C   UNL     1       2.505   8.212  17.976  0.00  0.00    +0.000 A 
ATOM     17  C   UNL     1       1.963   9.497  18.024  0.00  0.00    +0.000 A 
ATOM     18  C   UNL     1       1.219   9.898  19.128  0.00  0.00    +0.000 A 
ATOM     19  C   UNL     1       0.998   9.011  20.191  0.00  0.00    +0.000 A 
ATOM     20  C   UNL     1       1.538   7.709  20.124  0.00  0.00    +0.000 A 
BRANCH  19  21
ATOM     21  C   UNL     1       0.212   9.450  21.401  0.00  0.00    +0.000 C 
ATOM     22  F   UNL     1       0.986   9.941  22.408  0.00  0.00    +0.000 F 
ATOM     23  F   UNL     1      -0.687  10.431  21.109  0.00  0.00    +0.000 F 
ATOM     24  F   UNL     1      -0.510   8.433  21.947  0.00  0.00    +0.000 F 
ENDBRANCH  19  21
ENDBRANCH   3  15
TORSDOF 4
ENDMDL
MODEL 6
REMARK VINA RESULT:      -7.5      1.827      2.448
REMARK  Name = 
REMARK  5 active torsions:
REMARK  status: ('A' for Active; 'I' for Inactive)
REMARK    1  A    between atoms: C_1  and  S_2
REMARK    2  A    between atoms: S_2  and  N_5
REMARK    3  A    between atoms: C_8  and  C_9
REMARK    4  A    between atoms: N_11  and  C_12
REMARK    5  A    between atoms: C_16  and  C_17
REMARK                            x       y       z     vdW  Elec       q    Type
REMARK                         _______ _______ _______ _____ _____    ______ ____
ROOT
ATOM      1  C   UNL     1       2.788   4.900  19.111  0.00  0.00    +0.000 C 
ATOM      2  O   UNL     1       1.747   4.741  18.477  0.00  0.00    +0.000 OA
ATOM      3  N   UNL     1       3.098   6.038  19.834  0.00  0.00    +0.000 N 
ATOM      4  H   UNL     1       4.073   6.199  20.058  0.00  0.00    +0.000 HD
ENDROOT
BRANCH   1   8
ATOM      5  N   UNL     1       5.573   4.558  16.845  0.00  0.00    +0.000 NA
ATOM      6  C   UNL     1       5.693   5.299  18.128  0.00  0.00    +0.000 C 
ATOM      7  C   UNL     1       5.266   4.438  19.316  0.00  0.00    +0.000 C 
ATOM      8  C   UNL     1       3.875   3.818  19.118  0.00  0.00    +0.000 C 
ATOM      9  C   UNL     1       3.903   2.998  17.828  0.00  0.00    +0.000 C 
ATOM     10  C   UNL     1       4.287   3.852  16.623  0.00  0.00    +0.000 C 
BRANCH   5  12
ATOM     11  C   UNL     1       6.069   4.170  14.179  0.00  0.00    +0.000 C 
ATOM     12  S   UNL     1       6.181   5.394  15.477  0.00  0.00    +0.000 S 
ATOM     13  O   UNL     1       7.583   5.661  15.713  0.00  0.00    +0.000 OA
ATOM     14  O   UNL     1       5.258   6.462  15.160  0.00  0.00    +0.000 OA
ENDBRANCH   5  12
ENDBRANCH   1   8
BRANCH   3  15
ATOM     15  C   UNL     1       2.198   7.103  20.088  0.00  0.00    +0.000 A 
ATOM     16  C   UNL     1       1.443   7.189  21.264  0.00  0.00    +0.000 A 
ATOM     17  C   UNL     1       0.552   8.242  21.469  0.00  0.00    +0.000 A 
ATOM     18  C   UNL     1       0.407   9.230  20.501  0.00  0.00    +0.000 A 
ATOM     19  C   UNL     1       1.163   9.180  19.322  0.00  0.00    +0.000 A 
ATOM     20  C   UNL     1       2.074   8.119  19.133  0.00  0.00    +0.000 A 
BRANCH  19  21
ATOM     21  C   UNL     1       0.991  10.237  18.259  0.00  0.00    +0.000 C 
ATOM     22  F   UNL     1       0.831  11.494  18.758  0.00  0.00    +0.000 F 
ATOM     23  F   UNL     1       2.057  10.303  17.414  0.00  0.00    +0.000 F 
ATOM     24  F   UNL     1      -0.096  10.007  17.471  0.00  0.00    +0.000 F 
ENDBRANCH  19  21
ENDBRANCH   3  15
TORSDOF 4
ENDMDL
MODEL 7
REMARK VINA RESULT:      -7.5      0.984      1.378
REMARK  Name = 
REMARK  5 active torsions:
REMARK  status: ('A' for Active; 'I' for Inactive)
REMARK    1  A    between atoms: C_1  and  S_2
REMARK    2  A    between atoms: S_2  and  N_5
REMARK    3  A    between atoms: C_8  and  C_9
REMARK    4  A    between atoms: N_11  and  C_12
REMARK    5  A    between atoms: C_16  and  C_17
REMARK                            x       y       z     vdW  Elec       q    Type
REMARK                         _______ _______ _______ _____ _____    ______ ____
ROOT
ATOM      1  C   UNL     1       2.667   5.345  19.241  0.00  0.00    +0.000 C 
ATOM      2  O   UNL     1       1.544   4.986  18.895  0.00  0.00    +0.000 OA
ATOM      3  N   UNL     1       3.022   6.656  19.507  0.00  0.00    +0.000 N 
ATOM      4  H   UNL     1       4.008   6.887  19.483  0.00  0.00    +0.000 HD
ENDROOT
BRANCH   1   8
ATOM      5  N   UNL     1       5.246   4.595  16.834  0.00  0.00    +0.000 NA
ATOM      6  C   UNL     1       5.443   5.609  17.902  0.00  0.00    +0.000 C 
ATOM      7  C   UNL     1       5.175   5.025  19.289  0.00  0.00    +0.000 C 
ATOM      8  C   UNL     1       3.809   4.329  19.376  0.00  0.00    +0.000 C 
ATOM      9  C   UNL     1       3.763   3.241  18.303  0.00  0.00    +0.000 C 
ATOM     10  C   UNL     1       3.986   3.814  16.907  0.00  0.00    +0.000 C 
BRANCH   5  12
ATOM     11  C   UNL     1       7.452   4.896  15.238  0.00  0.00    +0.000 C 
ATOM     12  S   UNL     1       5.679   5.121  15.261  0.00  0.00    +0.000 S 
ATOM     13  O   UNL     1       5.411   6.540  15.182  0.00  0.00    +0.000 OA
ATOM     14  O   UNL     1       5.103   4.196  14.307  0.00  0.00    +0.000 OA
ENDBRANCH   5  12
ENDBRANCH   1   8
BRANCH   3  15
ATOM     15  C   UNL     1       2.112   7.739  19.585  0.00  0.00    +0.000 A 
ATOM     16  C   UNL     1       1.818   8.559  18.489  0.00  0.00    +0.000 A 
ATOM     17  C   UNL     1       0.932   9.629  18.611  0.00  0.00    +0.000 A 
ATOM     18  C   UNL     1       0.322   9.893  19.833  0.00  0.00    +0.000 A 
ATOM     19  C   UNL     1       0.584   9.079  20.943  0.00  0.00    +0.000 A 
ATOM     20  C   UNL     1       1.469   7.989  20.803  0.00  0.00    +0.000 A 
BRANCH  19  21
ATOM     21  C   UNL     1      -0.057   9.376  22.276  0.00  0.00    +0.000 C 
ATOM     22  F   UNL     1      -0.989   8.457  22.653  0.00  0.00    +0.000 F 
ATOM     23  F   UNL     1       0.851   9.424  23.290  0.00  0.00    +0.000 F 
ATOM     24  F   UNL     1      -0.693  10.580  22.287  0.00  0.00    +0.000 F 
ENDBRANCH  19  21
ENDBRANCH   3  15
TORSDOF 4
ENDMDL
MODEL 8
REMARK VINA RESULT:      -7.5      5.665      8.296
REMARK  Name = 
REMARK  5 active torsions:
REMARK  status: ('A' for Active; 'I' for Inactive)
REMARK    1  A    between atoms: C_1  and  S_2
REMARK    2  A    between atoms: S_2  and  N_5
REMARK    3  A    between atoms: C_8  and  C_9
REMARK    4  A    between atoms: N_11  and  C_12
REMARK    5  A    between atoms: C_16  and  C_17
REMARK                            x       y       z     vdW  Elec       q    Type
REMARK                         _______ _______ _______ _____ _____    ______ ____
ROOT
ATOM      1  C   UNL     1       6.577   5.370  16.746  0.00  0.00    +0.000 C 
ATOM      2  O   UNL     1       7.502   4.573  16.889  0.00  0.00    +0.000 OA
ATOM      3  N   UNL     1       6.048   5.743  15.523  0.00  0.00    +0.000 N 
ATOM      4  H   UNL     1       5.518   6.606  15.486  0.00  0.00    +0.000 HD
ENDROOT
BRANCH   1   8
ATOM      5  N   UNL     1       3.853   4.177  18.786  0.00  0.00    +0.000 NA
ATOM      6  C   UNL     1       5.271   3.907  19.138  0.00  0.00    +0.000 C 
ATOM      7  C   UNL     1       6.085   5.198  19.221  0.00  0.00    +0.000 C 
ATOM      8  C   UNL     1       5.941   6.061  17.959  0.00  0.00    +0.000 C 
ATOM      9  C   UNL     1       4.456   6.360  17.758  0.00  0.00    +0.000 C 
ATOM     10  C   UNL     1       3.634   5.082  17.631  0.00  0.00    +0.000 C 
BRANCH   5  12
ATOM     11  C   UNL     1       1.268   3.446  18.249  0.00  0.00    +0.000 C 
ATOM     12  S   UNL     1       2.832   2.800  18.827  0.00  0.00    +0.000 S 
ATOM     13  O   UNL     1       2.667   2.416  20.212  0.00  0.00    +0.000 OA
ATOM     14  O   UNL     1       3.314   1.857  17.840  0.00  0.00    +0.000 OA
ENDBRANCH   5  12
ENDBRANCH   1   8
BRANCH   3  15
ATOM     15  C   UNL     1       6.374   5.138  14.283  0.00  0.00    +0.000 A 
ATOM     16  C   UNL     1       7.646   5.237  13.707  0.00  0.00    +0.000 A 
ATOM     17  C   UNL     1       7.924   4.647  12.475  0.00  0.00    +0.000 A 
ATOM     18  C   UNL     1       6.932   3.941  11.802  0.00  0.00    +0.000 A 
ATOM     19  C   UNL     1       5.654   3.810  12.362  0.00  0.00    +0.000 A 
ATOM     20  C   UNL     1       5.390   4.398  13.618  0.00  0.00    +0.000 A 
BRANCH  19  21
ATOM     21  C   UNL     1       4.569   3.067  11.624  0.00  0.00    +0.000 C 
ATOM     22  F   UNL     1       4.166   3.683  10.478  0.00  0.00    +0.000 F 
ATOM     23  F   UNL     1       4.955   1.813  11.258  0.00  0.00    +0.000 F 
ATOM     24  F   UNL     1       3.446   2.907  12.376  0.00  0.00    +0.000 F 
ENDBRANCH  19  21
ENDBRANCH   3  15
TORSDOF 4
ENDMDL
MODEL 9
REMARK VINA RESULT:      -7.5      1.011      1.328
REMARK  Name = 
REMARK  5 active torsions:
REMARK  status: ('A' for Active; 'I' for Inactive)
REMARK    1  A    between atoms: C_1  and  S_2
REMARK    2  A    between atoms: S_2  and  N_5
REMARK    3  A    between atoms: C_8  and  C_9
REMARK    4  A    between atoms: N_11  and  C_12
REMARK    5  A    between atoms: C_16  and  C_17
REMARK                            x       y       z     vdW  Elec       q    Type
REMARK                         _______ _______ _______ _____ _____    ______ ____
ROOT
ATOM      1  C   UNL     1       2.818   4.979  19.275  0.00  0.00    +0.000 C 
ATOM      2  O   UNL     1       1.639   4.632  19.275  0.00  0.00    +0.000 OA
ATOM      3  N   UNL     1       3.248   6.289  19.156  0.00  0.00    +0.000 N 
ATOM      4  H   UNL     1       4.206   6.442  18.864  0.00  0.00    +0.000 HD
ENDROOT
BRANCH   1   8
ATOM      5  N   UNL     1       5.568   4.475  16.997  0.00  0.00    +0.000 NA
ATOM      6  C   UNL     1       5.688   5.358  18.186  0.00  0.00    +0.000 C 
ATOM      7  C   UNL     1       5.314   4.622  19.472  0.00  0.00    +0.000 C 
ATOM      8  C   UNL     1       3.942   3.940  19.376  0.00  0.00    +0.000 C 
ATOM      9  C   UNL     1       3.972   2.983  18.185  0.00  0.00    +0.000 C 
ATOM     10  C   UNL     1       4.303   3.709  16.884  0.00  0.00    +0.000 C 
BRANCH   5  12
ATOM     11  C   UNL     1       5.103   6.634  15.375  0.00  0.00    +0.000 C 
ATOM     12  S   UNL     1       6.121   5.173  15.531  0.00  0.00    +0.000 S 
ATOM     13  O   UNL     1       5.769   4.271  14.455  0.00  0.00    +0.000 OA
ATOM     14  O   UNL     1       7.488   5.604  15.729  0.00  0.00    +0.000 OA
ENDBRANCH   5  12
ENDBRANCH   1   8
BRANCH   3  15
ATOM     15  C   UNL     1       2.401   7.424  19.191  0.00  0.00    +0.000 A 
ATOM     16  C   UNL     1       2.180   8.236  18.072  0.00  0.00    +0.000 A 
ATOM     17  C   UNL     1       1.355   9.357  18.150  0.00  0.00    +0.000 A 
ATOM     18  C   UNL     1       0.732   9.681  19.351  0.00  0.00    +0.000 A 
ATOM     19  C   UNL     1       0.920   8.877  20.484  0.00  0.00    +0.000 A 
ATOM     20  C   UNL     1       1.744   7.735  20.387  0.00  0.00    +0.000 A 
BRANCH  19  21
ATOM     21  C   UNL     1       0.267   9.238  21.794  0.00  0.00    +0.000 C 
ATOM     22  F   UNL     1       1.101   9.142  22.867  0.00  0.00    +0.000 F 
ATOM     23  F   UNL     1      -0.208  10.515  21.803  0.00  0.00    +0.000 F 
ATOM     24  F   UNL     1      -0.800   8.442  22.078  0.00  0.00    +0.000 F 
ENDBRANCH  19  21
ENDBRANCH   3  15
TORSDOF 4
ENDMDL
