MODEL 1
REMARK VINA RESULT:      -8.4      0.000      0.000
REMARK  Name = 
REMARK  7 active torsions:
REMARK  status: ('A' for Active; 'I' for Inactive)
REMARK    1  A    between atoms: C_1  and  C_2
REMARK    2  A    between atoms: C_5  and  C_6
REMARK    3  A    between atoms: C_7  and  C_8
REMARK    4  A    between atoms: C_8  and  N_9
REMARK    5  A    between atoms: C_14  and  C_15
REMARK    6  A    between atoms: C_15  and  N_16
REMARK    7  A    between atoms: C_17  and  C_19
REMARK                            x       y       z     vdW  Elec       q    Type
REMARK                         _______ _______ _______ _____ _____    ______ ____
ROOT
ATOM      1  N   UNL     1       3.898   4.911  17.860  0.00  0.00    +0.000 NA
ATOM      2  C   UNL     1       3.774   4.797  19.318  0.00  0.00    +0.000 C 
ATOM      3  C   UNL     1       2.773   5.760  19.957  0.00  0.00    +0.000 C 
ATOM      4  N   UNL     1       2.609   6.992  19.228  0.00  0.00    +0.000 N 
ATOM      5  C   UNL     1       1.789   8.023  19.598  0.00  0.00    +0.000 A 
ATOM      6  C   UNL     1       1.877   8.937  18.552  0.00  0.00    +0.000 A 
ATOM      7  N   UNL     1       2.752   8.458  17.587  0.00  0.00    +0.000 NA
ATOM      8  C   UNL     1       3.149   7.250  18.002  0.00  0.00    +0.000 A 
ATOM      9  C   UNL     1       4.011   6.256  17.295  0.00  0.00    +0.000 C 
ENDROOT
BRANCH   1  10
ATOM     10  C   UNL     1       4.769   3.902  17.243  0.00  0.00    +0.000 C 
BRANCH  10  17
ATOM     11  C   UNL     1       7.252   5.478  18.700  0.00  0.00    +0.000 C 
ATOM     12  C   UNL     1       6.917   5.400  17.257  0.00  0.00    +0.000 A 
ATOM     13  N   UNL     1       7.662   6.072  16.371  0.00  0.00    +0.000 NA
ATOM     14  O   UNL     1       7.196   5.704  15.130  0.00  0.00    +0.000 OA
ATOM     15  C   UNL     1       6.181   4.810  15.272  0.00  0.00    +0.000 A 
ATOM     16  C   UNL     1       5.654   4.241  14.017  0.00  0.00    +0.000 C 
ATOM     17  C   UNL     1       5.886   4.655  16.613  0.00  0.00    +0.000 A 
ENDBRANCH  10  17
ENDBRANCH   1  10
BRANCH   6  18
ATOM     18  C   UNL     1       1.113  10.202  18.398  0.00  0.00    +0.000 C 
BRANCH  18  19
ATOM     19  N   UNL     1      -0.110   9.964  17.658  0.00  0.00    +0.000 N 
ATOM     20  C   UNL     1      -1.331  10.345  18.179  0.00  0.00    +0.000 C 
ATOM     21  O   UNL     1      -1.409  10.982  19.232  0.00  0.00    +0.000 OA
ATOM     22  H   UNL     1      -0.066   9.317  16.884  0.00  0.00    +0.000 HD
BRANCH  20  23
ATOM     23  C   UNL     1      -2.575   9.919  17.339  0.00  0.00    +0.000 C 
ATOM     24  C   UNL     1      -3.802  10.877  17.358  0.00  0.00    +0.000 C 
ATOM     25  C   UNL     1      -4.005  10.567  15.861  0.00  0.00    +0.000 C 
ATOM     26  C   UNL     1      -2.514  10.190  15.806  0.00  0.00    +0.000 C 
ENDBRANCH  20  23
ENDBRANCH  18  19
ENDBRANCH   6  18
TORSDOF 5
ENDMDL
MODEL 2
REMARK VINA RESULT:      -8.2      0.523      1.655
REMARK  Name = 
REMARK  7 active torsions:
REMARK  status: ('A' for Active; 'I' for Inactive)
REMARK    1  A    between atoms: C_1  and  C_2
REMARK    2  A    between atoms: C_5  and  C_6
REMARK    3  A    between atoms: C_7  and  C_8
REMARK    4  A    between atoms: C_8  and  N_9
REMARK    5  A    between atoms: C_14  and  C_15
REMARK    6  A    between atoms: C_15  and  N_16
REMARK    7  A    between atoms: C_17  and  C_19
REMARK                            x       y       z     vdW  Elec       q    Type
REMARK                         _______ _______ _______ _____ _____    ______ ____
ROOT
ATOM      1  N   UNL     1       3.767   4.832  18.032  0.00  0.00    +0.000 NA
ATOM      2  C   UNL     1       3.614   4.715  19.487  0.00  0.00    +0.000 C 
ATOM      3  C   UNL     1       2.622   5.695  20.112  0.00  0.00    +0.000 C 
ATOM      4  N   UNL     1       2.495   6.933  19.386  0.00  0.00    +0.000 N 
ATOM      5  C   UNL     1       1.689   7.980  19.746  0.00  0.00    +0.000 A 
ATOM      6  C   UNL     1       1.816   8.896  18.705  0.00  0.00    +0.000 A 
ATOM      7  N   UNL     1       2.698   8.403  17.755  0.00  0.00    +0.000 NA
ATOM      8  C   UNL     1       3.063   7.186  18.171  0.00  0.00    +0.000 A 
ATOM      9  C   UNL     1       3.918   6.178  17.475  0.00  0.00    +0.000 C 
ENDROOT
BRANCH   1  10
ATOM     10  C   UNL     1       4.629   3.808  17.427  0.00  0.00    +0.000 C 
BRANCH  10  17
ATOM     11  C   UNL     1       5.491   4.431  14.322  0.00  0.00    +0.000 C 
ATOM     12  C   UNL     1       6.233   4.728  15.572  0.00  0.00    +0.000 A 
ATOM     13  N   UNL     1       7.446   5.290  15.500  0.00  0.00    +0.000 NA
ATOM     14  O   UNL     1       7.814   5.558  16.799  0.00  0.00    +0.000 OA
ATOM     15  C   UNL     1       6.824   5.164  17.644  0.00  0.00    +0.000 A 
ATOM     16  C   UNL     1       7.034   5.492  19.066  0.00  0.00    +0.000 C 
ATOM     17  C   UNL     1       5.829   4.529  16.925  0.00  0.00    +0.000 A 
ENDBRANCH  10  17
ENDBRANCH   1  10
BRANCH   6  18
ATOM     18  C   UNL     1       1.080  10.177  18.543  0.00  0.00    +0.000 C 
BRANCH  18  19
ATOM     19  N   UNL     1      -0.103   9.978  17.729  0.00  0.00    +0.000 N 
ATOM     20  C   UNL     1      -1.325  10.476  18.135  0.00  0.00    +0.000 C 
ATOM     21  O   UNL     1      -1.430  11.182  19.141  0.00  0.00    +0.000 OA
ATOM     22  H   UNL     1      -0.053   9.282  17.000  0.00  0.00    +0.000 HD
BRANCH  20  23
ATOM     23  C   UNL     1      -2.536  10.084  17.231  0.00  0.00    +0.000 C 
ATOM     24  C   UNL     1      -3.930  10.648  17.635  0.00  0.00    +0.000 C 
ATOM     25  C   UNL     1      -4.229  10.844  16.135  0.00  0.00    +0.000 C 
ATOM     26  C   UNL     1      -2.708  10.882  15.904  0.00  0.00    +0.000 C 
ENDBRANCH  20  23
ENDBRANCH  18  19
ENDBRANCH   6  18
TORSDOF 5
ENDMDL
MODEL 3
REMARK VINA RESULT:      -7.7      2.181      2.776
REMARK  Name = 
REMARK  7 active torsions:
REMARK  status: ('A' for Active; 'I' for Inactive)
REMARK    1  A    between atoms: C_1  and  C_2
REMARK    2  A    between atoms: C_5  and  C_6
REMARK    3  A    between atoms: C_7  and  C_8
REMARK    4  A    between atoms: C_8  and  N_9
REMARK    5  A    between atoms: C_14  and  C_15
REMARK    6  A    between atoms: C_15  and  N_16
REMARK    7  A    between atoms: C_17  and  C_19
REMARK                            x       y       z     vdW  Elec       q    Type
REMARK                         _______ _______ _______ _____ _____    ______ ____
ROOT
ATOM      1  N   UNL     1       4.077   4.622  17.781  0.00  0.00    +0.000 NA
ATOM      2  C   UNL     1       4.062   4.504  19.243  0.00  0.00    +0.000 C 
ATOM      3  C   UNL     1       3.070   5.423  19.955  0.00  0.00    +0.000 C 
ATOM      4  N   UNL     1       2.802   6.647  19.243  0.00  0.00    +0.000 N 
ATOM      5  C   UNL     1       1.968   7.643  19.674  0.00  0.00    +0.000 A 
ATOM      6  C   UNL     1       1.942   8.559  18.627  0.00  0.00    +0.000 A 
ATOM      7  N   UNL     1       2.765   8.117  17.601  0.00  0.00    +0.000 NA
ATOM      8  C   UNL     1       3.242   6.927  17.982  0.00  0.00    +0.000 A 
ATOM      9  C   UNL     1       4.092   5.971  17.213  0.00  0.00    +0.000 C 
ENDROOT
BRANCH   1  10
ATOM     10  C   UNL     1       4.943   3.651  17.100  0.00  0.00    +0.000 C 
BRANCH  10  17
ATOM     11  C   UNL     1       7.443   5.334  18.402  0.00  0.00    +0.000 C 
ATOM     12  C   UNL     1       7.022   5.239  16.982  0.00  0.00    +0.000 A 
ATOM     13  N   UNL     1       7.681   5.942  16.052  0.00  0.00    +0.000 NA
ATOM     14  O   UNL     1       7.154   5.551  14.842  0.00  0.00    +0.000 OA
ATOM     15  C   UNL     1       6.189   4.615  15.046  0.00  0.00    +0.000 A 
ATOM     16  C   UNL     1       5.610   4.022  13.826  0.00  0.00    +0.000 C 
ATOM     17  C   UNL     1       5.985   4.450  16.403  0.00  0.00    +0.000 A 
ENDBRANCH  10  17
ENDBRANCH   1  10
BRANCH   6  18
ATOM     18  C   UNL     1       1.116   9.791  18.531  0.00  0.00    +0.000 C 
BRANCH  18  19
ATOM     19  N   UNL     1       0.544  10.115  19.823  0.00  0.00    +0.000 N 
ATOM     20  C   UNL     1       0.645  11.393  20.335  0.00  0.00    +0.000 C 
ATOM     21  O   UNL     1       1.133  12.313  19.673  0.00  0.00    +0.000 OA
ATOM     22  H   UNL     1       0.288   9.345  20.423  0.00  0.00    +0.000 HD
BRANCH  20  23
ATOM     23  C   UNL     1       0.098  11.574  21.785  0.00  0.00    +0.000 C 
ATOM     24  C   UNL     1      -1.382  12.037  21.928  0.00  0.00    +0.000 C 
ATOM     25  C   UNL     1      -1.512  11.080  23.130  0.00  0.00    +0.000 C 
ATOM     26  C   UNL     1      -0.338  10.282  22.537  0.00  0.00    +0.000 C 
ENDBRANCH  20  23
ENDBRANCH  18  19
ENDBRANCH   6  18
TORSDOF 5
ENDMDL
MODEL 4
REMARK VINA RESULT:      -7.6      1.985      3.099
REMARK  Name = 
REMARK  7 active torsions:
REMARK  status: ('A' for Active; 'I' for Inactive)
REMARK    1  A    between atoms: C_1  and  C_2
REMARK    2  A    between atoms: C_5  and  C_6
REMARK    3  A    between atoms: C_7  and  C_8
REMARK    4  A    between atoms: C_8  and  N_9
REMARK    5  A    between atoms: C_14  and  C_15
REMARK    6  A    between atoms: C_15  and  N_16
REMARK    7  A    between atoms: C_17  and  C_19
REMARK                            x       y       z     vdW  Elec       q    Type
REMARK                         _______ _______ _______ _____ _____    ______ ____
ROOT
ATOM      1  N   UNL     1       4.046   4.978  18.030  0.00  0.00    +0.000 NA
ATOM      2  C   UNL     1       3.938   4.986  19.493  0.00  0.00    +0.000 C 
ATOM      3  C   UNL     1       2.867   5.920  20.056  0.00  0.00    +0.000 C 
ATOM      4  N   UNL     1       2.602   7.065  19.223  0.00  0.00    +0.000 N 
ATOM      5  C   UNL     1       1.704   8.058  19.509  0.00  0.00    +0.000 A 
ATOM      6  C   UNL     1       1.715   8.879  18.385  0.00  0.00    +0.000 A 
ATOM      7  N   UNL     1       2.621   8.385  17.456  0.00  0.00    +0.000 NA
ATOM      8  C   UNL     1       3.114   7.254  17.972  0.00  0.00    +0.000 A 
ATOM      9  C   UNL     1       4.050   6.272  17.346  0.00  0.00    +0.000 C 
ENDROOT
BRANCH   1  10
ATOM     10  C   UNL     1       4.992   3.990  17.495  0.00  0.00    +0.000 C 
BRANCH  10  17
ATOM     11  C   UNL     1       7.429   5.759  18.801  0.00  0.00    +0.000 C 
ATOM     12  C   UNL     1       7.057   5.596  17.374  0.00  0.00    +0.000 A 
ATOM     13  N   UNL     1       7.739   6.264  16.436  0.00  0.00    +0.000 NA
ATOM     14  O   UNL     1       7.257   5.814  15.228  0.00  0.00    +0.000 OA
ATOM     15  C   UNL     1       6.295   4.877  15.441  0.00  0.00    +0.000 A 
ATOM     16  C   UNL     1       5.763   4.223  14.231  0.00  0.00    +0.000 C 
ATOM     17  C   UNL     1       6.048   4.770  16.797  0.00  0.00    +0.000 A 
ENDBRANCH  10  17
ENDBRANCH   1  10
BRANCH   6  18
ATOM     18  C   UNL     1       0.852  10.061  18.128  0.00  0.00    +0.000 C 
BRANCH  18  19
ATOM     19  N   UNL     1       1.611  11.284  18.294  0.00  0.00    +0.000 N 
ATOM     20  C   UNL     1       1.463  12.053  19.431  0.00  0.00    +0.000 C 
ATOM     21  O   UNL     1       0.762  11.677  20.374  0.00  0.00    +0.000 OA
ATOM     22  H   UNL     1       2.058  11.668  17.474  0.00  0.00    +0.000 HD
BRANCH  20  23
ATOM     23  C   UNL     1       2.243  13.405  19.426  0.00  0.00    +0.000 C 
ATOM     24  C   UNL     1       3.200  13.663  18.226  0.00  0.00    +0.000 C 
ATOM     25  C   UNL     1       2.749  15.137  18.248  0.00  0.00    +0.000 C 
ATOM     26  C   UNL     1       1.462  14.664  18.946  0.00  0.00    +0.000 C 
ENDBRANCH  20  23
ENDBRANCH  18  19
ENDBRANCH   6  18
TORSDOF 5
ENDMDL
MODEL 5
REMARK VINA RESULT:      -7.6      4.640      8.030
REMARK  Name = 
REMARK  7 active torsions:
REMARK  status: ('A' for Active; 'I' for Inactive)
REMARK    1  A    between atoms: C_1  and  C_2
REMARK    2  A    between atoms: C_5  and  C_6
REMARK    3  A    between atoms: C_7  and  C_8
REMARK    4  A    between atoms: C_8  and  N_9
REMARK    5  A    between atoms: C_14  and  C_15
REMARK    6  A    between atoms: C_15  and  N_16
REMARK    7  A    between atoms: C_17  and  C_19
REMARK                            x       y       z     vdW  Elec       q    Type
REMARK                         _______ _______ _______ _____ _____    ______ ____
ROOT
ATOM      1  N   UNL     1       4.793   5.243  17.808  0.00  0.00    +0.000 NA
ATOM      2  C   UNL     1       5.852   4.434  18.423  0.00  0.00    +0.000 C 
ATOM      3  C   UNL     1       7.022   5.232  18.997  0.00  0.00    +0.000 C 
ATOM      4  N   UNL     1       7.253   6.486  18.325  0.00  0.00    +0.000 N 
ATOM      5  C   UNL     1       8.248   7.374  18.633  0.00  0.00    +0.000 A 
ATOM      6  C   UNL     1       8.015   8.466  17.802  0.00  0.00    +0.000 A 
ATOM      7  N   UNL     1       6.909   8.216  17.002  0.00  0.00    +0.000 NA
ATOM      8  C   UNL     1       6.436   7.022  17.372  0.00  0.00    +0.000 A 
ATOM      9  C   UNL     1       5.203   6.320  16.905  0.00  0.00    +0.000 C 
ENDROOT
BRANCH   1  10
ATOM     10  C   UNL     1       3.619   4.477  17.370  0.00  0.00    +0.000 C 
BRANCH  10  17
ATOM     11  C   UNL     1       3.486   1.406  18.521  0.00  0.00    +0.000 C 
ATOM     12  C   UNL     1       2.851   2.633  19.064  0.00  0.00    +0.000 A 
ATOM     13  N   UNL     1       2.069   2.545  20.147  0.00  0.00    +0.000 NA
ATOM     14  O   UNL     1       1.741   3.840  20.479  0.00  0.00    +0.000 OA
ATOM     15  C   UNL     1       2.329   4.698  19.604  0.00  0.00    +0.000 A 
ATOM     16  C   UNL     1       2.155   6.131  19.904  0.00  0.00    +0.000 C 
ATOM     17  C   UNL     1       2.968   3.980  18.611  0.00  0.00    +0.000 A 
ENDBRANCH  10  17
ENDBRANCH   1  10
BRANCH   6  18
ATOM     18  C   UNL     1       8.751   9.758  17.790  0.00  0.00    +0.000 C 
BRANCH  18  19
ATOM     19  N   UNL     1       8.938  10.243  19.143  0.00  0.00    +0.000 N 
ATOM     20  C   UNL     1       9.704  11.366  19.386  0.00  0.00    +0.000 C 
ATOM     21  O   UNL     1      10.165  12.041  18.462  0.00  0.00    +0.000 OA
ATOM     22  H   UNL     1       8.698   9.617  19.898  0.00  0.00    +0.000 HD
BRANCH  20  23
ATOM     23  C   UNL     1       9.927  11.706  20.892  0.00  0.00    +0.000 C 
ATOM     24  C   UNL     1      10.008  13.214  21.271  0.00  0.00    +0.000 C 
ATOM     25  C   UNL     1       9.216  12.883  22.552  0.00  0.00    +0.000 C 
ATOM     26  C   UNL     1       8.676  11.643  21.818  0.00  0.00    +0.000 C 
ENDBRANCH  20  23
ENDBRANCH  18  19
ENDBRANCH   6  18
TORSDOF 5
ENDMDL
MODEL 6
REMARK VINA RESULT:      -7.6      2.919      3.811
REMARK  Name = 
REMARK  7 active torsions:
REMARK  status: ('A' for Active; 'I' for Inactive)
REMARK    1  A    between atoms: C_1  and  C_2
REMARK    2  A    between atoms: C_5  and  C_6
REMARK    3  A    between atoms: C_7  and  C_8
REMARK    4  A    between atoms: C_8  and  N_9
REMARK    5  A    between atoms: C_14  and  C_15
REMARK    6  A    between atoms: C_15  and  N_16
REMARK    7  A    between atoms: C_17  and  C_19
REMARK                            x       y       z     vdW  Elec       q    Type
REMARK                         _______ _______ _______ _____ _____    ______ ____
ROOT
ATOM      1  N   UNL     1       4.359   5.498  18.043  0.00  0.00    +0.000 NA
ATOM      2  C   UNL     1       3.969   6.539  17.085  0.00  0.00    +0.000 C 
ATOM      3  C   UNL     1       3.265   7.749  17.699  0.00  0.00    +0.000 C 
ATOM      4  N   UNL     1       2.530   7.444  18.900  0.00  0.00    +0.000 N 
ATOM      5  C   UNL     1       1.801   8.344  19.629  0.00  0.00    +0.000 A 
ATOM      6  C   UNL     1       1.365   7.629  20.740  0.00  0.00    +0.000 A 
ATOM      7  N   UNL     1       1.817   6.319  20.658  0.00  0.00    +0.000 NA
ATOM      8  C   UNL     1       2.563   6.244  19.550  0.00  0.00    +0.000 A 
ATOM      9  C   UNL     1       3.368   5.094  19.041  0.00  0.00    +0.000 C 
ENDROOT
BRANCH   1  10
ATOM     10  C   UNL     1       5.141   4.399  17.462  0.00  0.00    +0.000 C 
BRANCH  10  17
ATOM     11  C   UNL     1       5.399   4.113  14.202  0.00  0.00    +0.000 C 
ATOM     12  C   UNL     1       6.279   4.847  15.146  0.00  0.00    +0.000 A 
ATOM     13  N   UNL     1       7.370   5.467  14.681  0.00  0.00    +0.000 NA
ATOM     14  O   UNL     1       7.896   6.154  15.751  0.00  0.00    +0.000 OA
ATOM     15  C   UNL     1       7.121   5.951  16.849  0.00  0.00    +0.000 A 
ATOM     16  C   UNL     1       7.504   6.717  18.049  0.00  0.00    +0.000 C 
ATOM     17  C   UNL     1       6.128   5.037  16.551  0.00  0.00    +0.000 A 
ENDBRANCH  10  17
ENDBRANCH   1  10
BRANCH   6  18
ATOM     18  C   UNL     1       0.607   8.153  21.905  0.00  0.00    +0.000 C 
BRANCH  18  19
ATOM     19  N   UNL     1      -0.048   9.400  21.560  0.00  0.00    +0.000 N 
ATOM     20  C   UNL     1      -0.377  10.315  22.540  0.00  0.00    +0.000 C 
ATOM     21  O   UNL     1      -0.039  10.147  23.715  0.00  0.00    +0.000 OA
ATOM     22  H   UNL     1      -0.458   9.469  20.640  0.00  0.00    +0.000 HD
BRANCH  20  23
ATOM     23  C   UNL     1      -1.188  11.554  22.048  0.00  0.00    +0.000 C 
ATOM     24  C   UNL     1      -2.413  11.982  22.908  0.00  0.00    +0.000 C 
ATOM     25  C   UNL     1      -2.028  13.450  22.635  0.00  0.00    +0.000 C 
ATOM     26  C   UNL     1      -0.594  12.956  22.375  0.00  0.00    +0.000 C 
ENDBRANCH  20  23
ENDBRANCH  18  19
ENDBRANCH   6  18
TORSDOF 5
ENDMDL
MODEL 7
REMARK VINA RESULT:      -7.5      4.695      7.962
REMARK  Name = 
REMARK  7 active torsions:
REMARK  status: ('A' for Active; 'I' for Inactive)
REMARK    1  A    between atoms: C_1  and  C_2
REMARK    2  A    between atoms: C_5  and  C_6
REMARK    3  A    between atoms: C_7  and  C_8
REMARK    4  A    between atoms: C_8  and  N_9
REMARK    5  A    between atoms: C_14  and  C_15
REMARK    6  A    between atoms: C_15  and  N_16
REMARK    7  A    between atoms: C_17  and  C_19
REMARK                            x       y       z     vdW  Elec       q    Type
REMARK                         _______ _______ _______ _____ _____    ______ ____
ROOT
ATOM      1  N   UNL     1       4.995   5.466  17.865  0.00  0.00    +0.000 NA
ATOM      2  C   UNL     1       6.093   4.635  18.372  0.00  0.00    +0.000 C 
ATOM      3  C   UNL     1       7.280   5.411  18.941  0.00  0.00    +0.000 C 
ATOM      4  N   UNL     1       7.463   6.709  18.344  0.00  0.00    +0.000 N 
ATOM      5  C   UNL     1       8.461   7.590  18.663  0.00  0.00    +0.000 A 
ATOM      6  C   UNL     1       8.175   8.731  17.919  0.00  0.00    +0.000 A 
ATOM      7  N   UNL     1       7.034   8.518  17.158  0.00  0.00    +0.000 NA
ATOM      8  C   UNL     1       6.594   7.295  17.470  0.00  0.00    +0.000 A 
ATOM      9  C   UNL     1       5.348   6.607  17.017  0.00  0.00    +0.000 C 
ENDROOT
BRANCH   1  10
ATOM     10  C   UNL     1       3.811   4.714  17.433  0.00  0.00    +0.000 C 
BRANCH  10  17
ATOM     11  C   UNL     1       2.240   6.299  19.840  0.00  0.00    +0.000 C 
ATOM     12  C   UNL     1       2.594   4.861  19.748  0.00  0.00    +0.000 A 
ATOM     13  N   UNL     1       2.299   4.044  20.767  0.00  0.00    +0.000 NA
ATOM     14  O   UNL     1       2.623   2.777  20.338  0.00  0.00    +0.000 OA
ATOM     15  C   UNL     1       3.103   2.834  19.068  0.00  0.00    +0.000 A 
ATOM     16  C   UNL     1       3.389   1.532  18.436  0.00  0.00    +0.000 C 
ATOM     17  C   UNL     1       3.207   4.154  18.672  0.00  0.00    +0.000 A 
ENDBRANCH  10  17
ENDBRANCH   1  10
BRANCH   6  18
ATOM     18  C   UNL     1       8.894  10.032  17.958  0.00  0.00    +0.000 C 
BRANCH  18  19
ATOM     19  N   UNL     1       8.979  10.519  19.321  0.00  0.00    +0.000 N 
ATOM     20  C   UNL     1       9.754  11.621  19.624  0.00  0.00    +0.000 C 
ATOM     21  O   UNL     1      10.311  12.278  18.741  0.00  0.00    +0.000 OA
ATOM     22  H   UNL     1       8.658   9.904  20.054  0.00  0.00    +0.000 HD
BRANCH  20  23
ATOM     23  C   UNL     1       9.858  11.962  21.143  0.00  0.00    +0.000 C 
ATOM     24  C   UNL     1       9.752  13.465  21.538  0.00  0.00    +0.000 C 
ATOM     25  C   UNL     1       8.935  13.031  22.772  0.00  0.00    +0.000 C 
ATOM     26  C   UNL     1       8.574  11.749  22.000  0.00  0.00    +0.000 C 
ENDBRANCH  20  23
ENDBRANCH  18  19
ENDBRANCH   6  18
TORSDOF 5
ENDMDL
MODEL 8
REMARK VINA RESULT:      -7.5      2.157      3.152
REMARK  Name = 
REMARK  7 active torsions:
REMARK  status: ('A' for Active; 'I' for Inactive)
REMARK    1  A    between atoms: C_1  and  C_2
REMARK    2  A    between atoms: C_5  and  C_6
REMARK    3  A    between atoms: C_7  and  C_8
REMARK    4  A    between atoms: C_8  and  N_9
REMARK    5  A    between atoms: C_14  and  C_15
REMARK    6  A    between atoms: C_15  and  N_16
REMARK    7  A    between atoms: C_17  and  C_19
REMARK                            x       y       z     vdW  Elec       q    Type
REMARK                         _______ _______ _______ _____ _____    ______ ____
ROOT
ATOM      1  N   UNL     1       3.809   4.681  17.961  0.00  0.00    +0.000 NA
ATOM      2  C   UNL     1       3.749   4.561  19.422  0.00  0.00    +0.000 C 
ATOM      3  C   UNL     1       2.781   5.523  20.109  0.00  0.00    +0.000 C 
ATOM      4  N   UNL     1       2.589   6.759  19.395  0.00  0.00    +0.000 N 
ATOM      5  C   UNL     1       1.789   7.792  19.806  0.00  0.00    +0.000 A 
ATOM      6  C   UNL     1       1.834   8.711  18.762  0.00  0.00    +0.000 A 
ATOM      7  N   UNL     1       2.664   8.234  17.757  0.00  0.00    +0.000 NA
ATOM      8  C   UNL     1       3.075   7.022  18.147  0.00  0.00    +0.000 A 
ATOM      9  C   UNL     1       3.902   6.030  17.398  0.00  0.00    +0.000 C 
ENDROOT
BRANCH   1  10
ATOM     10  C   UNL     1       4.648   3.673  17.301  0.00  0.00    +0.000 C 
BRANCH  10  17
ATOM     11  C   UNL     1       5.413   4.325  14.176  0.00  0.00    +0.000 C 
ATOM     12  C   UNL     1       6.189   4.619  15.406  0.00  0.00    +0.000 A 
ATOM     13  N   UNL     1       7.395   5.192  15.302  0.00  0.00    +0.000 NA
ATOM     14  O   UNL     1       7.799   5.454  16.592  0.00  0.00    +0.000 OA
ATOM     15  C   UNL     1       6.838   5.046  17.462  0.00  0.00    +0.000 A 
ATOM     16  C   UNL     1       7.088   5.364  18.880  0.00  0.00    +0.000 C 
ATOM     17  C   UNL     1       5.828   4.407  16.769  0.00  0.00    +0.000 A 
ENDBRANCH  10  17
ENDBRANCH   1  10
BRANCH   6  18
ATOM     18  C   UNL     1       1.068   9.979  18.648  0.00  0.00    +0.000 C 
BRANCH  18  19
ATOM     19  N   UNL     1       0.527  10.357  19.938  0.00  0.00    +0.000 N 
ATOM     20  C   UNL     1       0.127  11.657  20.178  0.00  0.00    +0.000 C 
ATOM     21  O   UNL     1       0.126  12.505  19.281  0.00  0.00    +0.000 OA
ATOM     22  H   UNL     1       0.670   9.719  20.707  0.00  0.00    +0.000 HD
BRANCH  20  23
ATOM     23  C   UNL     1      -0.318  11.957  21.643  0.00  0.00    +0.000 C 
ATOM     24  C   UNL     1      -1.807  12.358  21.860  0.00  0.00    +0.000 C 
ATOM     25  C   UNL     1      -1.790  11.522  23.156  0.00  0.00    +0.000 C 
ATOM     26  C   UNL     1      -0.620  10.727  22.550  0.00  0.00    +0.000 C 
ENDBRANCH  20  23
ENDBRANCH  18  19
ENDBRANCH   6  18
TORSDOF 5
ENDMDL
MODEL 9
REMARK VINA RESULT:      -7.5      4.638      7.997
REMARK  Name = 
REMARK  7 active torsions:
REMARK  status: ('A' for Active; 'I' for Inactive)
REMARK    1  A    between atoms: C_1  and  C_2
REMARK    2  A    between atoms: C_5  and  C_6
REMARK    3  A    between atoms: C_7  and  C_8
REMARK    4  A    between atoms: C_8  and  N_9
REMARK    5  A    between atoms: C_14  and  C_15
REMARK    6  A    between atoms: C_15  and  N_16
REMARK    7  A    between atoms: C_17  and  C_19
REMARK                            x       y       z     vdW  Elec       q    Type
REMARK                         _______ _______ _______ _____ _____    ______ ____
ROOT
ATOM      1  N   UNL     1       3.859   5.243  18.137  0.00  0.00    +0.000 NA
ATOM      2  C   UNL     1       4.809   4.237  18.628  0.00  0.00    +0.000 C 
ATOM      3  C   UNL     1       6.177   4.785  19.030  0.00  0.00    +0.000 C 
ATOM      4  N   UNL     1       6.562   5.971  18.309  0.00  0.00    +0.000 N 
ATOM      5  C   UNL     1       7.744   6.643  18.468  0.00  0.00    +0.000 A 
ATOM      6  C   UNL     1       7.625   7.764  17.651  0.00  0.00    +0.000 A 
ATOM      7  N   UNL     1       6.397   7.742  17.005  0.00  0.00    +0.000 NA
ATOM      8  C   UNL     1       5.750   6.663  17.458  0.00  0.00    +0.000 A 
ATOM      9  C   UNL     1       4.353   6.221  17.167  0.00  0.00    +0.000 C 
ENDROOT
BRANCH   1  10
ATOM     10  C   UNL     1       2.511   4.726  17.869  0.00  0.00    +0.000 C 
BRANCH  10  17
ATOM     11  C   UNL     1       1.689   6.214  20.677  0.00  0.00    +0.000 C 
ATOM     12  C   UNL     1       1.764   4.762  20.379  0.00  0.00    +0.000 A 
ATOM     13  N   UNL     1       1.516   3.877  21.352  0.00  0.00    +0.000 NA
ATOM     14  O   UNL     1       1.534   2.640  20.748  0.00  0.00    +0.000 OA
ATOM     15  C   UNL     1       1.785   2.784  19.420  0.00  0.00    +0.000 A 
ATOM     16  C   UNL     1       1.725   1.546  18.623  0.00  0.00    +0.000 C 
ATOM     17  C   UNL     1       2.047   4.113  19.142  0.00  0.00    +0.000 A 
ENDBRANCH  10  17
ENDBRANCH   1  10
BRANCH   6  18
ATOM     18  C   UNL     1       8.593   8.884  17.518  0.00  0.00    +0.000 C 
BRANCH  18  19
ATOM     19  N   UNL     1       8.805   9.521  18.803  0.00  0.00    +0.000 N 
ATOM     20  C   UNL     1       9.138  10.859  18.876  0.00  0.00    +0.000 C 
ATOM     21  O   UNL     1       9.168  11.570  17.868  0.00  0.00    +0.000 OA
ATOM     22  H   UNL     1       8.934   8.919  19.603  0.00  0.00    +0.000 HD
BRANCH  20  23
ATOM     23  C   UNL     1       9.461  11.386  20.309  0.00  0.00    +0.000 C 
ATOM     24  C   UNL     1      10.864  12.026  20.526  0.00  0.00    +0.000 C 
ATOM     25  C   UNL     1      10.191  13.070  21.439  0.00  0.00    +0.000 C 
ATOM     26  C   UNL     1       8.877  12.778  20.693  0.00  0.00    +0.000 C 
ENDBRANCH  20  23
ENDBRANCH  18  19
ENDBRANCH   6  18
TORSDOF 5
ENDMDL
