MODEL 1
REMARK VINA RESULT:      -7.9      0.000      0.000
REMARK  Name = 
REMARK  5 active torsions:
REMARK  status: ('A' for Active; 'I' for Inactive)
REMARK    1  A    between atoms: C_1  and  C_2
REMARK    2  A    between atoms: N_9  and  C_10
REMARK    3  A    between atoms: C_10  and  C_11
REMARK    4  A    between atoms: C_14  and  C_15
REMARK    5  A    between atoms: N_24  and  C_25
REMARK                            x       y       z     vdW  Elec       q    Type
REMARK                         _______ _______ _______ _____ _____    ______ ____
ROOT
ATOM      1  C   UNL     1      -0.320  11.197  20.188  0.00  0.00    +0.000 C 
ATOM      2  C   UNL     1       0.444   9.982  20.547  0.00  0.00    +0.000 A 
ATOM      3  N   UNL     1       0.605   9.470  21.745  0.00  0.00    +0.000 NA
ATOM      4  N   UNL     1       1.303   8.291  21.609  0.00  0.00    +0.000 NA
ATOM      5  C   UNL     1       1.612   8.129  20.341  0.00  0.00    +0.000 A 
ATOM      6  N   UNL     1       2.184   7.062  19.736  0.00  0.00    +0.000 N 
ATOM      7  C   UNL     1       2.038   5.734  20.334  0.00  0.00    +0.000 C 
ATOM      8  C   UNL     1       1.925   4.701  19.176  0.00  0.00    +0.000 C 
ATOM      9  N   UNL     1       2.997   4.766  18.140  0.00  0.00    +0.000 NA
ATOM     10  C   UNL     1       3.168   6.180  17.709  0.00  0.00    +0.000 C 
ATOM     11  C   UNL     1       3.352   7.190  18.867  0.00  0.00    +0.000 C 
ATOM     12  N   UNL     1       1.071   9.176  19.630  0.00  0.00    +0.000 N 
ATOM     13  C   UNL     1       0.988   9.346  18.204  0.00  0.00    +0.000 C 
ENDROOT
BRANCH   9  14
ATOM     14  C   UNL     1       4.247   4.184  18.656  0.00  0.00    +0.000 C 
BRANCH  14  15
ATOM     15  C   UNL     1       5.418   4.541  17.818  0.00  0.00    +0.000 A 
ATOM     16  C   UNL     1       6.670   5.044  18.078  0.00  0.00    +0.000 A 
ATOM     17  N   UNL     1       7.389   5.132  16.915  0.00  0.00    +0.000 NA
ATOM     18  C   UNL     1       6.558   4.692  15.987  0.00  0.00    +0.000 A 
ATOM     19  O   UNL     1       5.336   4.301  16.473  0.00  0.00    +0.000 OA
BRANCH  18  20
ATOM     20  C   UNL     1       6.767   4.589  14.545  0.00  0.00    +0.000 A 
ATOM     21  C   UNL     1       5.984   3.689  13.805  0.00  0.00    +0.000 A 
ATOM     22  C   UNL     1       6.183   3.525  12.433  0.00  0.00    +0.000 A 
ATOM     23  C   UNL     1       7.168   4.262  11.781  0.00  0.00    +0.000 A 
ATOM     24  C   UNL     1       7.945   5.171  12.497  0.00  0.00    +0.000 A 
ATOM     25  C   UNL     1       7.745   5.336  13.872  0.00  0.00    +0.000 A 
ENDBRANCH  18  20
ENDBRANCH  14  15
ENDBRANCH   9  14
TORSDOF 3
ENDMDL
MODEL 2
REMARK VINA RESULT:      -7.9      0.282      1.003
REMARK  Name = 
REMARK  5 active torsions:
REMARK  status: ('A' for Active; 'I' for Inactive)
REMARK    1  A    between atoms: C_1  and  C_2
REMARK    2  A    between atoms: N_9  and  C_10
REMARK    3  A    between atoms: C_10  and  C_11
REMARK    4  A    between atoms: C_14  and  C_15
REMARK    5  A    between atoms: N_24  and  C_25
REMARK                            x       y       z     vdW  Elec       q    Type
REMARK                         _______ _______ _______ _____ _____    ______ ____
ROOT
ATOM      1  C   UNL     1      -0.023  11.301  20.371  0.00  0.00    +0.000 C 
ATOM      2  C   UNL     1       0.636  10.019  20.703  0.00  0.00    +0.000 A 
ATOM      3  N   UNL     1       0.756   9.471  21.890  0.00  0.00    +0.000 NA
ATOM      4  N   UNL     1       1.351   8.240  21.727  0.00  0.00    +0.000 NA
ATOM      5  C   UNL     1       1.643   8.078  20.455  0.00  0.00    +0.000 A 
ATOM      6  N   UNL     1       2.121   6.979  19.827  0.00  0.00    +0.000 N 
ATOM      7  C   UNL     1       1.865   5.656  20.398  0.00  0.00    +0.000 C 
ATOM      8  C   UNL     1       1.661   4.660  19.221  0.00  0.00    +0.000 C 
ATOM      9  N   UNL     1       2.732   4.655  18.182  0.00  0.00    +0.000 NA
ATOM     10  C   UNL     1       3.022   6.058  17.778  0.00  0.00    +0.000 C 
ATOM     11  C   UNL     1       3.293   7.025  18.955  0.00  0.00    +0.000 C 
ATOM     12  N   UNL     1       1.190   9.181  19.767  0.00  0.00    +0.000 N 
ATOM     13  C   UNL     1       1.118   9.387  18.345  0.00  0.00    +0.000 C 
ENDROOT
BRANCH   9  14
ATOM     14  C   UNL     1       3.931   3.959  18.681  0.00  0.00    +0.000 C 
BRANCH  14  15
ATOM     15  C   UNL     1       5.137   4.278  17.880  0.00  0.00    +0.000 A 
ATOM     16  C   UNL     1       6.402   4.724  18.180  0.00  0.00    +0.000 A 
ATOM     17  N   UNL     1       7.156   4.799  17.039  0.00  0.00    +0.000 NA
ATOM     18  C   UNL     1       6.332   4.408  16.082  0.00  0.00    +0.000 A 
ATOM     19  O   UNL     1       5.081   4.063  16.529  0.00  0.00    +0.000 OA
BRANCH  18  20
ATOM     20  C   UNL     1       6.575   4.318  14.645  0.00  0.00    +0.000 A 
ATOM     21  C   UNL     1       7.543   5.153  14.063  0.00  0.00    +0.000 A 
ATOM     22  C   UNL     1       7.774   5.133  12.687  0.00  0.00    +0.000 A 
ATOM     23  C   UNL     1       7.041   4.276  11.871  0.00  0.00    +0.000 A 
ATOM     24  C   UNL     1       6.087   3.430  12.433  0.00  0.00    +0.000 A 
ATOM     25  C   UNL     1       5.856   3.448  13.812  0.00  0.00    +0.000 A 
ENDBRANCH  18  20
ENDBRANCH  14  15
ENDBRANCH   9  14
TORSDOF 3
ENDMDL
MODEL 3
REMARK VINA RESULT:      -7.1      1.420      2.067
REMARK  Name = 
REMARK  5 active torsions:
REMARK  status: ('A' for Active; 'I' for Inactive)
REMARK    1  A    between atoms: C_1  and  C_2
REMARK    2  A    between atoms: N_9  and  C_10
REMARK    3  A    between atoms: C_10  and  C_11
REMARK    4  A    between atoms: C_14  and  C_15
REMARK    5  A    between atoms: N_24  and  C_25
REMARK                            x       y       z     vdW  Elec       q    Type
REMARK                         _______ _______ _______ _____ _____    ______ ____
ROOT
ATOM      1  C   UNL     1      -1.997  11.874  22.100  0.00  0.00    +0.000 C 
ATOM      2  C   UNL     1      -0.772  11.057  21.960  0.00  0.00    +0.000 A 
ATOM      3  N   UNL     1       0.022  10.644  22.919  0.00  0.00    +0.000 NA
ATOM      4  N   UNL     1       0.984   9.837  22.354  0.00  0.00    +0.000 NA
ATOM      5  C   UNL     1       0.803   9.818  21.051  0.00  0.00    +0.000 A 
ATOM      6  N   UNL     1       1.433   9.068  20.117  0.00  0.00    +0.000 N 
ATOM      7  C   UNL     1       2.025   7.787  20.505  0.00  0.00    +0.000 C 
ATOM      8  C   UNL     1       1.845   6.800  19.316  0.00  0.00    +0.000 C 
ATOM      9  N   UNL     1       2.319   7.289  17.989  0.00  0.00    +0.000 NA
ATOM     10  C   UNL     1       1.783   8.658  17.758  0.00  0.00    +0.000 C 
ATOM     11  C   UNL     1       2.031   9.651  18.919  0.00  0.00    +0.000 C 
ATOM     12  N   UNL     1      -0.313  10.570  20.761  0.00  0.00    +0.000 N 
ATOM     13  C   UNL     1      -1.007  10.702  19.508  0.00  0.00    +0.000 C 
ENDROOT
BRANCH   9  14
ATOM     14  C   UNL     1       3.790   7.245  17.918  0.00  0.00    +0.000 C 
BRANCH  14  15
ATOM     15  C   UNL     1       4.283   5.993  17.296  0.00  0.00    +0.000 A 
ATOM     16  C   UNL     1       4.272   4.667  17.659  0.00  0.00    +0.000 A 
ATOM     17  N   UNL     1       4.827   3.905  16.665  0.00  0.00    +0.000 NA
ATOM     18  C   UNL     1       5.166   4.782  15.737  0.00  0.00    +0.000 A 
ATOM     19  O   UNL     1       4.850   6.079  16.053  0.00  0.00    +0.000 OA
BRANCH  18  20
ATOM     20  C   UNL     1       5.832   4.550  14.458  0.00  0.00    +0.000 A 
ATOM     21  C   UNL     1       5.228   3.699  13.518  0.00  0.00    +0.000 A 
ATOM     22  C   UNL     1       5.853   3.412  12.304  0.00  0.00    +0.000 A 
ATOM     23  C   UNL     1       7.092   3.975  12.010  0.00  0.00    +0.000 A 
ATOM     24  C   UNL     1       7.700   4.833  12.925  0.00  0.00    +0.000 A 
ATOM     25  C   UNL     1       7.073   5.122  14.141  0.00  0.00    +0.000 A 
ENDBRANCH  18  20
ENDBRANCH  14  15
ENDBRANCH   9  14
TORSDOF 3
ENDMDL
MODEL 4
REMARK VINA RESULT:      -7.1      1.024      1.088
REMARK  Name = 
REMARK  5 active torsions:
REMARK  status: ('A' for Active; 'I' for Inactive)
REMARK    1  A    between atoms: C_1  and  C_2
REMARK    2  A    between atoms: N_9  and  C_10
REMARK    3  A    between atoms: C_10  and  C_11
REMARK    4  A    between atoms: C_14  and  C_15
REMARK    5  A    between atoms: N_24  and  C_25
REMARK                            x       y       z     vdW  Elec       q    Type
REMARK                         _______ _______ _______ _____ _____    ______ ____
ROOT
ATOM      1  C   UNL     1      -1.515  11.575  19.364  0.00  0.00    +0.000 C 
ATOM      2  C   UNL     1      -0.465  10.671  19.883  0.00  0.00    +0.000 A 
ATOM      3  N   UNL     1      -0.100  10.512  21.134  0.00  0.00    +0.000 NA
ATOM      4  N   UNL     1       0.840   9.507  21.174  0.00  0.00    +0.000 NA
ATOM      5  C   UNL     1       1.082   9.108  19.945  0.00  0.00    +0.000 A 
ATOM      6  N   UNL     1       1.840   8.069  19.524  0.00  0.00    +0.000 N 
ATOM      7  C   UNL     1       2.052   6.927  20.414  0.00  0.00    +0.000 C 
ATOM      8  C   UNL     1       2.095   5.642  19.539  0.00  0.00    +0.000 C 
ATOM      9  N   UNL     1       3.041   5.672  18.386  0.00  0.00    +0.000 NA
ATOM     10  C   UNL     1       2.846   6.941  17.633  0.00  0.00    +0.000 C 
ATOM     11  C   UNL     1       2.877   8.219  18.505  0.00  0.00    +0.000 C 
ATOM     12  N   UNL     1       0.261   9.813  19.094  0.00  0.00    +0.000 N 
ATOM     13  C   UNL     1       0.034   9.608  17.689  0.00  0.00    +0.000 C 
ENDROOT
BRANCH   9  14
ATOM     14  C   UNL     1       4.428   5.507  18.853  0.00  0.00    +0.000 C 
BRANCH  14  15
ATOM     15  C   UNL     1       5.416   5.765  17.777  0.00  0.00    +0.000 A 
ATOM     16  C   UNL     1       6.529   6.563  17.664  0.00  0.00    +0.000 A 
ATOM     17  N   UNL     1       7.119   6.371  16.442  0.00  0.00    +0.000 NA
ATOM     18  C   UNL     1       6.349   5.477  15.848  0.00  0.00    +0.000 A 
ATOM     19  O   UNL     1       5.292   5.053  16.615  0.00  0.00    +0.000 OA
BRANCH  18  20
ATOM     20  C   UNL     1       6.468   4.913  14.506  0.00  0.00    +0.000 A 
ATOM     21  C   UNL     1       5.498   4.001  14.060  0.00  0.00    +0.000 A 
ATOM     22  C   UNL     1       5.599   3.402  12.804  0.00  0.00    +0.000 A 
ATOM     23  C   UNL     1       6.673   3.709  11.973  0.00  0.00    +0.000 A 
ATOM     24  C   UNL     1       7.638   4.623  12.392  0.00  0.00    +0.000 A 
ATOM     25  C   UNL     1       7.535   5.225  13.651  0.00  0.00    +0.000 A 
ENDBRANCH  18  20
ENDBRANCH  14  15
ENDBRANCH   9  14
TORSDOF 3
ENDMDL
MODEL 5
REMARK VINA RESULT:      -7.1      1.049      1.450
REMARK  Name = 
REMARK  5 active torsions:
REMARK  status: ('A' for Active; 'I' for Inactive)
REMARK    1  A    between atoms: C_1  and  C_2
REMARK    2  A    between atoms: N_9  and  C_10
REMARK    3  A    between atoms: C_10  and  C_11
REMARK    4  A    between atoms: C_14  and  C_15
REMARK    5  A    between atoms: N_24  and  C_25
REMARK                            x       y       z     vdW  Elec       q    Type
REMARK                         _______ _______ _______ _____ _____    ______ ____
ROOT
ATOM      1  C   UNL     1      -1.414  11.683  20.083  0.00  0.00    +0.000 C 
ATOM      2  C   UNL     1      -0.366  10.708  20.456  0.00  0.00    +0.000 A 
ATOM      3  N   UNL     1       0.104  10.466  21.658  0.00  0.00    +0.000 NA
ATOM      4  N   UNL     1       0.995   9.421  21.560  0.00  0.00    +0.000 NA
ATOM      5  C   UNL     1       1.105   9.080  20.294  0.00  0.00    +0.000 A 
ATOM      6  N   UNL     1       1.770   8.033  19.752  0.00  0.00    +0.000 N 
ATOM      7  C   UNL     1       2.008   6.836  20.560  0.00  0.00    +0.000 C 
ATOM      8  C   UNL     1       1.909   5.600  19.621  0.00  0.00    +0.000 C 
ATOM      9  N   UNL     1       2.748   5.653  18.388  0.00  0.00    +0.000 NA
ATOM     10  C   UNL     1       2.546   6.969  17.722  0.00  0.00    +0.000 C 
ATOM     11  C   UNL     1       2.716   8.195  18.651  0.00  0.00    +0.000 C 
ATOM     12  N   UNL     1       0.244   9.865  19.561  0.00  0.00    +0.000 N 
ATOM     13  C   UNL     1      -0.120   9.746  18.175  0.00  0.00    +0.000 C 
ENDROOT
BRANCH   9  14
ATOM     14  C   UNL     1       4.162   5.403  18.715  0.00  0.00    +0.000 C 
BRANCH  14  15
ATOM     15  C   UNL     1       5.065   5.746  17.590  0.00  0.00    +0.000 A 
ATOM     16  C   UNL     1       5.996   6.732  17.368  0.00  0.00    +0.000 A 
ATOM     17  N   UNL     1       6.598   6.543  16.152  0.00  0.00    +0.000 NA
ATOM     18  C   UNL     1       6.014   5.461  15.668  0.00  0.00    +0.000 A 
ATOM     19  O   UNL     1       5.072   4.914  16.503  0.00  0.00    +0.000 OA
BRANCH  18  20
ATOM     20  C   UNL     1       6.227   4.804  14.381  0.00  0.00    +0.000 A 
ATOM     21  C   UNL     1       7.392   5.093  13.653  0.00  0.00    +0.000 A 
ATOM     22  C   UNL     1       7.614   4.524  12.398  0.00  0.00    +0.000 A 
ATOM     23  C   UNL     1       6.673   3.654  11.853  0.00  0.00    +0.000 A 
ATOM     24  C   UNL     1       5.517   3.344  12.569  0.00  0.00    +0.000 A 
ATOM     25  C   UNL     1       5.296   3.913  13.827  0.00  0.00    +0.000 A 
ENDBRANCH  18  20
ENDBRANCH  14  15
ENDBRANCH   9  14
TORSDOF 3
ENDMDL
MODEL 6
REMARK VINA RESULT:      -6.8      1.098      1.868
REMARK  Name = 
REMARK  5 active torsions:
REMARK  status: ('A' for Active; 'I' for Inactive)
REMARK    1  A    between atoms: C_1  and  C_2
REMARK    2  A    between atoms: N_9  and  C_10
REMARK    3  A    between atoms: C_10  and  C_11
REMARK    4  A    between atoms: C_14  and  C_15
REMARK    5  A    between atoms: N_24  and  C_25
REMARK                            x       y       z     vdW  Elec       q    Type
REMARK                         _______ _______ _______ _____ _____    ______ ____
ROOT
ATOM      1  C   UNL     1       0.047  11.157  20.292  0.00  0.00    +0.000 C 
ATOM      2  C   UNL     1       0.793  10.244  19.399  0.00  0.00    +0.000 A 
ATOM      3  N   UNL     1       1.147  10.462  18.154  0.00  0.00    +0.000 NA
ATOM      4  N   UNL     1       1.905   9.391  17.737  0.00  0.00    +0.000 NA
ATOM      5  C   UNL     1       1.952   8.505  18.709  0.00  0.00    +0.000 A 
ATOM      6  N   UNL     1       2.678   7.366  18.784  0.00  0.00    +0.000 N 
ATOM      7  C   UNL     1       3.917   7.251  18.014  0.00  0.00    +0.000 C 
ATOM      8  C   UNL     1       4.929   6.427  18.861  0.00  0.00    +0.000 C 
ATOM      9  N   UNL     1       4.432   5.117  19.374  0.00  0.00    +0.000 NA
ATOM     10  C   UNL     1       3.099   5.319  20.004  0.00  0.00    +0.000 C 
ATOM     11  C   UNL     1       2.077   6.078  19.124  0.00  0.00    +0.000 C 
ATOM     12  N   UNL     1       1.269   9.016  19.790  0.00  0.00    +0.000 N 
ATOM     13  C   UNL     1       1.195   8.502  21.130  0.00  0.00    +0.000 C 
ENDROOT
BRANCH   9  14
ATOM     14  C   UNL     1       4.392   4.121  18.290  0.00  0.00    +0.000 C 
BRANCH  14  15
ATOM     15  C   UNL     1       5.561   4.232  17.383  0.00  0.00    +0.000 A 
ATOM     16  C   UNL     1       6.919   4.338  17.571  0.00  0.00    +0.000 A 
ATOM     17  N   UNL     1       7.558   4.354  16.360  0.00  0.00    +0.000 NA
ATOM     18  C   UNL     1       6.580   4.267  15.477  0.00  0.00    +0.000 A 
ATOM     19  O   UNL     1       5.330   4.178  16.035  0.00  0.00    +0.000 OA
BRANCH  18  20
ATOM     20  C   UNL     1       6.660   4.274  14.018  0.00  0.00    +0.000 A 
ATOM     21  C   UNL     1       5.823   3.418  13.285  0.00  0.00    +0.000 A 
ATOM     22  C   UNL     1       5.900   3.358  11.893  0.00  0.00    +0.000 A 
ATOM     23  C   UNL     1       6.815   4.156  11.212  0.00  0.00    +0.000 A 
ATOM     24  C   UNL     1       7.644   5.023  11.923  0.00  0.00    +0.000 A 
ATOM     25  C   UNL     1       7.566   5.084  13.318  0.00  0.00    +0.000 A 
ENDBRANCH  18  20
ENDBRANCH  14  15
ENDBRANCH   9  14
TORSDOF 3
ENDMDL
MODEL 7
REMARK VINA RESULT:      -6.7      3.900      6.053
REMARK  Name = 
REMARK  5 active torsions:
REMARK  status: ('A' for Active; 'I' for Inactive)
REMARK    1  A    between atoms: C_1  and  C_2
REMARK    2  A    between atoms: N_9  and  C_10
REMARK    3  A    between atoms: C_10  and  C_11
REMARK    4  A    between atoms: C_14  and  C_15
REMARK    5  A    between atoms: N_24  and  C_25
REMARK                            x       y       z     vdW  Elec       q    Type
REMARK                         _______ _______ _______ _____ _____    ______ ____
ROOT
ATOM      1  C   UNL     1      -3.058  15.738  21.990  0.00  0.00    +0.000 C 
ATOM      2  C   UNL     1      -2.106  14.689  22.417  0.00  0.00    +0.000 A 
ATOM      3  N   UNL     1      -1.480  14.603  23.568  0.00  0.00    +0.000 NA
ATOM      4  N   UNL     1      -0.770  13.424  23.575  0.00  0.00    +0.000 NA
ATOM      5  C   UNL     1      -0.920  12.836  22.408  0.00  0.00    +0.000 A 
ATOM      6  N   UNL     1      -0.504  11.609  22.017  0.00  0.00    +0.000 N 
ATOM      7  C   UNL     1      -0.301  10.564  23.021  0.00  0.00    +0.000 C 
ATOM      8  C   UNL     1      -0.723   9.207  22.389  0.00  0.00    +0.000 C 
ATOM      9  N   UNL     1      -0.103   8.884  21.071  0.00  0.00    +0.000 NA
ATOM     10  C   UNL     1      -0.231  10.064  20.174  0.00  0.00    +0.000 C 
ATOM     11  C   UNL     1       0.259  11.398  20.788  0.00  0.00    +0.000 C 
ATOM     12  N   UNL     1      -1.775  13.601  21.648  0.00  0.00    +0.000 N 
ATOM     13  C   UNL     1      -2.377  13.285  20.381  0.00  0.00    +0.000 C 
ENDROOT
BRANCH   9  14
ATOM     14  C   UNL     1       1.298   8.466  21.250  0.00  0.00    +0.000 C 
BRANCH  14  15
ATOM     15  C   UNL     1       1.810   7.710  20.081  0.00  0.00    +0.000 A 
ATOM     16  C   UNL     1       2.273   8.059  18.835  0.00  0.00    +0.000 A 
ATOM     17  N   UNL     1       2.682   6.941  18.157  0.00  0.00    +0.000 NA
ATOM     18  C   UNL     1       2.449   5.950  19.000  0.00  0.00    +0.000 A 
ATOM     19  O   UNL     1       1.925   6.351  20.203  0.00  0.00    +0.000 OA
BRANCH  18  20
ATOM     20  C   UNL     1       2.656   4.517  18.807  0.00  0.00    +0.000 A 
ATOM     21  C   UNL     1       1.552   3.700  18.518  0.00  0.00    +0.000 A 
ATOM     22  C   UNL     1       1.698   2.320  18.373  0.00  0.00    +0.000 A 
ATOM     23  C   UNL     1       2.954   1.736  18.512  0.00  0.00    +0.000 A 
ATOM     24  C   UNL     1       4.065   2.533  18.784  0.00  0.00    +0.000 A 
ATOM     25  C   UNL     1       3.918   3.916  18.928  0.00  0.00    +0.000 A 
ENDBRANCH  18  20
ENDBRANCH  14  15
ENDBRANCH   9  14
TORSDOF 3
ENDMDL
MODEL 8
REMARK VINA RESULT:      -6.6      4.180      6.564
REMARK  Name = 
REMARK  5 active torsions:
REMARK  status: ('A' for Active; 'I' for Inactive)
REMARK    1  A    between atoms: C_1  and  C_2
REMARK    2  A    between atoms: N_9  and  C_10
REMARK    3  A    between atoms: C_10  and  C_11
REMARK    4  A    between atoms: C_14  and  C_15
REMARK    5  A    between atoms: N_24  and  C_25
REMARK                            x       y       z     vdW  Elec       q    Type
REMARK                         _______ _______ _______ _____ _____    ______ ____
ROOT
ATOM      1  C   UNL     1      -3.697  15.078  22.865  0.00  0.00    +0.000 C 
ATOM      2  C   UNL     1      -2.473  14.256  22.752  0.00  0.00    +0.000 A 
ATOM      3  N   UNL     1      -1.572  14.038  23.682  0.00  0.00    +0.000 NA
ATOM      4  N   UNL     1      -0.655  13.142  23.180  0.00  0.00    +0.000 NA
ATOM      5  C   UNL     1      -0.971  12.873  21.932  0.00  0.00    +0.000 A 
ATOM      6  N   UNL     1      -0.423  11.960  21.097  0.00  0.00    +0.000 N 
ATOM      7  C   UNL     1       0.238  10.780  21.656  0.00  0.00    +0.000 C 
ATOM      8  C   UNL     1      -0.040   9.582  20.703  0.00  0.00    +0.000 C 
ATOM      9  N   UNL     1       0.280   9.809  19.264  0.00  0.00    +0.000 NA
ATOM     10  C   UNL     1      -0.312  11.106  18.835  0.00  0.00    +0.000 C 
ATOM     11  C   UNL     1       0.030  12.305  19.751  0.00  0.00    +0.000 C 
ATOM     12  N   UNL     1      -2.130  13.550  21.626  0.00  0.00    +0.000 N 
ATOM     13  C   UNL     1      -2.954  13.435  20.453  0.00  0.00    +0.000 C 
ENDROOT
BRANCH   9  14
ATOM     14  C   UNL     1       1.735   9.760  19.045  0.00  0.00    +0.000 C 
BRANCH  14  15
ATOM     15  C   UNL     1       2.204   8.394  18.704  0.00  0.00    +0.000 A 
ATOM     16  C   UNL     1       2.897   7.849  17.650  0.00  0.00    +0.000 A 
ATOM     17  N   UNL     1       3.117   6.516  17.874  0.00  0.00    +0.000 NA
ATOM     18  C   UNL     1       2.549   6.287  19.044  0.00  0.00    +0.000 A 
ATOM     19  O   UNL     1       1.980   7.397  19.615  0.00  0.00    +0.000 OA
BRANCH  18  20
ATOM     20  C   UNL     1       2.437   5.029  19.777  0.00  0.00    +0.000 A 
ATOM     21  C   UNL     1       3.508   4.121  19.741  0.00  0.00    +0.000 A 
ATOM     22  C   UNL     1       3.425   2.887  20.388  0.00  0.00    +0.000 A 
ATOM     23  C   UNL     1       2.269   2.544  21.084  0.00  0.00    +0.000 A 
ATOM     24  C   UNL     1       1.202   3.438  21.143  0.00  0.00    +0.000 A 
ATOM     25  C   UNL     1       1.285   4.675  20.496  0.00  0.00    +0.000 A 
ENDBRANCH  18  20
ENDBRANCH  14  15
ENDBRANCH   9  14
TORSDOF 3
ENDMDL
MODEL 9
REMARK VINA RESULT:      -6.5      3.940      6.369
REMARK  Name = 
REMARK  5 active torsions:
REMARK  status: ('A' for Active; 'I' for Inactive)
REMARK    1  A    between atoms: C_1  and  C_2
REMARK    2  A    between atoms: N_9  and  C_10
REMARK    3  A    between atoms: C_10  and  C_11
REMARK    4  A    between atoms: C_14  and  C_15
REMARK    5  A    between atoms: N_24  and  C_25
REMARK                            x       y       z     vdW  Elec       q    Type
REMARK                         _______ _______ _______ _____ _____    ______ ____
ROOT
ATOM      1  C   UNL     1      -4.235  14.922  21.201  0.00  0.00    +0.000 C 
ATOM      2  C   UNL     1      -2.855  14.470  20.921  0.00  0.00    +0.000 A 
ATOM      3  N   UNL     1      -1.737  15.067  21.265  0.00  0.00    +0.000 NA
ATOM      4  N   UNL     1      -0.692  14.255  20.887  0.00  0.00    +0.000 NA
ATOM      5  C   UNL     1      -1.179  13.205  20.263  0.00  0.00    +0.000 A 
ATOM      6  N   UNL     1      -0.531  12.099  19.830  0.00  0.00    +0.000 N 
ATOM      7  C   UNL     1       0.712  11.692  20.485  0.00  0.00    +0.000 C 
ATOM      8  C   UNL     1       0.753  10.137  20.507  0.00  0.00    +0.000 C 
ATOM      9  N   UNL     1       0.532   9.463  19.194  0.00  0.00    +0.000 NA
ATOM     10  C   UNL     1      -0.669  10.054  18.543  0.00  0.00    +0.000 C 
ATOM     11  C   UNL     1      -0.665  11.600  18.463  0.00  0.00    +0.000 C 
ATOM     12  N   UNL     1      -2.553  13.297  20.276  0.00  0.00    +0.000 N 
ATOM     13  C   UNL     1      -3.523  12.312  19.879  0.00  0.00    +0.000 C 
ENDROOT
BRANCH   9  14
ATOM     14  C   UNL     1       1.734   9.571  18.351  0.00  0.00    +0.000 C 
BRANCH  14  15
ATOM     15  C   UNL     1       2.477   8.290  18.267  0.00  0.00    +0.000 A 
ATOM     16  C   UNL     1       3.595   7.867  17.589  0.00  0.00    +0.000 A 
ATOM     17  N   UNL     1       3.883   6.571  17.925  0.00  0.00    +0.000 NA
ATOM     18  C   UNL     1       2.935   6.241  18.784  0.00  0.00    +0.000 A 
ATOM     19  O   UNL     1       2.045   7.251  19.049  0.00  0.00    +0.000 OA
BRANCH  18  20
ATOM     20  C   UNL     1       2.712   4.963  19.455  0.00  0.00    +0.000 A 
ATOM     21  C   UNL     1       1.461   4.708  20.040  0.00  0.00    +0.000 A 
ATOM     22  C   UNL     1       1.220   3.521  20.731  0.00  0.00    +0.000 A 
ATOM     23  C   UNL     1       2.228   2.567  20.846  0.00  0.00    +0.000 A 
ATOM     24  C   UNL     1       3.471   2.796  20.259  0.00  0.00    +0.000 A 
ATOM     25  C   UNL     1       3.712   3.986  19.565  0.00  0.00    +0.000 A 
ENDBRANCH  18  20
ENDBRANCH  14  15
ENDBRANCH   9  14
TORSDOF 3
ENDMDL
