MODEL 1
REMARK VINA RESULT:      -7.5      0.000      0.000
REMARK  Name = 
REMARK  10 active torsions:
REMARK  status: ('A' for Active; 'I' for Inactive)
REMARK    1  A    between atoms: C_1  and  C_2
REMARK    2  A    between atoms: C_2  and  N_4
REMARK    3  A    between atoms: N_4  and  N_5
REMARK    4  A    between atoms: N_4  and  C_22
REMARK    5  A    between atoms: C_6  and  C_8
REMARK    6  A    between atoms: C_8  and  C_9
REMARK    7  A    between atoms: N_11  and  N_12
REMARK    8  A    between atoms: N_12  and  C_13
REMARK    9  A    between atoms: N_12  and  C_16
REMARK   10  A    between atoms: C_13  and  C_14
REMARK                            x       y       z     vdW  Elec       q    Type
REMARK                         _______ _______ _______ _____ _____    ______ ____
ROOT
ATOM      1  C   UNL     1       1.734   7.848  20.752  0.00  0.00    +0.000 C 
ENDROOT
BRANCH   1   3
ATOM      2  N   UNL     1       1.199   9.791  19.280  0.00  0.00    +0.000 N 
ATOM      3  C   UNL     1       0.878   9.064  20.419  0.00  0.00    +0.000 C 
ATOM      4  O   UNL     1      -0.027   9.377  21.195  0.00  0.00    +0.000 OA
ATOM      5  H   UNL     1       1.934   9.485  18.642  0.00  0.00    +0.000 HD
BRANCH   2   6
ATOM      6  N   UNL     1       0.517  11.026  18.977  0.00  0.00    +0.000 N 
BRANCH   6   7
ATOM      7  C   UNL     1      -0.842  10.933  18.477  0.00  0.00    +0.000 A 
ATOM      8  C   UNL     1      -1.914  11.711  18.935  0.00  0.00    +0.000 A 
ATOM      9  C   UNL     1      -3.208  11.569  18.411  0.00  0.00    +0.000 A 
ATOM     10  C   UNL     1      -3.471  10.627  17.426  0.00  0.00    +0.000 A 
ATOM     11  C   UNL     1      -2.440   9.819  16.972  0.00  0.00    +0.000 A 
ATOM     12  C   UNL     1      -1.153   9.967  17.498  0.00  0.00    +0.000 A 
ENDBRANCH   6   7
BRANCH   6  14
ATOM     13  C   UNL     1       2.138  12.765  18.305  0.00  0.00    +0.000 C 
ATOM     14  C   UNL     1       1.182  12.212  19.358  0.00  0.00    +0.000 C 
ATOM     15  S   UNL     1       1.053  13.078  20.798  0.00  0.00    +0.000 S 
ENDBRANCH   6  14
ENDBRANCH   2   6
ENDBRANCH   1   3
BRANCH   1  16
ATOM     16  C   UNL     1       2.283   7.044  19.599  0.00  0.00    +0.000 C 
ATOM     17  O   UNL     1       1.990   7.320  18.437  0.00  0.00    +0.000 OA
ATOM     18  N   UNL     1       3.153   6.027  19.979  0.00  0.00    +0.000 N 
ATOM     19  H   UNL     1       3.321   5.765  20.946  0.00  0.00    +0.000 HD
BRANCH  18  20
ATOM     20  N   UNL     1       3.809   5.217  18.998  0.00  0.00    +0.000 N 
BRANCH  20  21
ATOM     21  C   UNL     1       5.092   5.657  18.562  0.00  0.00    +0.000 A 
ATOM     22  C   UNL     1       6.227   5.323  19.311  0.00  0.00    +0.000 A 
ATOM     23  C   UNL     1       7.476   5.821  18.957  0.00  0.00    +0.000 A 
ATOM     24  C   UNL     1       7.602   6.668  17.860  0.00  0.00    +0.000 A 
ATOM     25  C   UNL     1       6.480   7.008  17.103  0.00  0.00    +0.000 A 
ATOM     26  C   UNL     1       5.225   6.503  17.453  0.00  0.00    +0.000 A 
ENDBRANCH  20  21
BRANCH  20  27
ATOM     27  C   UNL     1       3.250   3.970  18.685  0.00  0.00    +0.000 C 
ATOM     28  C   UNL     1       2.352   3.863  17.454  0.00  0.00    +0.000 C 
ATOM     29  S   UNL     1       3.592   2.542  19.523  0.00  0.00    +0.000 S 
ENDBRANCH  20  27
ENDBRANCH  18  20
ENDBRANCH   1  16
TORSDOF 8
ENDMDL
MODEL 2
REMARK VINA RESULT:      -7.4      0.455      1.035
REMARK  Name = 
REMARK  10 active torsions:
REMARK  status: ('A' for Active; 'I' for Inactive)
REMARK    1  A    between atoms: C_1  and  C_2
REMARK    2  A    between atoms: C_2  and  N_4
REMARK    3  A    between atoms: N_4  and  N_5
REMARK    4  A    between atoms: N_4  and  C_22
REMARK    5  A    between atoms: C_6  and  C_8
REMARK    6  A    between atoms: C_8  and  C_9
REMARK    7  A    between atoms: N_11  and  N_12
REMARK    8  A    between atoms: N_12  and  C_13
REMARK    9  A    between atoms: N_12  and  C_16
REMARK   10  A    between atoms: C_13  and  C_14
REMARK                            x       y       z     vdW  Elec       q    Type
REMARK                         _______ _______ _______ _____ _____    ______ ____
ROOT
ATOM      1  C   UNL     1       1.646   8.189  20.808  0.00  0.00    +0.000 C 
ENDROOT
BRANCH   1   3
ATOM      2  N   UNL     1       0.946  10.123  19.395  0.00  0.00    +0.000 N 
ATOM      3  C   UNL     1       0.664   9.307  20.482  0.00  0.00    +0.000 C 
ATOM      4  O   UNL     1      -0.310   9.469  21.221  0.00  0.00    +0.000 OA
ATOM      5  H   UNL     1       1.743   9.941  18.784  0.00  0.00    +0.000 HD
BRANCH   2   6
ATOM      6  N   UNL     1       0.131  11.280  19.109  0.00  0.00    +0.000 N 
BRANCH   6   7
ATOM      7  C   UNL     1      -1.167  11.048  18.505  0.00  0.00    +0.000 A 
ATOM      8  C   UNL     1      -2.340  11.733  18.853  0.00  0.00    +0.000 A 
ATOM      9  C   UNL     1      -3.568  11.459  18.231  0.00  0.00    +0.000 A 
ATOM     10  C   UNL     1      -3.660  10.475  17.256  0.00  0.00    +0.000 A 
ATOM     11  C   UNL     1      -2.526   9.757  16.910  0.00  0.00    +0.000 A 
ATOM     12  C   UNL     1      -1.306  10.037  17.533  0.00  0.00    +0.000 A 
ENDBRANCH   6   7
BRANCH   6  14
ATOM     13  C   UNL     1       1.283  13.393  18.554  0.00  0.00    +0.000 C 
ATOM     14  C   UNL     1       0.610  12.513  19.603  0.00  0.00    +0.000 C 
ATOM     15  S   UNL     1       0.530  13.124  21.171  0.00  0.00    +0.000 S 
ENDBRANCH   6  14
ENDBRANCH   2   6
ENDBRANCH   1   3
BRANCH   1  16
ATOM     16  C   UNL     1       2.149   7.346  19.662  0.00  0.00    +0.000 C 
ATOM     17  O   UNL     1       1.935   7.669  18.495  0.00  0.00    +0.000 OA
ATOM     18  N   UNL     1       2.886   6.233  20.055  0.00  0.00    +0.000 N 
ATOM     19  H   UNL     1       2.985   5.941  21.023  0.00  0.00    +0.000 HD
BRANCH  18  20
ATOM     20  N   UNL     1       3.487   5.370  19.085  0.00  0.00    +0.000 N 
BRANCH  20  21
ATOM     21  C   UNL     1       4.788   5.731  18.630  0.00  0.00    +0.000 A 
ATOM     22  C   UNL     1       4.930   6.405  17.411  0.00  0.00    +0.000 A 
ATOM     23  C   UNL     1       6.194   6.683  16.903  0.00  0.00    +0.000 A 
ATOM     24  C   UNL     1       7.329   6.278  17.600  0.00  0.00    +0.000 A 
ATOM     25  C   UNL     1       7.203   5.606  18.816  0.00  0.00    +0.000 A 
ATOM     26  C   UNL     1       5.933   5.333  19.333  0.00  0.00    +0.000 A 
ENDBRANCH  20  21
BRANCH  20  27
ATOM     27  C   UNL     1       2.858   4.149  18.802  0.00  0.00    +0.000 C 
ATOM     28  C   UNL     1       1.884   4.088  17.627  0.00  0.00    +0.000 C 
ATOM     29  S   UNL     1       3.190   2.702  19.612  0.00  0.00    +0.000 S 
ENDBRANCH  20  27
ENDBRANCH  18  20
ENDBRANCH   1  16
TORSDOF 8
ENDMDL
MODEL 3
REMARK VINA RESULT:      -7.4      1.266      8.372
REMARK  Name = 
REMARK  10 active torsions:
REMARK  status: ('A' for Active; 'I' for Inactive)
REMARK    1  A    between atoms: C_1  and  C_2
REMARK    2  A    between atoms: C_2  and  N_4
REMARK    3  A    between atoms: N_4  and  N_5
REMARK    4  A    between atoms: N_4  and  C_22
REMARK    5  A    between atoms: C_6  and  C_8
REMARK    6  A    between atoms: C_8  and  C_9
REMARK    7  A    between atoms: N_11  and  N_12
REMARK    8  A    between atoms: N_12  and  C_13
REMARK    9  A    between atoms: N_12  and  C_16
REMARK   10  A    between atoms: C_13  and  C_14
REMARK                            x       y       z     vdW  Elec       q    Type
REMARK                         _______ _______ _______ _____ _____    ______ ____
ROOT
ATOM      1  C   UNL     1       1.715   7.966  21.258  0.00  0.00    +0.000 C 
ENDROOT
BRANCH   1   3
ATOM      2  N   UNL     1       2.823   5.992  20.208  0.00  0.00    +0.000 N 
ATOM      3  C   UNL     1       2.163   7.198  20.020  0.00  0.00    +0.000 C 
ATOM      4  O   UNL     1       1.964   7.701  18.912  0.00  0.00    +0.000 OA
ATOM      5  H   UNL     1       2.942   5.588  21.138  0.00  0.00    +0.000 HD
BRANCH   2   6
ATOM      6  N   UNL     1       3.389   5.278  19.089  0.00  0.00    +0.000 N 
BRANCH   6   7
ATOM      7  C   UNL     1       4.688   5.712  18.608  0.00  0.00    +0.000 A 
ATOM      8  C   UNL     1       4.890   6.515  17.478  0.00  0.00    +0.000 A 
ATOM      9  C   UNL     1       6.175   6.898  17.063  0.00  0.00    +0.000 A 
ATOM     10  C   UNL     1       7.297   6.469  17.759  0.00  0.00    +0.000 A 
ATOM     11  C   UNL     1       7.135   5.648  18.864  0.00  0.00    +0.000 A 
ATOM     12  C   UNL     1       5.851   5.272  19.271  0.00  0.00    +0.000 A 
ENDBRANCH   6   7
BRANCH   6  14
ATOM     13  C   UNL     1       1.607   4.365  17.642  0.00  0.00    +0.000 C 
ATOM     14  C   UNL     1       2.698   4.116  18.680  0.00  0.00    +0.000 C 
ATOM     15  S   UNL     1       2.924   2.523  19.180  0.00  0.00    +0.000 S 
ENDBRANCH   6  14
ENDBRANCH   2   6
ENDBRANCH   1   3
BRANCH   1  16
ATOM     16  C   UNL     1       0.530   8.888  21.117  0.00  0.00    +0.000 C 
ATOM     17  O   UNL     1      -0.584   8.555  21.520  0.00  0.00    +0.000 OA
ATOM     18  N   UNL     1       0.832  10.120  20.543  0.00  0.00    +0.000 N 
ATOM     19  H   UNL     1       1.739  10.344  20.146  0.00  0.00    +0.000 HD
BRANCH  18  20
ATOM     20  N   UNL     1      -0.172  11.129  20.401  0.00  0.00    +0.000 N 
BRANCH  20  21
ATOM     21  C   UNL     1      -1.041  11.010  19.278  0.00  0.00    +0.000 A 
ATOM     22  C   UNL     1      -2.260  11.699  19.272  0.00  0.00    +0.000 A 
ATOM     23  C   UNL     1      -3.164  11.522  18.231  0.00  0.00    +0.000 A 
ATOM     24  C   UNL     1      -2.865  10.647  17.190  0.00  0.00    +0.000 A 
ATOM     25  C   UNL     1      -1.654   9.955  17.182  0.00  0.00    +0.000 A 
ATOM     26  C   UNL     1      -0.740  10.136  18.224  0.00  0.00    +0.000 A 
ENDBRANCH  20  21
BRANCH  20  27
ATOM     27  C   UNL     1      -0.360  12.032  21.456  0.00  0.00    +0.000 C 
ATOM     28  C   UNL     1       0.257  13.425  21.340  0.00  0.00    +0.000 C 
ATOM     29  S   UNL     1      -1.322  11.719  22.811  0.00  0.00    +0.000 S 
ENDBRANCH  20  27
ENDBRANCH  18  20
ENDBRANCH   1  16
TORSDOF 8
ENDMDL
MODEL 4
REMARK VINA RESULT:      -7.3      0.875      8.416
REMARK  Name = 
REMARK  10 active torsions:
REMARK  status: ('A' for Active; 'I' for Inactive)
REMARK    1  A    between atoms: C_1  and  C_2
REMARK    2  A    between atoms: C_2  and  N_4
REMARK    3  A    between atoms: N_4  and  N_5
REMARK    4  A    between atoms: N_4  and  C_22
REMARK    5  A    between atoms: C_6  and  C_8
REMARK    6  A    between atoms: C_8  and  C_9
REMARK    7  A    between atoms: N_11  and  N_12
REMARK    8  A    between atoms: N_12  and  C_13
REMARK    9  A    between atoms: N_12  and  C_16
REMARK   10  A    between atoms: C_13  and  C_14
REMARK                            x       y       z     vdW  Elec       q    Type
REMARK                         _______ _______ _______ _____ _____    ______ ____
ROOT
ATOM      1  C   UNL     1       1.627   8.203  20.884  0.00  0.00    +0.000 C 
ENDROOT
BRANCH   1   3
ATOM      2  N   UNL     1       2.815   6.198  19.992  0.00  0.00    +0.000 N 
ATOM      3  C   UNL     1       2.130   7.372  19.710  0.00  0.00    +0.000 C 
ATOM      4  O   UNL     1       1.950   7.799  18.567  0.00  0.00    +0.000 OA
ATOM      5  H   UNL     1       2.918   5.857  20.948  0.00  0.00    +0.000 HD
BRANCH   2   6
ATOM      6  N   UNL     1       3.432   5.432  18.935  0.00  0.00    +0.000 N 
BRANCH   6   7
ATOM      7  C   UNL     1       4.779   5.800  18.543  0.00  0.00    +0.000 A 
ATOM      8  C   UNL     1       5.093   6.626  17.455  0.00  0.00    +0.000 A 
ATOM      9  C   UNL     1       6.420   6.942  17.125  0.00  0.00    +0.000 A 
ATOM     10  C   UNL     1       7.473   6.421  17.865  0.00  0.00    +0.000 A 
ATOM     11  C   UNL     1       7.200   5.576  18.928  0.00  0.00    +0.000 A 
ATOM     12  C   UNL     1       5.875   5.267  19.251  0.00  0.00    +0.000 A 
ENDBRANCH   6   7
BRANCH   6  14
ATOM     13  C   UNL     1       3.280   3.643  17.238  0.00  0.00    +0.000 C 
ATOM     14  C   UNL     1       2.724   4.288  18.504  0.00  0.00    +0.000 C 
ATOM     15  S   UNL     1       1.373   3.559  19.200  0.00  0.00    +0.000 S 
ENDBRANCH   6  14
ENDBRANCH   2   6
ENDBRANCH   1   3
BRANCH   1  16
ATOM     16  C   UNL     1       0.586   9.256  20.599  0.00  0.00    +0.000 C 
ATOM     17  O   UNL     1      -0.481   9.275  21.211  0.00  0.00    +0.000 OA
ATOM     18  N   UNL     1       0.968  10.189  19.639  0.00  0.00    +0.000 N 
ATOM     19  H   UNL     1       1.819  10.110  19.091  0.00  0.00    +0.000 HD
BRANCH  18  20
ATOM     20  N   UNL     1       0.117  11.289  19.304  0.00  0.00    +0.000 N 
BRANCH  20  21
ATOM     21  C   UNL     1      -1.100  10.973  18.634  0.00  0.00    +0.000 A 
ATOM     22  C   UNL     1      -1.089  10.042  17.588  0.00  0.00    +0.000 A 
ATOM     23  C   UNL     1      -2.245   9.790  16.858  0.00  0.00    +0.000 A 
ATOM     24  C   UNL     1      -3.421  10.473  17.158  0.00  0.00    +0.000 A 
ATOM     25  C   UNL     1      -3.447  11.401  18.199  0.00  0.00    +0.000 A 
ATOM     26  C   UNL     1      -2.287  11.651  18.939  0.00  0.00    +0.000 A 
ENDBRANCH  20  21
BRANCH  20  27
ATOM     27  C   UNL     1       0.431  12.554  19.822  0.00  0.00    +0.000 C 
ATOM     28  C   UNL     1       0.261  12.788  21.322  0.00  0.00    +0.000 C 
ATOM     29  S   UNL     1       1.092  13.814  18.909  0.00  0.00    +0.000 S 
ENDBRANCH  20  27
ENDBRANCH  18  20
ENDBRANCH   1  16
TORSDOF 8
ENDMDL
MODEL 5
REMARK VINA RESULT:      -7.2      0.827      1.612
REMARK  Name = 
REMARK  10 active torsions:
REMARK  status: ('A' for Active; 'I' for Inactive)
REMARK    1  A    between atoms: C_1  and  C_2
REMARK    2  A    between atoms: C_2  and  N_4
REMARK    3  A    between atoms: N_4  and  N_5
REMARK    4  A    between atoms: N_4  and  C_22
REMARK    5  A    between atoms: C_6  and  C_8
REMARK    6  A    between atoms: C_8  and  C_9
REMARK    7  A    between atoms: N_11  and  N_12
REMARK    8  A    between atoms: N_12  and  C_13
REMARK    9  A    between atoms: N_12  and  C_16
REMARK   10  A    between atoms: C_13  and  C_14
REMARK                            x       y       z     vdW  Elec       q    Type
REMARK                         _______ _______ _______ _____ _____    ______ ____
ROOT
ATOM      1  C   UNL     1       1.693   7.772  21.028  0.00  0.00    +0.000 C 
ENDROOT
BRANCH   1   3
ATOM      2  N   UNL     1       0.993   9.819  19.785  0.00  0.00    +0.000 N 
ATOM      3  C   UNL     1       0.679   8.876  20.754  0.00  0.00    +0.000 C 
ATOM      4  O   UNL     1      -0.349   8.913  21.434  0.00  0.00    +0.000 OA
ATOM      5  H   UNL     1       1.837   9.741  19.218  0.00  0.00    +0.000 HD
BRANCH   2   6
ATOM      6  N   UNL     1       0.141  10.964  19.567  0.00  0.00    +0.000 N 
BRANCH   6   7
ATOM      7  C   UNL     1      -1.015  10.783  18.709  0.00  0.00    +0.000 A 
ATOM      8  C   UNL     1      -1.064   9.909  17.614  0.00  0.00    +0.000 A 
ATOM      9  C   UNL     1      -2.215   9.782  16.821  0.00  0.00    +0.000 A 
ATOM     10  C   UNL     1      -3.344  10.543  17.090  0.00  0.00    +0.000 A 
ATOM     11  C   UNL     1      -3.319  11.440  18.147  0.00  0.00    +0.000 A 
ATOM     12  C   UNL     1      -2.169  11.559  18.933  0.00  0.00    +0.000 A 
ENDBRANCH   6   7
BRANCH   6  14
ATOM     13  C   UNL     1       1.511  13.010  19.772  0.00  0.00    +0.000 C 
ATOM     14  C   UNL     1       0.425  12.106  20.348  0.00  0.00    +0.000 C 
ATOM     15  S   UNL     1      -0.273  12.589  21.804  0.00  0.00    +0.000 S 
ENDBRANCH   6  14
ENDBRANCH   2   6
ENDBRANCH   1   3
BRANCH   1  16
ATOM     16  C   UNL     1       2.239   7.016  19.842  0.00  0.00    +0.000 C 
ATOM     17  O   UNL     1       1.972   7.362  18.692  0.00  0.00    +0.000 OA
ATOM     18  N   UNL     1       3.076   5.957  20.179  0.00  0.00    +0.000 N 
ATOM     19  H   UNL     1       3.221   5.640  21.133  0.00  0.00    +0.000 HD
BRANCH  18  20
ATOM     20  N   UNL     1       3.725   5.183  19.166  0.00  0.00    +0.000 N 
BRANCH  20  21
ATOM     21  C   UNL     1       4.969   5.682  18.683  0.00  0.00    +0.000 A 
ATOM     22  C   UNL     1       4.998   6.443  17.508  0.00  0.00    +0.000 A 
ATOM     23  C   UNL     1       6.210   6.859  16.967  0.00  0.00    +0.000 A 
ATOM     24  C   UNL     1       7.405   6.508  17.588  0.00  0.00    +0.000 A 
ATOM     25  C   UNL     1       7.393   5.751  18.759  0.00  0.00    +0.000 A 
ATOM     26  C   UNL     1       6.175   5.338  19.308  0.00  0.00    +0.000 A 
ENDBRANCH  20  21
BRANCH  20  27
ATOM     27  C   UNL     1       3.209   3.914  18.866  0.00  0.00    +0.000 C 
ATOM     28  C   UNL     1       3.096   2.890  19.993  0.00  0.00    +0.000 C 
ATOM     29  S   UNL     1       2.600   3.474  17.351  0.00  0.00    +0.000 S 
ENDBRANCH  20  27
ENDBRANCH  18  20
ENDBRANCH   1  16
TORSDOF 8
ENDMDL
MODEL 6
REMARK VINA RESULT:      -7.2      0.843      1.401
REMARK  Name = 
REMARK  10 active torsions:
REMARK  status: ('A' for Active; 'I' for Inactive)
REMARK    1  A    between atoms: C_1  and  C_2
REMARK    2  A    between atoms: C_2  and  N_4
REMARK    3  A    between atoms: N_4  and  N_5
REMARK    4  A    between atoms: N_4  and  C_22
REMARK    5  A    between atoms: C_6  and  C_8
REMARK    6  A    between atoms: C_8  and  C_9
REMARK    7  A    between atoms: N_11  and  N_12
REMARK    8  A    between atoms: N_12  and  C_13
REMARK    9  A    between atoms: N_12  and  C_16
REMARK   10  A    between atoms: C_13  and  C_14
REMARK                            x       y       z     vdW  Elec       q    Type
REMARK                         _______ _______ _______ _____ _____    ______ ____
ROOT
ATOM      1  C   UNL     1       1.661   7.861  20.770  0.00  0.00    +0.000 C 
ENDROOT
BRANCH   1   3
ATOM      2  N   UNL     1       1.187   9.834  19.317  0.00  0.00    +0.000 N 
ATOM      3  C   UNL     1       0.798   9.063  20.404  0.00  0.00    +0.000 C 
ATOM      4  O   UNL     1      -0.177   9.325  21.112  0.00  0.00    +0.000 OA
ATOM      5  H   UNL     1       1.980   9.570  18.732  0.00  0.00    +0.000 HD
BRANCH   2   6
ATOM      6  N   UNL     1       0.493  11.058  18.995  0.00  0.00    +0.000 N 
BRANCH   6   7
ATOM      7  C   UNL     1      -0.869  10.946  18.510  0.00  0.00    +0.000 A 
ATOM      8  C   UNL     1      -1.947  11.709  18.979  0.00  0.00    +0.000 A 
ATOM      9  C   UNL     1      -3.244  11.549  18.469  0.00  0.00    +0.000 A 
ATOM     10  C   UNL     1      -3.504  10.603  17.486  0.00  0.00    +0.000 A 
ATOM     11  C   UNL     1      -2.466   9.810  17.021  0.00  0.00    +0.000 A 
ATOM     12  C   UNL     1      -1.176   9.977  17.534  0.00  0.00    +0.000 A 
ENDBRANCH   6   7
BRANCH   6  14
ATOM     13  C   UNL     1       0.967  12.674  20.803  0.00  0.00    +0.000 C 
ATOM     14  C   UNL     1       1.154  12.256  19.347  0.00  0.00    +0.000 C 
ATOM     15  S   UNL     1       2.105  13.259  18.383  0.00  0.00    +0.000 S 
ENDBRANCH   6  14
ENDBRANCH   2   6
ENDBRANCH   1   3
BRANCH   1  16
ATOM     16  C   UNL     1       2.263   7.064  19.640  0.00  0.00    +0.000 C 
ATOM     17  O   UNL     1       2.019   7.343  18.466  0.00  0.00    +0.000 OA
ATOM     18  N   UNL     1       3.121   6.049  20.053  0.00  0.00    +0.000 N 
ATOM     19  H   UNL     1       3.247   5.785  21.025  0.00  0.00    +0.000 HD
BRANCH  18  20
ATOM     20  N   UNL     1       3.821   5.245  19.099  0.00  0.00    +0.000 N 
BRANCH  20  21
ATOM     21  C   UNL     1       5.090   5.730  18.667  0.00  0.00    +0.000 A 
ATOM     22  C   UNL     1       5.182   6.450  17.470  0.00  0.00    +0.000 A 
ATOM     23  C   UNL     1       6.421   6.850  16.982  0.00  0.00    +0.000 A 
ATOM     24  C   UNL     1       7.581   6.523  17.678  0.00  0.00    +0.000 A 
ATOM     25  C   UNL     1       7.505   5.807  18.873  0.00  0.00    +0.000 A 
ATOM     26  C   UNL     1       6.259   5.411  19.369  0.00  0.00    +0.000 A 
ENDBRANCH  20  21
BRANCH  20  27
ATOM     27  C   UNL     1       3.320   3.968  18.809  0.00  0.00    +0.000 C 
ATOM     28  C   UNL     1       3.906   2.771  19.555  0.00  0.00    +0.000 C 
ATOM     29  S   UNL     1       2.027   3.674  17.761  0.00  0.00    +0.000 S 
ENDBRANCH  20  27
ENDBRANCH  18  20
ENDBRANCH   1  16
TORSDOF 8
ENDMDL
MODEL 7
REMARK VINA RESULT:      -7.2      1.437      1.756
REMARK  Name = 
REMARK  10 active torsions:
REMARK  status: ('A' for Active; 'I' for Inactive)
REMARK    1  A    between atoms: C_1  and  C_2
REMARK    2  A    between atoms: C_2  and  N_4
REMARK    3  A    between atoms: N_4  and  N_5
REMARK    4  A    between atoms: N_4  and  C_22
REMARK    5  A    between atoms: C_6  and  C_8
REMARK    6  A    between atoms: C_8  and  C_9
REMARK    7  A    between atoms: N_11  and  N_12
REMARK    8  A    between atoms: N_12  and  C_13
REMARK    9  A    between atoms: N_12  and  C_16
REMARK   10  A    between atoms: C_13  and  C_14
REMARK                            x       y       z     vdW  Elec       q    Type
REMARK                         _______ _______ _______ _____ _____    ______ ____
ROOT
ATOM      1  C   UNL     1       1.567   8.481  20.253  0.00  0.00    +0.000 C 
ENDROOT
BRANCH   1   3
ATOM      2  N   UNL     1      -0.487   9.887  20.080  0.00  0.00    +0.000 N 
ATOM      3  C   UNL     1       0.871   9.766  19.820  0.00  0.00    +0.000 C 
ATOM      4  O   UNL     1       1.529  10.617  19.217  0.00  0.00    +0.000 OA
ATOM      5  H   UNL     1      -0.994   9.178  20.611  0.00  0.00    +0.000 HD
BRANCH   2   6
ATOM      6  N   UNL     1      -1.236  11.017  19.582  0.00  0.00    +0.000 N 
BRANCH   6   7
ATOM      7  C   UNL     1      -2.044  10.811  18.395  0.00  0.00    +0.000 A 
ATOM      8  C   UNL     1      -1.665  10.019  17.302  0.00  0.00    +0.000 A 
ATOM      9  C   UNL     1      -2.493   9.863  16.180  0.00  0.00    +0.000 A 
ATOM     10  C   UNL     1      -3.717  10.514  16.111  0.00  0.00    +0.000 A 
ATOM     11  C   UNL     1      -4.109  11.330  17.161  0.00  0.00    +0.000 A 
ATOM     12  C   UNL     1      -3.279  11.479  18.276  0.00  0.00    +0.000 A 
ENDBRANCH   6   7
BRANCH   6  14
ATOM     13  C   UNL     1      -0.591  13.394  19.767  0.00  0.00    +0.000 C 
ATOM     14  C   UNL     1      -1.240  12.168  20.401  0.00  0.00    +0.000 C 
ATOM     15  S   UNL     1      -1.863  12.354  21.956  0.00  0.00    +0.000 S 
ENDBRANCH   6  14
ENDBRANCH   2   6
ENDBRANCH   1   3
BRANCH   1  16
ATOM     16  C   UNL     1       2.119   7.587  19.170  0.00  0.00    +0.000 C 
ATOM     17  O   UNL     1       1.966   7.863  17.981  0.00  0.00    +0.000 OA
ATOM     18  N   UNL     1       2.825   6.487  19.646  0.00  0.00    +0.000 N 
ATOM     19  H   UNL     1       2.873   6.235  20.628  0.00  0.00    +0.000 HD
BRANCH  18  20
ATOM     20  N   UNL     1       3.466   5.579  18.744  0.00  0.00    +0.000 N 
BRANCH  20  21
ATOM     21  C   UNL     1       4.840   5.828  18.459  0.00  0.00    +0.000 A 
ATOM     22  C   UNL     1       5.826   5.291  19.295  0.00  0.00    +0.000 A 
ATOM     23  C   UNL     1       7.166   5.599  19.092  0.00  0.00    +0.000 A 
ATOM     24  C   UNL     1       7.534   6.457  18.059  0.00  0.00    +0.000 A 
ATOM     25  C   UNL     1       6.563   6.998  17.217  0.00  0.00    +0.000 A 
ATOM     26  C   UNL     1       5.215   6.684  17.415  0.00  0.00    +0.000 A 
ENDBRANCH  20  21
BRANCH  20  27
ATOM     27  C   UNL     1       2.775   4.419  18.366  0.00  0.00    +0.000 C 
ATOM     28  C   UNL     1       3.277   3.638  17.153  0.00  0.00    +0.000 C 
ATOM     29  S   UNL     1       1.480   3.764  19.232  0.00  0.00    +0.000 S 
ENDBRANCH  20  27
ENDBRANCH  18  20
ENDBRANCH   1  16
TORSDOF 8
ENDMDL
MODEL 8
REMARK VINA RESULT:      -7.2      2.341      4.007
REMARK  Name = 
REMARK  10 active torsions:
REMARK  status: ('A' for Active; 'I' for Inactive)
REMARK    1  A    between atoms: C_1  and  C_2
REMARK    2  A    between atoms: C_2  and  N_4
REMARK    3  A    between atoms: N_4  and  N_5
REMARK    4  A    between atoms: N_4  and  C_22
REMARK    5  A    between atoms: C_6  and  C_8
REMARK    6  A    between atoms: C_8  and  C_9
REMARK    7  A    between atoms: N_11  and  N_12
REMARK    8  A    between atoms: N_12  and  C_13
REMARK    9  A    between atoms: N_12  and  C_16
REMARK   10  A    between atoms: C_13  and  C_14
REMARK                            x       y       z     vdW  Elec       q    Type
REMARK                         _______ _______ _______ _____ _____    ______ ____
ROOT
ATOM      1  C   UNL     1       1.939   8.700  17.505  0.00  0.00    +0.000 C 
ENDROOT
BRANCH   1   3
ATOM      2  N   UNL     1       1.703  10.629  19.070  0.00  0.00    +0.000 N 
ATOM      3  C   UNL     1       1.086   9.775  18.167  0.00  0.00    +0.000 C 
ATOM      4  O   UNL     1      -0.120   9.809  17.910  0.00  0.00    +0.000 OA
ATOM      5  H   UNL     1       2.710  10.594  19.234  0.00  0.00    +0.000 HD
BRANCH   2   6
ATOM      6  N   UNL     1       0.931  11.582  19.831  0.00  0.00    +0.000 N 
BRANCH   6   7
ATOM      7  C   UNL     1       0.297  11.109  21.047  0.00  0.00    +0.000 A 
ATOM      8  C   UNL     1      -0.699  11.803  21.748  0.00  0.00    +0.000 A 
ATOM      9  C   UNL     1      -1.270  11.291  22.923  0.00  0.00    +0.000 A 
ATOM     10  C   UNL     1      -0.844  10.076  23.442  0.00  0.00    +0.000 A 
ATOM     11  C   UNL     1       0.162   9.378  22.792  0.00  0.00    +0.000 A 
ATOM     12  C   UNL     1       0.725   9.895  21.621  0.00  0.00    +0.000 A 
ENDBRANCH   6   7
BRANCH   6  14
ATOM     13  C   UNL     1       2.344  13.604  19.699  0.00  0.00    +0.000 C 
ATOM     14  C   UNL     1       1.009  12.926  19.404  0.00  0.00    +0.000 C 
ATOM     15  S   UNL     1      -0.160  13.855  18.622  0.00  0.00    +0.000 S 
ENDBRANCH   6  14
ENDBRANCH   2   6
ENDBRANCH   1   3
BRANCH   1  16
ATOM     16  C   UNL     1       2.498   7.611  18.386  0.00  0.00    +0.000 C 
ATOM     17  O   UNL     1       2.401   7.674  19.611  0.00  0.00    +0.000 OA
ATOM     18  N   UNL     1       3.071   6.552  17.688  0.00  0.00    +0.000 N 
ATOM     19  H   UNL     1       3.211   6.555  16.683  0.00  0.00    +0.000 HD
BRANCH  18  20
ATOM     20  N   UNL     1       3.586   5.410  18.380  0.00  0.00    +0.000 N 
BRANCH  20  21
ATOM     21  C   UNL     1       2.638   4.603  19.072  0.00  0.00    +0.000 A 
ATOM     22  C   UNL     1       2.681   4.534  20.470  0.00  0.00    +0.000 A 
ATOM     23  C   UNL     1       1.828   3.680  21.159  0.00  0.00    +0.000 A 
ATOM     24  C   UNL     1       0.932   2.877  20.459  0.00  0.00    +0.000 A 
ATOM     25  C   UNL     1       0.877   2.936  19.067  0.00  0.00    +0.000 A 
ATOM     26  C   UNL     1       1.729   3.800  18.372  0.00  0.00    +0.000 A 
ENDBRANCH  20  21
BRANCH  20  27
ATOM     27  C   UNL     1       4.927   5.056  18.171  0.00  0.00    +0.000 C 
ATOM     28  C   UNL     1       5.931   5.313  19.293  0.00  0.00    +0.000 C 
ATOM     29  S   UNL     1       5.491   4.258  16.791  0.00  0.00    +0.000 S 
ENDBRANCH  20  27
ENDBRANCH  18  20
ENDBRANCH   1  16
TORSDOF 8
ENDMDL
MODEL 9
REMARK VINA RESULT:      -7.2      0.960      8.427
REMARK  Name = 
REMARK  10 active torsions:
REMARK  status: ('A' for Active; 'I' for Inactive)
REMARK    1  A    between atoms: C_1  and  C_2
REMARK    2  A    between atoms: C_2  and  N_4
REMARK    3  A    between atoms: N_4  and  N_5
REMARK    4  A    between atoms: N_4  and  C_22
REMARK    5  A    between atoms: C_6  and  C_8
REMARK    6  A    between atoms: C_8  and  C_9
REMARK    7  A    between atoms: N_11  and  N_12
REMARK    8  A    between atoms: N_12  and  C_13
REMARK    9  A    between atoms: N_12  and  C_16
REMARK   10  A    between atoms: C_13  and  C_14
REMARK                            x       y       z     vdW  Elec       q    Type
REMARK                         _______ _______ _______ _____ _____    ______ ____
ROOT
ATOM      1  C   UNL     1       1.604   8.281  20.958  0.00  0.00    +0.000 C 
ENDROOT
BRANCH   1   3
ATOM      2  N   UNL     1       2.699   6.217  20.085  0.00  0.00    +0.000 N 
ATOM      3  C   UNL     1       2.074   7.421  19.792  0.00  0.00    +0.000 C 
ATOM      4  O   UNL     1       1.924   7.850  18.646  0.00  0.00    +0.000 OA
ATOM      5  H   UNL     1       2.778   5.876  21.043  0.00  0.00    +0.000 HD
BRANCH   2   6
ATOM      6  N   UNL     1       3.286   5.416  19.037  0.00  0.00    +0.000 N 
BRANCH   6   7
ATOM      7  C   UNL     1       4.618   5.775  18.588  0.00  0.00    +0.000 A 
ATOM      8  C   UNL     1       4.893   6.566  17.464  0.00  0.00    +0.000 A 
ATOM      9  C   UNL     1       6.207   6.875  17.081  0.00  0.00    +0.000 A 
ATOM     10  C   UNL     1       7.286   6.383  17.802  0.00  0.00    +0.000 A 
ATOM     11  C   UNL     1       7.051   5.572  18.901  0.00  0.00    +0.000 A 
ATOM     12  C   UNL     1       5.739   5.270  19.277  0.00  0.00    +0.000 A 
ENDBRANCH   6   7
BRANCH   6  14
ATOM     13  C   UNL     1       1.318   3.996  19.503  0.00  0.00    +0.000 C 
ATOM     14  C   UNL     1       2.571   4.254  18.669  0.00  0.00    +0.000 C 
ATOM     15  S   UNL     1       2.917   3.144  17.451  0.00  0.00    +0.000 S 
ENDBRANCH   6  14
ENDBRANCH   2   6
ENDBRANCH   1   3
BRANCH   1  16
ATOM     16  C   UNL     1       0.574   9.345  20.670  0.00  0.00    +0.000 C 
ATOM     17  O   UNL     1      -0.498   9.369  21.273  0.00  0.00    +0.000 OA
ATOM     18  N   UNL     1       0.972  10.280  19.719  0.00  0.00    +0.000 N 
ATOM     19  H   UNL     1       1.827  10.198  19.178  0.00  0.00    +0.000 HD
BRANCH  18  20
ATOM     20  N   UNL     1       0.132  11.389  19.384  0.00  0.00    +0.000 N 
BRANCH  20  21
ATOM     21  C   UNL     1      -1.036  11.096  18.622  0.00  0.00    +0.000 A 
ATOM     22  C   UNL     1      -2.238  11.745  18.926  0.00  0.00    +0.000 A 
ATOM     23  C   UNL     1      -3.410  11.406  18.259  0.00  0.00    +0.000 A 
ATOM     24  C   UNL     1      -3.395  10.407  17.290  0.00  0.00    +0.000 A 
ATOM     25  C   UNL     1      -2.204   9.752  16.975  0.00  0.00    +0.000 A 
ATOM     26  C   UNL     1      -1.023  10.097  17.640  0.00  0.00    +0.000 A 
ENDBRANCH  20  21
BRANCH  20  27
ATOM     27  C   UNL     1       0.399  12.629  19.981  0.00  0.00    +0.000 C 
ATOM     28  C   UNL     1       0.120  12.792  21.474  0.00  0.00    +0.000 C 
ATOM     29  S   UNL     1       1.115  13.933  19.178  0.00  0.00    +0.000 S 
ENDBRANCH  20  27
ENDBRANCH  18  20
ENDBRANCH   1  16
TORSDOF 8
ENDMDL
