MODEL 1
REMARK VINA RESULT:      -6.7      0.000      0.000
REMARK  Name = 
REMARK  10 active torsions:
REMARK  status: ('A' for Active; 'I' for Inactive)
REMARK    1  A    between atoms: C_1  and  C_2
REMARK    2  A    between atoms: C_2  and  C_3
REMARK    3  A    between atoms: C_3  and  S_4
REMARK    4  A    between atoms: S_4  and  C_5
REMARK    5  A    between atoms: C_5  and  C_6
REMARK    6  A    between atoms: C_6  and  C_7
REMARK    7  A    between atoms: C_7  and  N_8
REMARK    8  A    between atoms: C_9  and  C_11
REMARK    9  A    between atoms: C_11  and  N_12
REMARK   10  A    between atoms: C_13  and  C_14
REMARK                            x       y       z     vdW  Elec       q    Type
REMARK                         _______ _______ _______ _____ _____    ______ ____
ROOT
ATOM      1  N   UNL     1       4.003   5.707  18.292  0.00  0.00    +0.000 N 
ATOM      2  C   UNL     1       3.996   4.590  19.115  0.00  0.00    +0.000 A 
ATOM      3  C   UNL     1       5.328   4.320  19.402  0.00  0.00    +0.000 A 
ATOM      4  C   UNL     1       6.148   5.304  18.799  0.00  0.00    +0.000 A 
ATOM      5  C   UNL     1       7.537   5.539  18.781  0.00  0.00    +0.000 A 
ATOM      6  C   UNL     1       8.041   6.652  18.102  0.00  0.00    +0.000 A 
ATOM      7  C   UNL     1       7.180   7.530  17.452  0.00  0.00    +0.000 A 
ATOM      8  C   UNL     1       5.799   7.313  17.452  0.00  0.00    +0.000 A 
ATOM      9  C   UNL     1       5.301   6.184  18.129  0.00  0.00    +0.000 A 
ENDROOT
BRANCH   2  10
ATOM     10  C   UNL     1       2.841   3.877  19.628  0.00  0.00    +0.000 A 
ATOM     11  C   UNL     1       2.194   3.978  20.847  0.00  0.00    +0.000 A 
ATOM     12  C   UNL     1       1.110   3.060  20.991  0.00  0.00    +0.000 A 
ATOM     13  C   UNL     1       0.912   2.318  19.853  0.00  0.00    +0.000 A 
ATOM     14  S   UNL     1       2.051   2.697  18.641  0.00  0.00    +0.000 S 
ENDBRANCH   2  10
BRANCH   1  15
ATOM     15  C   UNL     1       2.867   6.359  17.667  0.00  0.00    +0.000 C 
BRANCH  15  17
ATOM     16  N   UNL     1       1.985   8.629  17.690  0.00  0.00    +0.000 N 
ATOM     17  C   UNL     1       2.378   7.552  18.458  0.00  0.00    +0.000 C 
ATOM     18  O   UNL     1       2.281   7.548  19.682  0.00  0.00    +0.000 OA
ATOM     19  H   UNL     1       2.078   8.606  16.685  0.00  0.00    +0.000 HD
BRANCH  16  20
ATOM     20  C   UNL     1       1.472   9.840  18.301  0.00  0.00    +0.000 C 
BRANCH  20  21
ATOM     21  C   UNL     1      -0.027  10.039  18.072  0.00  0.00    +0.000 C 
BRANCH  21  22
ATOM     22  C   UNL     1      -0.821  10.278  19.359  0.00  0.00    +0.000 C 
BRANCH  22  23
ATOM     23  S   UNL     1       0.348  10.638  20.711  0.00  0.00    +0.000 S 
BRANCH  23  24
ATOM     24  C   UNL     1       0.040   9.182  21.766  0.00  0.00    +0.000 C 
BRANCH  24  26
ATOM     25  C   UNL     1      -1.168  10.959  23.101  0.00  0.00    +0.000 C 
ATOM     26  C   UNL     1      -0.362   9.672  23.157  0.00  0.00    +0.000 C 
ENDBRANCH  24  26
ENDBRANCH  23  24
ENDBRANCH  22  23
ENDBRANCH  21  22
ENDBRANCH  20  21
ENDBRANCH  16  20
ENDBRANCH  15  17
ENDBRANCH   1  15
TORSDOF 9
ENDMDL
MODEL 2
REMARK VINA RESULT:      -6.6      2.250      4.626
REMARK  Name = 
REMARK  10 active torsions:
REMARK  status: ('A' for Active; 'I' for Inactive)
REMARK    1  A    between atoms: C_1  and  C_2
REMARK    2  A    between atoms: C_2  and  C_3
REMARK    3  A    between atoms: C_3  and  S_4
REMARK    4  A    between atoms: S_4  and  C_5
REMARK    5  A    between atoms: C_5  and  C_6
REMARK    6  A    between atoms: C_6  and  C_7
REMARK    7  A    between atoms: C_7  and  N_8
REMARK    8  A    between atoms: C_9  and  C_11
REMARK    9  A    between atoms: C_11  and  N_12
REMARK   10  A    between atoms: C_13  and  C_14
REMARK                            x       y       z     vdW  Elec       q    Type
REMARK                         _______ _______ _______ _____ _____    ______ ____
ROOT
ATOM      1  N   UNL     1       3.817   4.954  18.273  0.00  0.00    +0.000 N 
ATOM      2  C   UNL     1       4.305   4.077  17.315  0.00  0.00    +0.000 A 
ATOM      3  C   UNL     1       3.621   2.883  17.508  0.00  0.00    +0.000 A 
ATOM      4  C   UNL     1       2.676   3.045  18.550  0.00  0.00    +0.000 A 
ATOM      5  C   UNL     1       1.716   2.198  19.136  0.00  0.00    +0.000 A 
ATOM      6  C   UNL     1       0.889   2.688  20.151  0.00  0.00    +0.000 A 
ATOM      7  C   UNL     1       1.005   4.007  20.579  0.00  0.00    +0.000 A 
ATOM      8  C   UNL     1       1.955   4.863  20.016  0.00  0.00    +0.000 A 
ATOM      9  C   UNL     1       2.791   4.358  19.002  0.00  0.00    +0.000 A 
ENDROOT
BRANCH   2  10
ATOM     10  C   UNL     1       5.283   4.353  16.280  0.00  0.00    +0.000 A 
ATOM     11  C   UNL     1       5.135   4.433  14.906  0.00  0.00    +0.000 A 
ATOM     12  C   UNL     1       6.362   4.682  14.218  0.00  0.00    +0.000 A 
ATOM     13  C   UNL     1       7.411   4.850  15.086  0.00  0.00    +0.000 A 
ATOM     14  S   UNL     1       6.928   4.666  16.711  0.00  0.00    +0.000 S 
ENDBRANCH   2  10
BRANCH   1  15
ATOM     15  C   UNL     1       4.245   6.316  18.532  0.00  0.00    +0.000 C 
BRANCH  15  17
ATOM     16  N   UNL     1       2.463   7.972  18.422  0.00  0.00    +0.000 N 
ATOM     17  C   UNL     1       3.465   7.330  17.724  0.00  0.00    +0.000 C 
ATOM     18  O   UNL     1       3.734   7.606  16.558  0.00  0.00    +0.000 OA
ATOM     19  H   UNL     1       2.261   7.724  19.380  0.00  0.00    +0.000 HD
BRANCH  16  20
ATOM     20  C   UNL     1       1.640   8.986  17.792  0.00  0.00    +0.000 C 
BRANCH  20  21
ATOM     21  C   UNL     1       2.137  10.409  18.050  0.00  0.00    +0.000 C 
BRANCH  21  22
ATOM     22  C   UNL     1       1.128  11.292  18.788  0.00  0.00    +0.000 C 
BRANCH  22  23
ATOM     23  S   UNL     1      -0.423  10.357  19.001  0.00  0.00    +0.000 S 
BRANCH  23  24
ATOM     24  C   UNL     1      -0.439  10.218  20.819  0.00  0.00    +0.000 C 
BRANCH  24  26
ATOM     25  C   UNL     1       1.346   8.979  22.113  0.00  0.00    +0.000 C 
ATOM     26  C   UNL     1       0.135   8.855  21.203  0.00  0.00    +0.000 C 
ENDBRANCH  24  26
ENDBRANCH  23  24
ENDBRANCH  22  23
ENDBRANCH  21  22
ENDBRANCH  20  21
ENDBRANCH  16  20
ENDBRANCH  15  17
ENDBRANCH   1  15
TORSDOF 9
ENDMDL
MODEL 3
REMARK VINA RESULT:      -6.5      1.477      4.239
REMARK  Name = 
REMARK  10 active torsions:
REMARK  status: ('A' for Active; 'I' for Inactive)
REMARK    1  A    between atoms: C_1  and  C_2
REMARK    2  A    between atoms: C_2  and  C_3
REMARK    3  A    between atoms: C_3  and  S_4
REMARK    4  A    between atoms: S_4  and  C_5
REMARK    5  A    between atoms: C_5  and  C_6
REMARK    6  A    between atoms: C_6  and  C_7
REMARK    7  A    between atoms: C_7  and  N_8
REMARK    8  A    between atoms: C_9  and  C_11
REMARK    9  A    between atoms: C_11  and  N_12
REMARK   10  A    between atoms: C_13  and  C_14
REMARK                            x       y       z     vdW  Elec       q    Type
REMARK                         _______ _______ _______ _____ _____    ______ ____
ROOT
ATOM      1  N   UNL     1       3.205   4.814  18.573  0.00  0.00    +0.000 N 
ATOM      2  C   UNL     1       4.546   4.458  18.533  0.00  0.00    +0.000 A 
ATOM      3  C   UNL     1       4.724   3.532  19.553  0.00  0.00    +0.000 A 
ATOM      4  C   UNL     1       3.481   3.280  20.183  0.00  0.00    +0.000 A 
ATOM      5  C   UNL     1       3.073   2.433  21.231  0.00  0.00    +0.000 A 
ATOM      6  C   UNL     1       1.725   2.391  21.601  0.00  0.00    +0.000 A 
ATOM      7  C   UNL     1       0.788   3.175  20.937  0.00  0.00    +0.000 A 
ATOM      8  C   UNL     1       1.172   4.028  19.898  0.00  0.00    +0.000 A 
ATOM      9  C   UNL     1       2.532   4.072  19.539  0.00  0.00    +0.000 A 
ENDROOT
BRANCH   2  10
ATOM     10  C   UNL     1       5.552   4.905  17.589  0.00  0.00    +0.000 A 
ATOM     11  C   UNL     1       6.472   5.936  17.679  0.00  0.00    +0.000 A 
ATOM     12  C   UNL     1       7.269   6.089  16.504  0.00  0.00    +0.000 A 
ATOM     13  C   UNL     1       6.984   5.131  15.563  0.00  0.00    +0.000 A 
ATOM     14  S   UNL     1       5.738   4.086  16.077  0.00  0.00    +0.000 S 
ENDBRANCH   2  10
BRANCH   1  15
ATOM     15  C   UNL     1       2.521   5.794  17.750  0.00  0.00    +0.000 C 
BRANCH  15  17
ATOM     16  N   UNL     1       2.097   8.187  17.579  0.00  0.00    +0.000 N 
ATOM     17  C   UNL     1       2.419   7.145  18.425  0.00  0.00    +0.000 C 
ATOM     18  O   UNL     1       2.554   7.299  19.635  0.00  0.00    +0.000 OA
ATOM     19  H   UNL     1       1.995   8.032  16.586  0.00  0.00    +0.000 HD
BRANCH  16  20
ATOM     20  C   UNL     1       1.942   9.539  18.079  0.00  0.00    +0.000 C 
BRANCH  20  21
ATOM     21  C   UNL     1       0.527   9.838  18.574  0.00  0.00    +0.000 C 
BRANCH  21  22
ATOM     22  C   UNL     1       0.374  11.222  19.210  0.00  0.00    +0.000 C 
BRANCH  22  23
ATOM     23  S   UNL     1       0.762  11.096  20.988  0.00  0.00    +0.000 S 
BRANCH  23  24
ATOM     24  C   UNL     1       0.204   9.387  21.293  0.00  0.00    +0.000 C 
BRANCH  24  26
ATOM     25  C   UNL     1      -1.025  10.698  23.073  0.00  0.00    +0.000 C 
ATOM     26  C   UNL     1      -0.482   9.340  22.658  0.00  0.00    +0.000 C 
ENDBRANCH  24  26
ENDBRANCH  23  24
ENDBRANCH  22  23
ENDBRANCH  21  22
ENDBRANCH  20  21
ENDBRANCH  16  20
ENDBRANCH  15  17
ENDBRANCH   1  15
TORSDOF 9
ENDMDL
MODEL 4
REMARK VINA RESULT:      -6.4      2.571      6.635
REMARK  Name = 
REMARK  10 active torsions:
REMARK  status: ('A' for Active; 'I' for Inactive)
REMARK    1  A    between atoms: C_1  and  C_2
REMARK    2  A    between atoms: C_2  and  C_3
REMARK    3  A    between atoms: C_3  and  S_4
REMARK    4  A    between atoms: S_4  and  C_5
REMARK    5  A    between atoms: C_5  and  C_6
REMARK    6  A    between atoms: C_6  and  C_7
REMARK    7  A    between atoms: C_7  and  N_8
REMARK    8  A    between atoms: C_9  and  C_11
REMARK    9  A    between atoms: C_11  and  N_12
REMARK   10  A    between atoms: C_13  and  C_14
REMARK                            x       y       z     vdW  Elec       q    Type
REMARK                         _______ _______ _______ _____ _____    ______ ____
ROOT
ATOM      1  N   UNL     1       2.245   6.593  18.928  0.00  0.00    +0.000 N 
ATOM      2  C   UNL     1       1.858   6.101  20.166  0.00  0.00    +0.000 A 
ATOM      3  C   UNL     1       1.403   7.198  20.886  0.00  0.00    +0.000 A 
ATOM      4  C   UNL     1       1.461   8.353  20.069  0.00  0.00    +0.000 A 
ATOM      5  C   UNL     1       1.108   9.703  20.263  0.00  0.00    +0.000 A 
ATOM      6  C   UNL     1       1.259  10.615  19.214  0.00  0.00    +0.000 A 
ATOM      7  C   UNL     1       1.749  10.195  17.981  0.00  0.00    +0.000 A 
ATOM      8  C   UNL     1       2.111   8.861  17.769  0.00  0.00    +0.000 A 
ATOM      9  C   UNL     1       1.966   7.953  18.834  0.00  0.00    +0.000 A 
ENDROOT
BRANCH   2  10
ATOM     10  C   UNL     1       1.865   4.720  20.610  0.00  0.00    +0.000 A 
ATOM     11  C   UNL     1       2.570   4.110  21.634  0.00  0.00    +0.000 A 
ATOM     12  C   UNL     1       2.335   2.705  21.726  0.00  0.00    +0.000 A 
ATOM     13  C   UNL     1       1.405   2.280  20.810  0.00  0.00    +0.000 A 
ATOM     14  S   UNL     1       0.856   3.558  19.822  0.00  0.00    +0.000 S 
ENDBRANCH   2  10
BRANCH   1  15
ATOM     15  C   UNL     1       2.845   5.859  17.828  0.00  0.00    +0.000 C 
BRANCH  15  17
ATOM     16  N   UNL     1       5.064   5.935  18.829  0.00  0.00    +0.000 N 
ATOM     17  C   UNL     1       4.108   5.134  18.238  0.00  0.00    +0.000 C 
ATOM     18  O   UNL     1       4.254   3.922  18.112  0.00  0.00    +0.000 OA
ATOM     19  H   UNL     1       4.919   6.931  18.918  0.00  0.00    +0.000 HD
BRANCH  16  20
ATOM     20  C   UNL     1       6.321   5.384  19.296  0.00  0.00    +0.000 C 
BRANCH  20  21
ATOM     21  C   UNL     1       7.542   6.039  18.649  0.00  0.00    +0.000 C 
BRANCH  21  22
ATOM     22  C   UNL     1       7.400   6.255  17.141  0.00  0.00    +0.000 C 
BRANCH  22  23
ATOM     23  S   UNL     1       7.316   4.628  16.321  0.00  0.00    +0.000 S 
BRANCH  23  24
ATOM     24  C   UNL     1       6.324   5.084  14.859  0.00  0.00    +0.000 C 
BRANCH  24  26
ATOM     25  C   UNL     1       6.211   3.665  12.768  0.00  0.00    +0.000 C 
ATOM     26  C   UNL     1       5.789   3.802  14.222  0.00  0.00    +0.000 C 
ENDBRANCH  24  26
ENDBRANCH  23  24
ENDBRANCH  22  23
ENDBRANCH  21  22
ENDBRANCH  20  21
ENDBRANCH  16  20
ENDBRANCH  15  17
ENDBRANCH   1  15
TORSDOF 9
ENDMDL
MODEL 5
REMARK VINA RESULT:      -6.3      2.217      5.156
REMARK  Name = 
REMARK  10 active torsions:
REMARK  status: ('A' for Active; 'I' for Inactive)
REMARK    1  A    between atoms: C_1  and  C_2
REMARK    2  A    between atoms: C_2  and  C_3
REMARK    3  A    between atoms: C_3  and  S_4
REMARK    4  A    between atoms: S_4  and  C_5
REMARK    5  A    between atoms: C_5  and  C_6
REMARK    6  A    between atoms: C_6  and  C_7
REMARK    7  A    between atoms: C_7  and  N_8
REMARK    8  A    between atoms: C_9  and  C_11
REMARK    9  A    between atoms: C_11  and  N_12
REMARK   10  A    between atoms: C_13  and  C_14
REMARK                            x       y       z     vdW  Elec       q    Type
REMARK                         _______ _______ _______ _____ _____    ______ ____
ROOT
ATOM      1  N   UNL     1       3.446   5.266  19.046  0.00  0.00    +0.000 N 
ATOM      2  C   UNL     1       4.672   4.939  18.484  0.00  0.00    +0.000 A 
ATOM      3  C   UNL     1       4.587   3.596  18.141  0.00  0.00    +0.000 A 
ATOM      4  C   UNL     1       3.292   3.114  18.445  0.00  0.00    +0.000 A 
ATOM      5  C   UNL     1       2.653   1.868  18.288  0.00  0.00    +0.000 A 
ATOM      6  C   UNL     1       1.315   1.724  18.668  0.00  0.00    +0.000 A 
ATOM      7  C   UNL     1       0.611   2.804  19.192  0.00  0.00    +0.000 A 
ATOM      8  C   UNL     1       1.227   4.048  19.362  0.00  0.00    +0.000 A 
ATOM      9  C   UNL     1       2.578   4.180  18.988  0.00  0.00    +0.000 A 
ENDROOT
BRANCH   2  10
ATOM     10  C   UNL     1       5.796   5.823  18.240  0.00  0.00    +0.000 A 
ATOM     11  C   UNL     1       5.948   6.851  17.325  0.00  0.00    +0.000 A 
ATOM     12  C   UNL     1       7.239   7.461  17.366  0.00  0.00    +0.000 A 
ATOM     13  C   UNL     1       8.026   6.927  18.355  0.00  0.00    +0.000 A 
ATOM     14  S   UNL     1       7.230   5.675  19.195  0.00  0.00    +0.000 S 
ENDBRANCH   2  10
BRANCH   1  15
ATOM     15  C   UNL     1       3.041   6.537  19.619  0.00  0.00    +0.000 C 
BRANCH  15  17
ATOM     16  N   UNL     1       2.127   8.727  19.070  0.00  0.00    +0.000 N 
ATOM     17  C   UNL     1       2.478   7.484  18.582  0.00  0.00    +0.000 C 
ATOM     18  O   UNL     1       2.392   7.198  17.392  0.00  0.00    +0.000 OA
ATOM     19  H   UNL     1       2.206   8.935  20.055  0.00  0.00    +0.000 HD
BRANCH  16  20
ATOM     20  C   UNL     1       1.592   9.753  18.196  0.00  0.00    +0.000 C 
BRANCH  20  21
ATOM     21  C   UNL     1       0.082   9.633  17.983  0.00  0.00    +0.000 C 
BRANCH  21  22
ATOM     22  C   UNL     1      -0.751  10.296  19.083  0.00  0.00    +0.000 C 
BRANCH  22  23
ATOM     23  S   UNL     1      -2.147  11.178  18.309  0.00  0.00    +0.000 S 
BRANCH  23  24
ATOM     24  C   UNL     1      -2.545   9.996  16.979  0.00  0.00    +0.000 C 
BRANCH  24  26
ATOM     25  C   UNL     1      -3.619  10.097  14.691  0.00  0.00    +0.000 C 
ATOM     26  C   UNL     1      -2.667  10.770  15.667  0.00  0.00    +0.000 C 
ENDBRANCH  24  26
ENDBRANCH  23  24
ENDBRANCH  22  23
ENDBRANCH  21  22
ENDBRANCH  20  21
ENDBRANCH  16  20
ENDBRANCH  15  17
ENDBRANCH   1  15
TORSDOF 9
ENDMDL
MODEL 6
REMARK VINA RESULT:      -6.3      2.476      4.867
REMARK  Name = 
REMARK  10 active torsions:
REMARK  status: ('A' for Active; 'I' for Inactive)
REMARK    1  A    between atoms: C_1  and  C_2
REMARK    2  A    between atoms: C_2  and  C_3
REMARK    3  A    between atoms: C_3  and  S_4
REMARK    4  A    between atoms: S_4  and  C_5
REMARK    5  A    between atoms: C_5  and  C_6
REMARK    6  A    between atoms: C_6  and  C_7
REMARK    7  A    between atoms: C_7  and  N_8
REMARK    8  A    between atoms: C_9  and  C_11
REMARK    9  A    between atoms: C_11  and  N_12
REMARK   10  A    between atoms: C_13  and  C_14
REMARK                            x       y       z     vdW  Elec       q    Type
REMARK                         _______ _______ _______ _____ _____    ______ ____
ROOT
ATOM      1  N   UNL     1       3.119   4.588  18.448  0.00  0.00    +0.000 N 
ATOM      2  C   UNL     1       4.400   4.113  18.212  0.00  0.00    +0.000 A 
ATOM      3  C   UNL     1       4.665   3.209  19.232  0.00  0.00    +0.000 A 
ATOM      4  C   UNL     1       3.526   3.090  20.063  0.00  0.00    +0.000 A 
ATOM      5  C   UNL     1       3.226   2.317  21.202  0.00  0.00    +0.000 A 
ATOM      6  C   UNL     1       1.957   2.408  21.784  0.00  0.00    +0.000 A 
ATOM      7  C   UNL     1       0.992   3.250  21.242  0.00  0.00    +0.000 A 
ATOM      8  C   UNL     1       1.271   4.030  20.116  0.00  0.00    +0.000 A 
ATOM      9  C   UNL     1       2.553   3.941  19.543  0.00  0.00    +0.000 A 
ENDROOT
BRANCH   2  10
ATOM     10  C   UNL     1       5.272   4.438  17.098  0.00  0.00    +0.000 A 
ATOM     11  C   UNL     1       5.049   4.366  15.734  0.00  0.00    +0.000 A 
ATOM     12  C   UNL     1       6.188   4.734  14.953  0.00  0.00    +0.000 A 
ATOM     13  C   UNL     1       7.238   5.140  15.738  0.00  0.00    +0.000 A 
ATOM     14  S   UNL     1       6.867   5.036  17.400  0.00  0.00    +0.000 S 
ENDBRANCH   2  10
BRANCH   1  15
ATOM     15  C   UNL     1       2.393   5.599  17.700  0.00  0.00    +0.000 C 
BRANCH  15  17
ATOM     16  N   UNL     1       2.058   8.006  17.547  0.00  0.00    +0.000 N 
ATOM     17  C   UNL     1       2.461   6.961  18.354  0.00  0.00    +0.000 C 
ATOM     18  O   UNL     1       2.790   7.125  19.525  0.00  0.00    +0.000 OA
ATOM     19  H   UNL     1       1.794   7.843  16.586  0.00  0.00    +0.000 HD
BRANCH  16  20
ATOM     20  C   UNL     1       2.046   9.371  18.036  0.00  0.00    +0.000 C 
BRANCH  20  21
ATOM     21  C   UNL     1       0.645   9.868  18.396  0.00  0.00    +0.000 C 
BRANCH  21  22
ATOM     22  C   UNL     1       0.612  11.314  18.897  0.00  0.00    +0.000 C 
BRANCH  22  23
ATOM     23  S   UNL     1      -0.991  12.055  18.442  0.00  0.00    +0.000 S 
BRANCH  23  24
ATOM     24  C   UNL     1      -1.920  10.535  18.049  0.00  0.00    +0.000 C 
BRANCH  24  26
ATOM     25  C   UNL     1      -2.697  10.219  15.663  0.00  0.00    +0.000 C 
ATOM     26  C   UNL     1      -2.981  10.876  17.004  0.00  0.00    +0.000 C 
ENDBRANCH  24  26
ENDBRANCH  23  24
ENDBRANCH  22  23
ENDBRANCH  21  22
ENDBRANCH  20  21
ENDBRANCH  16  20
ENDBRANCH  15  17
ENDBRANCH   1  15
TORSDOF 9
ENDMDL
MODEL 7
REMARK VINA RESULT:      -6.3      2.666      5.071
REMARK  Name = 
REMARK  10 active torsions:
REMARK  status: ('A' for Active; 'I' for Inactive)
REMARK    1  A    between atoms: C_1  and  C_2
REMARK    2  A    between atoms: C_2  and  C_3
REMARK    3  A    between atoms: C_3  and  S_4
REMARK    4  A    between atoms: S_4  and  C_5
REMARK    5  A    between atoms: C_5  and  C_6
REMARK    6  A    between atoms: C_6  and  C_7
REMARK    7  A    between atoms: C_7  and  N_8
REMARK    8  A    between atoms: C_9  and  C_11
REMARK    9  A    between atoms: C_11  and  N_12
REMARK   10  A    between atoms: C_13  and  C_14
REMARK                            x       y       z     vdW  Elec       q    Type
REMARK                         _______ _______ _______ _____ _____    ______ ____
ROOT
ATOM      1  N   UNL     1       3.863   4.900  18.371  0.00  0.00    +0.000 N 
ATOM      2  C   UNL     1       4.349   4.036  17.400  0.00  0.00    +0.000 A 
ATOM      3  C   UNL     1       3.678   2.835  17.589  0.00  0.00    +0.000 A 
ATOM      4  C   UNL     1       2.742   2.979  18.641  0.00  0.00    +0.000 A 
ATOM      5  C   UNL     1       1.795   2.118  19.229  0.00  0.00    +0.000 A 
ATOM      6  C   UNL     1       0.975   2.592  20.258  0.00  0.00    +0.000 A 
ATOM      7  C   UNL     1       1.084   3.907  20.697  0.00  0.00    +0.000 A 
ATOM      8  C   UNL     1       2.021   4.777  20.131  0.00  0.00    +0.000 A 
ATOM      9  C   UNL     1       2.851   4.289  19.105  0.00  0.00    +0.000 A 
ENDROOT
BRANCH   2  10
ATOM     10  C   UNL     1       5.313   4.331  16.357  0.00  0.00    +0.000 A 
ATOM     11  C   UNL     1       5.156   4.396  14.983  0.00  0.00    +0.000 A 
ATOM     12  C   UNL     1       6.372   4.673  14.286  0.00  0.00    +0.000 A 
ATOM     13  C   UNL     1       7.421   4.877  15.147  0.00  0.00    +0.000 A 
ATOM     14  S   UNL     1       6.951   4.691  16.776  0.00  0.00    +0.000 S 
ENDBRANCH   2  10
BRANCH   1  15
ATOM     15  C   UNL     1       4.282   6.264  18.638  0.00  0.00    +0.000 C 
BRANCH  15  17
ATOM     16  N   UNL     1       2.435   7.846  18.518  0.00  0.00    +0.000 N 
ATOM     17  C   UNL     1       3.493   7.278  17.839  0.00  0.00    +0.000 C 
ATOM     18  O   UNL     1       3.798   7.614  16.698  0.00  0.00    +0.000 OA
ATOM     19  H   UNL     1       2.205   7.549  19.455  0.00  0.00    +0.000 HD
BRANCH  16  20
ATOM     20  C   UNL     1       1.595   8.851  17.895  0.00  0.00    +0.000 C 
BRANCH  20  21
ATOM     21  C   UNL     1       1.647  10.203  18.608  0.00  0.00    +0.000 C 
BRANCH  21  22
ATOM     22  C   UNL     1       0.490  11.137  18.245  0.00  0.00    +0.000 C 
BRANCH  22  23
ATOM     23  S   UNL     1      -1.044  10.483  18.985  0.00  0.00    +0.000 S 
BRANCH  23  24
ATOM     24  C   UNL     1      -1.859   9.862  17.476  0.00  0.00    +0.000 C 
BRANCH  24  26
ATOM     25  C   UNL     1      -2.979  10.903  15.461  0.00  0.00    +0.000 C 
ATOM     26  C   UNL     1      -2.822  10.937  16.972  0.00  0.00    +0.000 C 
ENDBRANCH  24  26
ENDBRANCH  23  24
ENDBRANCH  22  23
ENDBRANCH  21  22
ENDBRANCH  20  21
ENDBRANCH  16  20
ENDBRANCH  15  17
ENDBRANCH   1  15
TORSDOF 9
ENDMDL
MODEL 8
REMARK VINA RESULT:      -6.3      2.152      3.015
REMARK  Name = 
REMARK  10 active torsions:
REMARK  status: ('A' for Active; 'I' for Inactive)
REMARK    1  A    between atoms: C_1  and  C_2
REMARK    2  A    between atoms: C_2  and  C_3
REMARK    3  A    between atoms: C_3  and  S_4
REMARK    4  A    between atoms: S_4  and  C_5
REMARK    5  A    between atoms: C_5  and  C_6
REMARK    6  A    between atoms: C_6  and  C_7
REMARK    7  A    between atoms: C_7  and  N_8
REMARK    8  A    between atoms: C_9  and  C_11
REMARK    9  A    between atoms: C_11  and  N_12
REMARK   10  A    between atoms: C_13  and  C_14
REMARK                            x       y       z     vdW  Elec       q    Type
REMARK                         _______ _______ _______ _____ _____    ______ ____
ROOT
ATOM      1  N   UNL     1       4.355   5.139  18.268  0.00  0.00    +0.000 N 
ATOM      2  C   UNL     1       3.576   3.992  18.217  0.00  0.00    +0.000 A 
ATOM      3  C   UNL     1       3.967   3.317  17.068  0.00  0.00    +0.000 A 
ATOM      4  C   UNL     1       5.023   4.023  16.443  0.00  0.00    +0.000 A 
ATOM      5  C   UNL     1       5.804   3.793  15.294  0.00  0.00    +0.000 A 
ATOM      6  C   UNL     1       6.823   4.691  14.960  0.00  0.00    +0.000 A 
ATOM      7  C   UNL     1       7.072   5.803  15.758  0.00  0.00    +0.000 A 
ATOM      8  C   UNL     1       6.305   6.053  16.900  0.00  0.00    +0.000 A 
ATOM      9  C   UNL     1       5.274   5.150  17.222  0.00  0.00    +0.000 A 
ENDROOT
BRANCH   2  10
ATOM     10  C   UNL     1       2.595   3.546  19.189  0.00  0.00    +0.000 A 
ATOM     11  C   UNL     1       1.212   3.577  19.146  0.00  0.00    +0.000 A 
ATOM     12  C   UNL     1       0.597   3.079  20.334  0.00  0.00    +0.000 A 
ATOM     13  C   UNL     1       1.522   2.619  21.237  0.00  0.00    +0.000 A 
ATOM     14  S   UNL     1       3.118   2.827  20.672  0.00  0.00    +0.000 S 
ENDBRANCH   2  10
BRANCH   1  15
ATOM     15  C   UNL     1       4.297   6.211  19.245  0.00  0.00    +0.000 C 
BRANCH  15  17
ATOM     16  N   UNL     1       2.998   7.872  18.026  0.00  0.00    +0.000 N 
ATOM     17  C   UNL     1       3.033   7.035  19.122  0.00  0.00    +0.000 C 
ATOM     18  O   UNL     1       2.089   6.930  19.899  0.00  0.00    +0.000 OA
ATOM     19  H   UNL     1       3.790   7.941  17.404  0.00  0.00    +0.000 HD
BRANCH  16  20
ATOM     20  C   UNL     1       1.845   8.710  17.758  0.00  0.00    +0.000 C 
BRANCH  20  21
ATOM     21  C   UNL     1       2.118  10.198  17.987  0.00  0.00    +0.000 C 
BRANCH  21  22
ATOM     22  C   UNL     1       0.969  10.937  18.676  0.00  0.00    +0.000 C 
BRANCH  22  23
ATOM     23  S   UNL     1      -0.501   9.858  18.684  0.00  0.00    +0.000 S 
BRANCH  23  24
ATOM     24  C   UNL     1      -1.577  10.814  17.563  0.00  0.00    +0.000 C 
BRANCH  24  26
ATOM     25  C   UNL     1      -2.982  10.402  15.501  0.00  0.00    +0.000 C 
ATOM     26  C   UNL     1      -2.490   9.837  16.824  0.00  0.00    +0.000 C 
ENDBRANCH  24  26
ENDBRANCH  23  24
ENDBRANCH  22  23
ENDBRANCH  21  22
ENDBRANCH  20  21
ENDBRANCH  16  20
ENDBRANCH  15  17
ENDBRANCH   1  15
TORSDOF 9
ENDMDL
MODEL 9
REMARK VINA RESULT:      -6.3      2.378      4.775
REMARK  Name = 
REMARK  10 active torsions:
REMARK  status: ('A' for Active; 'I' for Inactive)
REMARK    1  A    between atoms: C_1  and  C_2
REMARK    2  A    between atoms: C_2  and  C_3
REMARK    3  A    between atoms: C_3  and  S_4
REMARK    4  A    between atoms: S_4  and  C_5
REMARK    5  A    between atoms: C_5  and  C_6
REMARK    6  A    between atoms: C_6  and  C_7
REMARK    7  A    between atoms: C_7  and  N_8
REMARK    8  A    between atoms: C_9  and  C_11
REMARK    9  A    between atoms: C_11  and  N_12
REMARK   10  A    between atoms: C_13  and  C_14
REMARK                            x       y       z     vdW  Elec       q    Type
REMARK                         _______ _______ _______ _____ _____    ______ ____
ROOT
ATOM      1  N   UNL     1       3.949   4.792  18.482  0.00  0.00    +0.000 N 
ATOM      2  C   UNL     1       4.408   3.927  17.499  0.00  0.00    +0.000 A 
ATOM      3  C   UNL     1       3.743   2.725  17.708  0.00  0.00    +0.000 A 
ATOM      4  C   UNL     1       2.837   2.871  18.787  0.00  0.00    +0.000 A 
ATOM      5  C   UNL     1       1.908   2.009  19.402  0.00  0.00    +0.000 A 
ATOM      6  C   UNL     1       1.116   2.484  20.452  0.00  0.00    +0.000 A 
ATOM      7  C   UNL     1       1.236   3.800  20.886  0.00  0.00    +0.000 A 
ATOM      8  C   UNL     1       2.156   4.670  20.293  0.00  0.00    +0.000 A 
ATOM      9  C   UNL     1       2.957   4.181  19.244  0.00  0.00    +0.000 A 
ENDROOT
BRANCH   2  10
ATOM     10  C   UNL     1       5.343   4.221  16.429  0.00  0.00    +0.000 A 
ATOM     11  C   UNL     1       5.159   4.238  15.057  0.00  0.00    +0.000 A 
ATOM     12  C   UNL     1       6.351   4.533  14.329  0.00  0.00    +0.000 A 
ATOM     13  C   UNL     1       7.409   4.797  15.163  0.00  0.00    +0.000 A 
ATOM     14  S   UNL     1       6.975   4.647  16.806  0.00  0.00    +0.000 S 
ENDBRANCH   2  10
BRANCH   1  15
ATOM     15  C   UNL     1       4.374   6.157  18.735  0.00  0.00    +0.000 C 
BRANCH  15  17
ATOM     16  N   UNL     1       2.553   7.734  18.377  0.00  0.00    +0.000 N 
ATOM     17  C   UNL     1       3.680   7.154  17.832  0.00  0.00    +0.000 C 
ATOM     18  O   UNL     1       4.112   7.470  16.727  0.00  0.00    +0.000 OA
ATOM     19  H   UNL     1       2.218   7.453  19.288  0.00  0.00    +0.000 HD
BRANCH  16  20
ATOM     20  C   UNL     1       1.789   8.725  17.645  0.00  0.00    +0.000 C 
BRANCH  20  21
ATOM     21  C   UNL     1       1.502   9.986  18.461  0.00  0.00    +0.000 C 
BRANCH  21  22
ATOM     22  C   UNL     1       0.018  10.196  18.771  0.00  0.00    +0.000 C 
BRANCH  22  23
ATOM     23  S   UNL     1      -0.173  10.480  20.562  0.00  0.00    +0.000 S 
BRANCH  23  24
ATOM     24  C   UNL     1      -0.302  12.300  20.562  0.00  0.00    +0.000 C 
BRANCH  24  26
ATOM     25  C   UNL     1      -0.259  13.945  18.641  0.00  0.00    +0.000 C 
ATOM     26  C   UNL     1      -0.951  12.736  19.249  0.00  0.00    +0.000 C 
ENDBRANCH  24  26
ENDBRANCH  23  24
ENDBRANCH  22  23
ENDBRANCH  21  22
ENDBRANCH  20  21
ENDBRANCH  16  20
ENDBRANCH  15  17
ENDBRANCH   1  15
TORSDOF 9
ENDMDL
