MODEL 1
REMARK VINA RESULT:      -8.4      0.000      0.000
REMARK  Name = 
REMARK  1 active torsions:
REMARK  status: ('A' for Active; 'I' for Inactive)
REMARK    1  A    between atoms: N_3  and  C_4
REMARK                            x       y       z     vdW  Elec       q    Type
REMARK                         _______ _______ _______ _____ _____    ______ ____
ROOT
ATOM      1  O   UNL     1       1.263   5.947  20.640  0.00  0.00    +0.000 OA
ATOM      2  C   UNL     1       2.121   6.489  19.946  0.00  0.00    +0.000 C 
ATOM      3  N   UNL     1       2.144   7.869  19.800  0.00  0.00    +0.000 N 
ATOM      4  N   UNL     1       3.076   5.809  19.168  0.00  0.00    +0.000 N 
ATOM      5  C   UNL     1       4.265   6.486  18.628  0.00  0.00    +0.000 C 
ATOM      6  C   UNL     1       4.644   5.946  17.303  0.00  0.00    +0.000 A 
ATOM      7  C   UNL     1       5.305   6.517  16.235  0.00  0.00    +0.000 A 
ATOM      8  C   UNL     1       5.482   5.503  15.266  0.00  0.00    +0.000 A 
ATOM      9  C   UNL     1       4.927   4.348  15.776  0.00  0.00    +0.000 A 
ATOM     10  N   UNL     1       4.393   4.629  17.015  0.00  0.00    +0.000 N 
ATOM     11  C   UNL     1       3.706   3.778  17.903  0.00  0.00    +0.000 A 
ATOM     12  C   UNL     1       3.633   2.397  17.661  0.00  0.00    +0.000 A 
ATOM     13  C   UNL     1       2.927   1.578  18.538  0.00  0.00    +0.000 A 
ATOM     14  C   UNL     1       2.295   2.137  19.644  0.00  0.00    +0.000 A 
ATOM     15  C   UNL     1       2.359   3.514  19.875  0.00  0.00    +0.000 A 
ATOM     16  C   UNL     1       3.054   4.369  19.008  0.00  0.00    +0.000 A 
ATOM     17  H   UNL     1       2.291   8.168  18.844  0.00  0.00    +0.000 HD
ENDROOT
BRANCH   3  18
ATOM     18  C   UNL     1       1.271   8.727  20.521  0.00  0.00    +0.000 A 
ATOM     19  C   UNL     1       1.200   8.700  21.918  0.00  0.00    +0.000 A 
ATOM     20  C   UNL     1       0.314   9.542  22.595  0.00  0.00    +0.000 A 
ATOM     21  C   UNL     1      -0.509  10.413  21.882  0.00  0.00    +0.000 A 
ATOM     22  C   UNL     1      -0.437  10.457  20.490  0.00  0.00    +0.000 A 
ATOM     23  C   UNL     1       0.461   9.630  19.813  0.00  0.00    +0.000 A 
ATOM     24 CL   UNL     1       0.506   9.695  18.085  0.00  0.00    +0.000 Cl
ENDBRANCH   3  18
TORSDOF 1
ENDMDL
MODEL 2
REMARK VINA RESULT:      -7.8      2.140      6.918
REMARK  Name = 
REMARK  1 active torsions:
REMARK  status: ('A' for Active; 'I' for Inactive)
REMARK    1  A    between atoms: N_3  and  C_4
REMARK                            x       y       z     vdW  Elec       q    Type
REMARK                         _______ _______ _______ _____ _____    ______ ____
ROOT
ATOM      1  O   UNL     1       1.705   6.624  20.731  0.00  0.00    +0.000 OA
ATOM      2  C   UNL     1       1.957   7.377  19.792  0.00  0.00    +0.000 C 
ATOM      3  N   UNL     1       2.865   7.003  18.811  0.00  0.00    +0.000 N 
ATOM      4  N   UNL     1       1.462   8.687  19.654  0.00  0.00    +0.000 N 
ATOM      5  C   UNL     1       1.526   9.413  18.376  0.00  0.00    +0.000 C 
ATOM      6  C   UNL     1       1.747  10.862  18.583  0.00  0.00    +0.000 A 
ATOM      7  C   UNL     1       2.339  11.822  17.789  0.00  0.00    +0.000 A 
ATOM      8  C   UNL     1       2.180  13.062  18.448  0.00  0.00    +0.000 A 
ATOM      9  C   UNL     1       1.494  12.818  19.619  0.00  0.00    +0.000 A 
ATOM     10  N   UNL     1       1.251  11.464  19.710  0.00  0.00    +0.000 N 
ATOM     11  C   UNL     1       0.606  10.742  20.734  0.00  0.00    +0.000 A 
ATOM     12  C   UNL     1      -0.054  11.410  21.777  0.00  0.00    +0.000 A 
ATOM     13  C   UNL     1      -0.662  10.677  22.792  0.00  0.00    +0.000 A 
ATOM     14  C   UNL     1      -0.607   9.287  22.765  0.00  0.00    +0.000 A 
ATOM     15  C   UNL     1       0.061   8.626  21.732  0.00  0.00    +0.000 A 
ATOM     16  C   UNL     1       0.692   9.333  20.698  0.00  0.00    +0.000 A 
ATOM     17  H   UNL     1       3.511   7.742  18.564  0.00  0.00    +0.000 HD
ENDROOT
BRANCH   3  18
ATOM     18  C   UNL     1       3.455   5.712  18.769  0.00  0.00    +0.000 A 
ATOM     19  C   UNL     1       4.722   5.464  19.308  0.00  0.00    +0.000 A 
ATOM     20  C   UNL     1       5.283   4.187  19.230  0.00  0.00    +0.000 A 
ATOM     21  C   UNL     1       4.585   3.151  18.609  0.00  0.00    +0.000 A 
ATOM     22  C   UNL     1       3.317   3.385  18.079  0.00  0.00    +0.000 A 
ATOM     23  C   UNL     1       2.747   4.655  18.174  0.00  0.00    +0.000 A 
ATOM     24 CL   UNL     1       1.182   4.914  17.483  0.00  0.00    +0.000 Cl
ENDBRANCH   3  18
TORSDOF 1
ENDMDL
MODEL 3
REMARK VINA RESULT:      -7.6      0.969      1.135
REMARK  Name = 
REMARK  1 active torsions:
REMARK  status: ('A' for Active; 'I' for Inactive)
REMARK    1  A    between atoms: N_3  and  C_4
REMARK                            x       y       z     vdW  Elec       q    Type
REMARK                         _______ _______ _______ _____ _____    ______ ____
ROOT
ATOM      1  O   UNL     1       0.554   6.789  21.012  0.00  0.00    +0.000 OA
ATOM      2  C   UNL     1       1.485   7.142  20.290  0.00  0.00    +0.000 C 
ATOM      3  N   UNL     1       1.623   8.471  19.913  0.00  0.00    +0.000 N 
ATOM      4  N   UNL     1       2.421   6.273  19.699  0.00  0.00    +0.000 N 
ATOM      5  C   UNL     1       3.684   6.762  19.126  0.00  0.00    +0.000 C 
ATOM      6  C   UNL     1       4.084   5.974  17.938  0.00  0.00    +0.000 A 
ATOM      7  C   UNL     1       4.838   6.303  16.832  0.00  0.00    +0.000 A 
ATOM      8  C   UNL     1       4.983   5.126  16.063  0.00  0.00    +0.000 A 
ATOM      9  C   UNL     1       4.316   4.118  16.727  0.00  0.00    +0.000 A 
ATOM     10  N   UNL     1       3.746   4.648  17.865  0.00  0.00    +0.000 N 
ATOM     11  C   UNL     1       2.952   4.013  18.841  0.00  0.00    +0.000 A 
ATOM     12  C   UNL     1       2.783   2.620  18.835  0.00  0.00    +0.000 A 
ATOM     13  C   UNL     1       1.973   2.017  19.793  0.00  0.00    +0.000 A 
ATOM     14  C   UNL     1       1.334   2.802  20.747  0.00  0.00    +0.000 A 
ATOM     15  C   UNL     1       1.493   4.190  20.742  0.00  0.00    +0.000 A 
ATOM     16  C   UNL     1       2.295   4.832  19.787  0.00  0.00    +0.000 A 
ATOM     17  H   UNL     1       1.838   8.586  18.931  0.00  0.00    +0.000 HD
ENDROOT
BRANCH   3  18
ATOM     18  C   UNL     1       0.785   9.499  20.421  0.00  0.00    +0.000 A 
ATOM     19  C   UNL     1       0.777   9.838  21.779  0.00  0.00    +0.000 A 
ATOM     20  C   UNL     1      -0.076  10.840  22.250  0.00  0.00    +0.000 A 
ATOM     21  C   UNL     1      -0.928  11.506  21.370  0.00  0.00    +0.000 A 
ATOM     22  C   UNL     1      -0.919  11.184  20.013  0.00  0.00    +0.000 A 
ATOM     23  C   UNL     1      -0.054  10.197  19.538  0.00  0.00    +0.000 A 
ATOM     24 CL   UNL     1      -0.088   9.808  17.853  0.00  0.00    +0.000 Cl
ENDBRANCH   3  18
TORSDOF 1
ENDMDL
MODEL 4
REMARK VINA RESULT:      -7.5      1.841      3.689
REMARK  Name = 
REMARK  1 active torsions:
REMARK  status: ('A' for Active; 'I' for Inactive)
REMARK    1  A    between atoms: N_3  and  C_4
REMARK                            x       y       z     vdW  Elec       q    Type
REMARK                         _______ _______ _______ _____ _____    ______ ____
ROOT
ATOM      1  O   UNL     1       2.933   8.608  17.824  0.00  0.00    +0.000 OA
ATOM      2  C   UNL     1       2.422   7.723  18.507  0.00  0.00    +0.000 C 
ATOM      3  N   UNL     1       1.483   8.033  19.480  0.00  0.00    +0.000 N 
ATOM      4  N   UNL     1       2.783   6.362  18.463  0.00  0.00    +0.000 N 
ATOM      5  C   UNL     1       1.934   5.313  19.048  0.00  0.00    +0.000 C 
ATOM      6  C   UNL     1       2.744   4.215  19.621  0.00  0.00    +0.000 A 
ATOM      7  C   UNL     1       2.488   3.324  20.643  0.00  0.00    +0.000 A 
ATOM      8  C   UNL     1       3.577   2.425  20.693  0.00  0.00    +0.000 A 
ATOM      9  C   UNL     1       4.458   2.794  19.699  0.00  0.00    +0.000 A 
ATOM     10  N   UNL     1       3.955   3.907  19.059  0.00  0.00    +0.000 N 
ATOM     11  C   UNL     1       4.511   4.653  18.001  0.00  0.00    +0.000 A 
ATOM     12  C   UNL     1       5.656   4.200  17.327  0.00  0.00    +0.000 A 
ATOM     13  C   UNL     1       6.202   4.966  16.301  0.00  0.00    +0.000 A 
ATOM     14  C   UNL     1       5.612   6.177  15.956  0.00  0.00    +0.000 A 
ATOM     15  C   UNL     1       4.479   6.631  16.637  0.00  0.00    +0.000 A 
ATOM     16  C   UNL     1       3.907   5.889  17.680  0.00  0.00    +0.000 A 
ATOM     17  H   UNL     1       1.636   7.545  20.353  0.00  0.00    +0.000 HD
ENDROOT
BRANCH   3  18
ATOM     18  C   UNL     1       0.979   9.348  19.662  0.00  0.00    +0.000 A 
ATOM     19  C   UNL     1       0.539  10.124  18.584  0.00  0.00    +0.000 A 
ATOM     20  C   UNL     1       0.069  11.423  18.795  0.00  0.00    +0.000 A 
ATOM     21  C   UNL     1       0.040  11.957  20.083  0.00  0.00    +0.000 A 
ATOM     22  C   UNL     1       0.465  11.188  21.166  0.00  0.00    +0.000 A 
ATOM     23  C   UNL     1       0.916   9.884  20.959  0.00  0.00    +0.000 A 
ATOM     24 CL   UNL     1       1.458   8.969  22.323  0.00  0.00    +0.000 Cl
ENDBRANCH   3  18
TORSDOF 1
ENDMDL
MODEL 5
REMARK VINA RESULT:      -7.5      2.990      7.492
REMARK  Name = 
REMARK  1 active torsions:
REMARK  status: ('A' for Active; 'I' for Inactive)
REMARK    1  A    between atoms: N_3  and  C_4
REMARK                            x       y       z     vdW  Elec       q    Type
REMARK                         _______ _______ _______ _____ _____    ______ ____
ROOT
ATOM      1  O   UNL     1       4.599   6.372  15.622  0.00  0.00    +0.000 OA
ATOM      2  C   UNL     1       4.805   5.400  16.346  0.00  0.00    +0.000 C 
ATOM      3  N   UNL     1       5.400   4.253  15.839  0.00  0.00    +0.000 N 
ATOM      4  N   UNL     1       4.391   5.292  17.687  0.00  0.00    +0.000 N 
ATOM      5  C   UNL     1       4.938   4.268  18.591  0.00  0.00    +0.000 C 
ATOM      6  C   UNL     1       3.918   3.789  19.550  0.00  0.00    +0.000 A 
ATOM      7  C   UNL     1       3.774   2.586  20.210  0.00  0.00    +0.000 A 
ATOM      8  C   UNL     1       2.671   2.720  21.083  0.00  0.00    +0.000 A 
ATOM      9  C   UNL     1       2.181   4.000  20.930  0.00  0.00    +0.000 A 
ATOM     10  N   UNL     1       2.934   4.645  19.971  0.00  0.00    +0.000 N 
ATOM     11  C   UNL     1       2.797   5.951  19.461  0.00  0.00    +0.000 A 
ATOM     12  C   UNL     1       1.902   6.860  20.046  0.00  0.00    +0.000 A 
ATOM     13  C   UNL     1       1.764   8.137  19.510  0.00  0.00    +0.000 A 
ATOM     14  C   UNL     1       2.511   8.500  18.394  0.00  0.00    +0.000 A 
ATOM     15  C   UNL     1       3.392   7.588  17.806  0.00  0.00    +0.000 A 
ATOM     16  C   UNL     1       3.550   6.291  18.315  0.00  0.00    +0.000 A 
ATOM     17  H   UNL     1       4.943   3.401  16.137  0.00  0.00    +0.000 HD
ENDROOT
BRANCH   3  18
ATOM     18  C   UNL     1       5.903   4.178  14.513  0.00  0.00    +0.000 A 
ATOM     19  C   UNL     1       5.246   3.447  13.516  0.00  0.00    +0.000 A 
ATOM     20  C   UNL     1       5.780   3.374  12.227  0.00  0.00    +0.000 A 
ATOM     21  C   UNL     1       6.974   4.027  11.925  0.00  0.00    +0.000 A 
ATOM     22  C   UNL     1       7.631   4.768  12.907  0.00  0.00    +0.000 A 
ATOM     23  C   UNL     1       7.089   4.857  14.190  0.00  0.00    +0.000 A 
ATOM     24 CL   UNL     1       7.943   5.766  15.389  0.00  0.00    +0.000 Cl
ENDBRANCH   3  18
TORSDOF 1
ENDMDL
MODEL 6
REMARK VINA RESULT:      -7.4      2.322      7.043
REMARK  Name = 
REMARK  1 active torsions:
REMARK  status: ('A' for Active; 'I' for Inactive)
REMARK    1  A    between atoms: N_3  and  C_4
REMARK                            x       y       z     vdW  Elec       q    Type
REMARK                         _______ _______ _______ _____ _____    ______ ____
ROOT
ATOM      1  O   UNL     1       1.742   6.689  19.982  0.00  0.00    +0.000 OA
ATOM      2  C   UNL     1       1.984   7.584  19.175  0.00  0.00    +0.000 C 
ATOM      3  N   UNL     1       2.848   7.363  18.112  0.00  0.00    +0.000 N 
ATOM      4  N   UNL     1       1.522   8.910  19.279  0.00  0.00    +0.000 N 
ATOM      5  C   UNL     1       1.564   9.841  18.141  0.00  0.00    +0.000 C 
ATOM      6  C   UNL     1       1.833  11.228  18.583  0.00  0.00    +0.000 A 
ATOM      7  C   UNL     1       2.425  12.295  17.941  0.00  0.00    +0.000 A 
ATOM      8  C   UNL     1       2.323  13.408  18.806  0.00  0.00    +0.000 A 
ATOM      9  C   UNL     1       1.669  12.984  19.943  0.00  0.00    +0.000 A 
ATOM     10  N   UNL     1       1.391  11.641  19.813  0.00  0.00    +0.000 N 
ATOM     11  C   UNL     1       0.760  10.769  20.723  0.00  0.00    +0.000 A 
ATOM     12  C   UNL     1       0.155  11.264  21.888  0.00  0.00    +0.000 A 
ATOM     13  C   UNL     1      -0.441  10.383  22.786  0.00  0.00    +0.000 A 
ATOM     14  C   UNL     1      -0.426   9.017  22.522  0.00  0.00    +0.000 A 
ATOM     15  C   UNL     1       0.189   8.526  21.368  0.00  0.00    +0.000 A 
ATOM     16  C   UNL     1       0.805   9.385  20.446  0.00  0.00    +0.000 A 
ATOM     17  H   UNL     1       3.507   8.118  17.969  0.00  0.00    +0.000 HD
ENDROOT
BRANCH   3  18
ATOM     18  C   UNL     1       3.400   6.085  17.830  0.00  0.00    +0.000 A 
ATOM     19  C   UNL     1       2.622   4.923  17.866  0.00  0.00    +0.000 A 
ATOM     20  C   UNL     1       3.202   3.678  17.606  0.00  0.00    +0.000 A 
ATOM     21  C   UNL     1       4.562   3.586  17.312  0.00  0.00    +0.000 A 
ATOM     22  C   UNL     1       5.344   4.739  17.262  0.00  0.00    +0.000 A 
ATOM     23  C   UNL     1       4.762   5.985  17.502  0.00  0.00    +0.000 A 
ATOM     24 CL   UNL     1       5.768   7.391  17.454  0.00  0.00    +0.000 Cl
ENDBRANCH   3  18
TORSDOF 1
ENDMDL
MODEL 7
REMARK VINA RESULT:      -7.1      4.114      9.296
REMARK  Name = 
REMARK  1 active torsions:
REMARK  status: ('A' for Active; 'I' for Inactive)
REMARK    1  A    between atoms: N_3  and  C_4
REMARK                            x       y       z     vdW  Elec       q    Type
REMARK                         _______ _______ _______ _____ _____    ______ ____
ROOT
ATOM      1  O   UNL     1      -1.172   9.898  17.664  0.00  0.00    +0.000 OA
ATOM      2  C   UNL     1      -0.981  10.497  18.720  0.00  0.00    +0.000 C 
ATOM      3  N   UNL     1       0.106  10.185  19.524  0.00  0.00    +0.000 N 
ATOM      4  N   UNL     1      -1.852  11.456  19.272  0.00  0.00    +0.000 N 
ATOM      5  C   UNL     1      -1.428  12.366  20.346  0.00  0.00    +0.000 C 
ATOM      6  C   UNL     1      -2.537  12.656  21.282  0.00  0.00    +0.000 A 
ATOM      7  C   UNL     1      -2.543  13.004  22.617  0.00  0.00    +0.000 A 
ATOM      8  C   UNL     1      -3.886  13.261  22.974  0.00  0.00    +0.000 A 
ATOM      9  C   UNL     1      -4.654  13.065  21.845  0.00  0.00    +0.000 A 
ATOM     10  N   UNL     1      -3.826  12.671  20.816  0.00  0.00    +0.000 N 
ATOM     11  C   UNL     1      -4.155  12.335  19.488  0.00  0.00    +0.000 A 
ATOM     12  C   UNL     1      -5.452  12.542  18.995  0.00  0.00    +0.000 A 
ATOM     13  C   UNL     1      -5.762  12.179  17.687  0.00  0.00    +0.000 A 
ATOM     14  C   UNL     1      -4.782  11.608  16.881  0.00  0.00    +0.000 A 
ATOM     15  C   UNL     1      -3.495  11.391  17.379  0.00  0.00    +0.000 A 
ATOM     16  C   UNL     1      -3.151  11.737  18.693  0.00  0.00    +0.000 A 
ATOM     17  H   UNL     1      -0.130  10.116  20.506  0.00  0.00    +0.000 HD
ENDROOT
BRANCH   3  18
ATOM     18  C   UNL     1       1.106   9.257  19.129  0.00  0.00    +0.000 A 
ATOM     19  C   UNL     1       1.773   9.371  17.904  0.00  0.00    +0.000 A 
ATOM     20  C   UNL     1       2.736   8.428  17.535  0.00  0.00    +0.000 A 
ATOM     21  C   UNL     1       3.036   7.363  18.384  0.00  0.00    +0.000 A 
ATOM     22  C   UNL     1       2.386   7.247  19.613  0.00  0.00    +0.000 A 
ATOM     23  C   UNL     1       1.438   8.199  19.990  0.00  0.00    +0.000 A 
ATOM     24 CL   UNL     1       0.635   8.009  21.511  0.00  0.00    +0.000 Cl
ENDBRANCH   3  18
TORSDOF 1
ENDMDL
MODEL 8
REMARK VINA RESULT:      -7.1      1.380      1.745
REMARK  Name = 
REMARK  1 active torsions:
REMARK  status: ('A' for Active; 'I' for Inactive)
REMARK    1  A    between atoms: N_3  and  C_4
REMARK                            x       y       z     vdW  Elec       q    Type
REMARK                         _______ _______ _______ _____ _____    ______ ____
ROOT
ATOM      1  O   UNL     1       0.823   7.661  20.715  0.00  0.00    +0.000 OA
ATOM      2  C   UNL     1       1.647   7.928  19.843  0.00  0.00    +0.000 C 
ATOM      3  N   UNL     1       1.606   9.147  19.181  0.00  0.00    +0.000 N 
ATOM      4  N   UNL     1       2.623   7.038  19.357  0.00  0.00    +0.000 N 
ATOM      5  C   UNL     1       3.774   7.501  18.566  0.00  0.00    +0.000 C 
ATOM      6  C   UNL     1       4.161   6.510  17.537  0.00  0.00    +0.000 A 
ATOM      7  C   UNL     1       4.783   6.653  16.314  0.00  0.00    +0.000 A 
ATOM      8  C   UNL     1       4.995   5.353  15.802  0.00  0.00    +0.000 A 
ATOM      9  C   UNL     1       4.500   4.461  16.729  0.00  0.00    +0.000 A 
ATOM     10  N   UNL     1       3.967   5.175  17.781  0.00  0.00    +0.000 N 
ATOM     11  C   UNL     1       3.330   4.703  18.946  0.00  0.00    +0.000 A 
ATOM     12  C   UNL     1       3.317   3.333  19.251  0.00  0.00    +0.000 A 
ATOM     13  C   UNL     1       2.659   2.886  20.394  0.00  0.00    +0.000 A 
ATOM     14  C   UNL     1       2.015   3.801  21.220  0.00  0.00    +0.000 A 
ATOM     15  C   UNL     1       2.019   5.162  20.906  0.00  0.00    +0.000 A 
ATOM     16  C   UNL     1       2.665   5.647  19.760  0.00  0.00    +0.000 A 
ATOM     17  H   UNL     1       1.728   9.062  18.180  0.00  0.00    +0.000 HD
ENDROOT
BRANCH   3  18
ATOM     18  C   UNL     1       0.704  10.182  19.544  0.00  0.00    +0.000 A 
ATOM     19  C   UNL     1       0.907  10.971  20.681  0.00  0.00    +0.000 A 
ATOM     20  C   UNL     1      -0.012  11.967  21.022  0.00  0.00    +0.000 A 
ATOM     21  C   UNL     1      -1.143  12.178  20.232  0.00  0.00    +0.000 A 
ATOM     22  C   UNL     1      -1.349  11.405  19.090  0.00  0.00    +0.000 A 
ATOM     23  C   UNL     1      -0.421  10.423  18.738  0.00  0.00    +0.000 A 
ATOM     24 CL   UNL     1      -0.722   9.468  17.327  0.00  0.00    +0.000 Cl
ENDBRANCH   3  18
TORSDOF 1
ENDMDL
MODEL 9
REMARK VINA RESULT:      -7.1      2.440      7.327
REMARK  Name = 
REMARK  1 active torsions:
REMARK  status: ('A' for Active; 'I' for Inactive)
REMARK    1  A    between atoms: N_3  and  C_4
REMARK                            x       y       z     vdW  Elec       q    Type
REMARK                         _______ _______ _______ _____ _____    ______ ____
ROOT
ATOM      1  O   UNL     1       0.908   7.716  21.312  0.00  0.00    +0.000 OA
ATOM      2  C   UNL     1       1.305   8.349  20.336  0.00  0.00    +0.000 C 
ATOM      3  N   UNL     1       2.199   7.778  19.440  0.00  0.00    +0.000 N 
ATOM      4  N   UNL     1       1.002   9.697  20.071  0.00  0.00    +0.000 N 
ATOM      5  C   UNL     1       1.225  10.300  18.748  0.00  0.00    +0.000 C 
ATOM      6  C   UNL     1       1.632  11.719  18.858  0.00  0.00    +0.000 A 
ATOM      7  C   UNL     1       2.388  12.523  18.030  0.00  0.00    +0.000 A 
ATOM      8  C   UNL     1       2.369  13.823  18.583  0.00  0.00    +0.000 A 
ATOM      9  C   UNL     1       1.601  13.770  19.727  0.00  0.00    +0.000 A 
ATOM     10  N   UNL     1       1.170  12.473  19.905  0.00  0.00    +0.000 N 
ATOM     11  C   UNL     1       0.384  11.930  20.941  0.00  0.00    +0.000 A 
ATOM     12  C   UNL     1      -0.226  12.763  21.891  0.00  0.00    +0.000 A 
ATOM     13  C   UNL     1      -0.978  12.203  22.920  0.00  0.00    +0.000 A 
ATOM     14  C   UNL     1      -1.112  10.821  23.002  0.00  0.00    +0.000 A 
ATOM     15  C   UNL     1      -0.492   9.994  22.062  0.00  0.00    +0.000 A 
ATOM     16  C   UNL     1       0.278  10.523  21.017  0.00  0.00    +0.000 A 
ATOM     17  H   UNL     1       2.952   8.401  19.177  0.00  0.00    +0.000 HD
ENDROOT
BRANCH   3  18
ATOM     18  C   UNL     1       2.608   6.421  19.530  0.00  0.00    +0.000 A 
ATOM     19  C   UNL     1       2.061   5.549  20.478  0.00  0.00    +0.000 A 
ATOM     20  C   UNL     1       2.502   4.225  20.554  0.00  0.00    +0.000 A 
ATOM     21  C   UNL     1       3.495   3.766  19.689  0.00  0.00    +0.000 A 
ATOM     22  C   UNL     1       4.038   4.624  18.734  0.00  0.00    +0.000 A 
ATOM     23  C   UNL     1       3.585   5.940  18.643  0.00  0.00    +0.000 A 
ATOM     24 CL   UNL     1       4.299   6.982  17.461  0.00  0.00    +0.000 Cl
ENDBRANCH   3  18
TORSDOF 1
ENDMDL
