MODEL 1
REMARK VINA RESULT:      -7.2      0.000      0.000
REMARK  Name = 
REMARK  14 active torsions:
REMARK  status: ('A' for Active; 'I' for Inactive)
REMARK    1  A    between atoms: C_1  and  C_2
REMARK    2  A    between atoms: C_4  and  O_5
REMARK    3  A    between atoms: O_5  and  C_6
REMARK    4  A    between atoms: C_6  and  C_7
REMARK    5  A    between atoms: C_7  and  O_8
REMARK    6  A    between atoms: C_7  and  C_9
REMARK    7  A    between atoms: C_9  and  N_10
REMARK    8  A    between atoms: N_10  and  C_11
REMARK    9  A    between atoms: C_11  and  C_12
REMARK   10  A    between atoms: C_11  and  C_13
REMARK   11  A    between atoms: C_11  and  C_14
REMARK   12  A    between atoms: C_16  and  C_17
REMARK   13  A    between atoms: C_18  and  C_19
REMARK   14  A    between atoms: C_22  and  C_23
REMARK                            x       y       z     vdW  Elec       q    Type
REMARK                         _______ _______ _______ _____ _____    ______ ____
ROOT
ATOM      1  C   UNL     1       3.079   7.467  17.153  0.00  0.00    +0.000 C 
ATOM      2  C   UNL     1       2.331   8.256  18.200  0.00  0.00    +0.000 A 
ATOM      3  C   UNL     1       1.986   9.583  17.875  0.00  0.00    +0.000 A 
ATOM      4  C   UNL     1       1.303  10.391  18.774  0.00  0.00    +0.000 A 
ATOM      5  C   UNL     1       0.950   9.870  20.014  0.00  0.00    +0.000 A 
ATOM      6  C   UNL     1       1.256   8.539  20.372  0.00  0.00    +0.000 A 
ATOM      7  C   UNL     1       0.765   8.084  21.722  0.00  0.00    +0.000 C 
ATOM      8  C   UNL     1       1.971   7.711  19.463  0.00  0.00    +0.000 A 
ENDROOT
BRANCH   8   9
ATOM      9  C   UNL     1       2.321   6.307  19.773  0.00  0.00    +0.000 A 
ATOM     10  N   UNL     1       3.542   5.804  19.861  0.00  0.00    +0.000 NA
ATOM     11  C   UNL     1       3.409   4.478  20.175  0.00  0.00    +0.000 A 
ATOM     12  C   UNL     1       2.085   4.140  20.268  0.00  0.00    +0.000 A 
ATOM     13  N   UNL     1       1.411   5.319  20.075  0.00  0.00    +0.000 N 
ATOM     14  H   UNL     1       0.412   5.440  20.138  0.00  0.00    +0.000 HD
BRANCH  12  15
ATOM     15  C   UNL     1       1.395   2.868  20.513  0.00  0.00    +0.000 C 
ATOM     16  F   UNL     1       0.261   2.736  19.788  0.00  0.00    +0.000 F 
ATOM     17  F   UNL     1       2.192   1.811  20.217  0.00  0.00    +0.000 F 
ATOM     18  F   UNL     1       1.056   2.742  21.821  0.00  0.00    +0.000 F 
ENDBRANCH  12  15
ENDBRANCH   8   9
BRANCH   4  19
ATOM     19  O   UNL     1       0.913  11.682  18.559  0.00  0.00    +0.000 OA
BRANCH  19  20
ATOM     20  C   UNL     1       0.405  12.393  19.696  0.00  0.00    +0.000 C 
BRANCH  20  21
ATOM     21  C   UNL     1      -0.893  13.104  19.298  0.00  0.00    +0.000 C 
BRANCH  21  22
ATOM     22  O   UNL     1      -0.620  14.041  18.245  0.00  0.00    +0.000 OA
ATOM     23  H   UNL     1      -0.447  13.505  17.448  0.00  0.00    +0.000 HD
ENDBRANCH  21  22
BRANCH  21  24
ATOM     24  C   UNL     1      -1.992  12.133  18.819  0.00  0.00    +0.000 C 
BRANCH  24  25
ATOM     25  N   UNL     1      -2.029  11.993  17.358  0.00  0.00    +0.000 NA
ATOM     26  H   UNL     1      -1.094  11.760  17.024  0.00  0.00    +0.000 HD
BRANCH  25  27
ATOM     27  C   UNL     1      -2.985  10.991  16.845  0.00  0.00    +0.000 C 
ATOM     28  C   UNL     1      -2.909   9.672  17.633  0.00  0.00    +0.000 C 
ATOM     29  C   UNL     1      -4.395  11.583  17.044  0.00  0.00    +0.000 C 
ATOM     30  C   UNL     1      -2.777  10.728  15.345  0.00  0.00    +0.000 C 
ENDBRANCH  25  27
ENDBRANCH  24  25
ENDBRANCH  21  24
ENDBRANCH  20  21
ENDBRANCH  19  20
ENDBRANCH   4  19
TORSDOF 9
ENDMDL
MODEL 2
REMARK VINA RESULT:      -6.9      3.434      4.640
REMARK  Name = 
REMARK  14 active torsions:
REMARK  status: ('A' for Active; 'I' for Inactive)
REMARK    1  A    between atoms: C_1  and  C_2
REMARK    2  A    between atoms: C_4  and  O_5
REMARK    3  A    between atoms: O_5  and  C_6
REMARK    4  A    between atoms: C_6  and  C_7
REMARK    5  A    between atoms: C_7  and  O_8
REMARK    6  A    between atoms: C_7  and  C_9
REMARK    7  A    between atoms: C_9  and  N_10
REMARK    8  A    between atoms: N_10  and  C_11
REMARK    9  A    between atoms: C_11  and  C_12
REMARK   10  A    between atoms: C_11  and  C_13
REMARK   11  A    between atoms: C_11  and  C_14
REMARK   12  A    between atoms: C_16  and  C_17
REMARK   13  A    between atoms: C_18  and  C_19
REMARK   14  A    between atoms: C_22  and  C_23
REMARK                            x       y       z     vdW  Elec       q    Type
REMARK                         _______ _______ _______ _____ _____    ______ ____
ROOT
ATOM      1  C   UNL     1       2.830   3.968  20.362  0.00  0.00    +0.000 C 
ATOM      2  C   UNL     1       2.458   5.401  20.065  0.00  0.00    +0.000 A 
ATOM      3  C   UNL     1       1.599   6.041  20.980  0.00  0.00    +0.000 A 
ATOM      4  C   UNL     1       1.196   7.355  20.791  0.00  0.00    +0.000 A 
ATOM      5  C   UNL     1       1.658   8.048  19.677  0.00  0.00    +0.000 A 
ATOM      6  C   UNL     1       2.537   7.452  18.747  0.00  0.00    +0.000 A 
ATOM      7  C   UNL     1       3.006   8.333  17.618  0.00  0.00    +0.000 C 
ATOM      8  C   UNL     1       2.941   6.101  18.926  0.00  0.00    +0.000 A 
ENDROOT
BRANCH   8   9
ATOM      9  C   UNL     1       3.863   5.417  17.991  0.00  0.00    +0.000 A 
ATOM     10  N   UNL     1       3.550   4.437  17.157  0.00  0.00    +0.000 NA
ATOM     11  C   UNL     1       4.692   4.109  16.477  0.00  0.00    +0.000 A 
ATOM     12  C   UNL     1       5.740   4.881  16.902  0.00  0.00    +0.000 A 
ATOM     13  N   UNL     1       5.187   5.745  17.812  0.00  0.00    +0.000 N 
ATOM     14  H   UNL     1       5.675   6.495  18.279  0.00  0.00    +0.000 HD
BRANCH  12  15
ATOM     15  C   UNL     1       7.167   4.901  16.560  0.00  0.00    +0.000 C 
ATOM     16  F   UNL     1       7.925   4.190  17.425  0.00  0.00    +0.000 F 
ATOM     17  F   UNL     1       7.383   4.396  15.320  0.00  0.00    +0.000 F 
ATOM     18  F   UNL     1       7.647   6.170  16.550  0.00  0.00    +0.000 F 
ENDBRANCH  12  15
ENDBRANCH   8   9
BRANCH   4  19
ATOM     19  O   UNL     1       0.376   8.072  21.617  0.00  0.00    +0.000 OA
BRANCH  19  20
ATOM     20  C   UNL     1       0.818   9.390  21.968  0.00  0.00    +0.000 C 
BRANCH  20  21
ATOM     21  C   UNL     1      -0.396  10.322  22.028  0.00  0.00    +0.000 C 
BRANCH  21  22
ATOM     22  O   UNL     1      -0.419  10.994  23.297  0.00  0.00    +0.000 OA
ATOM     23  H   UNL     1      -0.777  11.885  23.122  0.00  0.00    +0.000 HD
ENDBRANCH  21  22
BRANCH  21  24
ATOM     24  C   UNL     1      -0.399  11.385  20.910  0.00  0.00    +0.000 C 
BRANCH  24  25
ATOM     25  N   UNL     1      -0.676  10.817  19.585  0.00  0.00    +0.000 NA
ATOM     26  H   UNL     1      -1.087   9.890  19.702  0.00  0.00    +0.000 HD
BRANCH  25  27
ATOM     27  C   UNL     1      -1.560  11.627  18.724  0.00  0.00    +0.000 C 
ATOM     28  C   UNL     1      -2.769  12.177  19.500  0.00  0.00    +0.000 C 
ATOM     29  C   UNL     1      -0.723  12.827  18.236  0.00  0.00    +0.000 C 
ATOM     30  C   UNL     1      -2.032  10.835  17.494  0.00  0.00    +0.000 C 
ENDBRANCH  25  27
ENDBRANCH  24  25
ENDBRANCH  21  24
ENDBRANCH  20  21
ENDBRANCH  19  20
ENDBRANCH   4  19
TORSDOF 9
ENDMDL
MODEL 3
REMARK VINA RESULT:      -6.9      1.392      1.940
REMARK  Name = 
REMARK  14 active torsions:
REMARK  status: ('A' for Active; 'I' for Inactive)
REMARK    1  A    between atoms: C_1  and  C_2
REMARK    2  A    between atoms: C_4  and  O_5
REMARK    3  A    between atoms: O_5  and  C_6
REMARK    4  A    between atoms: C_6  and  C_7
REMARK    5  A    between atoms: C_7  and  O_8
REMARK    6  A    between atoms: C_7  and  C_9
REMARK    7  A    between atoms: C_9  and  N_10
REMARK    8  A    between atoms: N_10  and  C_11
REMARK    9  A    between atoms: C_11  and  C_12
REMARK   10  A    between atoms: C_11  and  C_13
REMARK   11  A    between atoms: C_11  and  C_14
REMARK   12  A    between atoms: C_16  and  C_17
REMARK   13  A    between atoms: C_18  and  C_19
REMARK   14  A    between atoms: C_22  and  C_23
REMARK                            x       y       z     vdW  Elec       q    Type
REMARK                         _______ _______ _______ _____ _____    ______ ____
ROOT
ATOM      1  C   UNL     1       3.853   7.267  16.786  0.00  0.00    +0.000 C 
ATOM      2  C   UNL     1       2.956   7.720  17.913  0.00  0.00    +0.000 A 
ATOM      3  C   UNL     1       2.438   9.027  17.831  0.00  0.00    +0.000 A 
ATOM      4  C   UNL     1       1.610   9.537  18.821  0.00  0.00    +0.000 A 
ATOM      5  C   UNL     1       1.285   8.733  19.908  0.00  0.00    +0.000 A 
ATOM      6  C   UNL     1       1.765   7.409  20.019  0.00  0.00    +0.000 A 
ATOM      7  C   UNL     1       1.290   6.628  21.217  0.00  0.00    +0.000 C 
ATOM      8  C   UNL     1       2.627   6.887  19.017  0.00  0.00    +0.000 A 
ENDROOT
BRANCH   8   9
ATOM      9  C   UNL     1       3.163   5.508  19.070  0.00  0.00    +0.000 A 
ATOM     10  N   UNL     1       4.361   5.147  19.504  0.00  0.00    +0.000 NA
ATOM     11  C   UNL     1       4.437   3.785  19.388  0.00  0.00    +0.000 A 
ATOM     12  C   UNL     1       3.277   3.285  18.857  0.00  0.00    +0.000 A 
ATOM     13  N   UNL     1       2.459   4.378  18.722  0.00  0.00    +0.000 N 
ATOM     14  H   UNL     1       1.499   4.356  18.411  0.00  0.00    +0.000 HD
BRANCH  12  15
ATOM     15  C   UNL     1       2.859   1.933  18.474  0.00  0.00    +0.000 C 
ATOM     16  F   UNL     1       3.848   1.019  18.605  0.00  0.00    +0.000 F 
ATOM     17  F   UNL     1       1.812   1.509  19.225  0.00  0.00    +0.000 F 
ATOM     18  F   UNL     1       2.447   1.898  17.181  0.00  0.00    +0.000 F 
ENDBRANCH  12  15
ENDBRANCH   8   9
BRANCH   4  19
ATOM     19  O   UNL     1       1.047  10.782  18.837  0.00  0.00    +0.000 OA
BRANCH  19  20
ATOM     20  C   UNL     1       0.205  11.088  19.957  0.00  0.00    +0.000 C 
BRANCH  20  21
ATOM     21  C   UNL     1      -0.954  11.970  19.481  0.00  0.00    +0.000 C 
BRANCH  21  22
ATOM     22  O   UNL     1      -0.633  13.349  19.721  0.00  0.00    +0.000 OA
ATOM     23  H   UNL     1       0.217  13.509  19.268  0.00  0.00    +0.000 HD
ENDBRANCH  21  22
BRANCH  21  24
ATOM     24  C   UNL     1      -1.272  11.794  17.982  0.00  0.00    +0.000 C 
BRANCH  24  25
ATOM     25  N   UNL     1      -2.667  12.113  17.654  0.00  0.00    +0.000 NA
ATOM     26  H   UNL     1      -2.687  12.954  17.076  0.00  0.00    +0.000 HD
BRANCH  25  27
ATOM     27  C   UNL     1      -3.414  11.041  16.967  0.00  0.00    +0.000 C 
ATOM     28  C   UNL     1      -3.026  10.932  15.483  0.00  0.00    +0.000 C 
ATOM     29  C   UNL     1      -3.025   9.719  17.659  0.00  0.00    +0.000 C 
ATOM     30  C   UNL     1      -4.933  11.232  17.108  0.00  0.00    +0.000 C 
ENDBRANCH  25  27
ENDBRANCH  24  25
ENDBRANCH  21  24
ENDBRANCH  20  21
ENDBRANCH  19  20
ENDBRANCH   4  19
TORSDOF 9
ENDMDL
MODEL 4
REMARK VINA RESULT:      -6.8      3.856      4.945
REMARK  Name = 
REMARK  14 active torsions:
REMARK  status: ('A' for Active; 'I' for Inactive)
REMARK    1  A    between atoms: C_1  and  C_2
REMARK    2  A    between atoms: C_4  and  O_5
REMARK    3  A    between atoms: O_5  and  C_6
REMARK    4  A    between atoms: C_6  and  C_7
REMARK    5  A    between atoms: C_7  and  O_8
REMARK    6  A    between atoms: C_7  and  C_9
REMARK    7  A    between atoms: C_9  and  N_10
REMARK    8  A    between atoms: N_10  and  C_11
REMARK    9  A    between atoms: C_11  and  C_12
REMARK   10  A    between atoms: C_11  and  C_13
REMARK   11  A    between atoms: C_11  and  C_14
REMARK   12  A    between atoms: C_16  and  C_17
REMARK   13  A    between atoms: C_18  and  C_19
REMARK   14  A    between atoms: C_22  and  C_23
REMARK                            x       y       z     vdW  Elec       q    Type
REMARK                         _______ _______ _______ _____ _____    ______ ____
ROOT
ATOM      1  C   UNL     1       3.046   8.233  17.506  0.00  0.00    +0.000 C 
ATOM      2  C   UNL     1       2.562   7.489  18.728  0.00  0.00    +0.000 A 
ATOM      3  C   UNL     1       1.697   8.182  19.597  0.00  0.00    +0.000 A 
ATOM      4  C   UNL     1       1.203   7.586  20.749  0.00  0.00    +0.000 A 
ATOM      5  C   UNL     1       1.569   6.276  21.039  0.00  0.00    +0.000 A 
ATOM      6  C   UNL     1       2.417   5.537  20.184  0.00  0.00    +0.000 A 
ATOM      7  C   UNL     1       2.687   4.111  20.587  0.00  0.00    +0.000 C 
ATOM      8  C   UNL     1       2.939   6.148  19.012  0.00  0.00    +0.000 A 
ENDROOT
BRANCH   8   9
ATOM      9  C   UNL     1       3.829   5.430  18.072  0.00  0.00    +0.000 A 
ATOM     10  N   UNL     1       3.486   4.432  17.273  0.00  0.00    +0.000 NA
ATOM     11  C   UNL     1       4.606   4.073  16.572  0.00  0.00    +0.000 A 
ATOM     12  C   UNL     1       5.672   4.846  16.949  0.00  0.00    +0.000 A 
ATOM     13  N   UNL     1       5.152   5.740  17.850  0.00  0.00    +0.000 N 
ATOM     14  H   UNL     1       5.659   6.497  18.283  0.00  0.00    +0.000 HD
BRANCH  12  15
ATOM     15  C   UNL     1       7.090   4.843  16.569  0.00  0.00    +0.000 C 
ATOM     16  F   UNL     1       7.866   4.158  17.439  0.00  0.00    +0.000 F 
ATOM     17  F   UNL     1       7.270   4.292  15.343  0.00  0.00    +0.000 F 
ATOM     18  F   UNL     1       7.578   6.107  16.501  0.00  0.00    +0.000 F 
ENDBRANCH  12  15
ENDBRANCH   8   9
BRANCH   4  19
ATOM     19  O   UNL     1       0.355   8.161  21.652  0.00  0.00    +0.000 OA
BRANCH  19  20
ATOM     20  C   UNL     1      -0.371   9.312  21.203  0.00  0.00    +0.000 C 
BRANCH  20  21
ATOM     21  C   UNL     1      -0.536  10.285  22.375  0.00  0.00    +0.000 C 
BRANCH  21  22
ATOM     22  O   UNL     1       0.354   9.907  23.437  0.00  0.00    +0.000 OA
ATOM     23  H   UNL     1      -0.185   9.905  24.251  0.00  0.00    +0.000 HD
ENDBRANCH  21  22
BRANCH  21  24
ATOM     24  C   UNL     1      -0.248  11.750  21.991  0.00  0.00    +0.000 C 
BRANCH  24  25
ATOM     25  N   UNL     1       1.023  11.911  21.275  0.00  0.00    +0.000 NA
ATOM     26  H   UNL     1       1.423  10.989  21.101  0.00  0.00    +0.000 HD
BRANCH  25  27
ATOM     27  C   UNL     1       0.938  12.646  19.997  0.00  0.00    +0.000 C 
ATOM     28  C   UNL     1       1.522  11.835  18.829  0.00  0.00    +0.000 C 
ATOM     29  C   UNL     1      -0.562  12.872  19.717  0.00  0.00    +0.000 C 
ATOM     30  C   UNL     1       1.624  14.019  20.088  0.00  0.00    +0.000 C 
ENDBRANCH  25  27
ENDBRANCH  24  25
ENDBRANCH  21  24
ENDBRANCH  20  21
ENDBRANCH  19  20
ENDBRANCH   4  19
TORSDOF 9
ENDMDL
MODEL 5
REMARK VINA RESULT:      -6.7      3.818      4.936
REMARK  Name = 
REMARK  14 active torsions:
REMARK  status: ('A' for Active; 'I' for Inactive)
REMARK    1  A    between atoms: C_1  and  C_2
REMARK    2  A    between atoms: C_4  and  O_5
REMARK    3  A    between atoms: O_5  and  C_6
REMARK    4  A    between atoms: C_6  and  C_7
REMARK    5  A    between atoms: C_7  and  O_8
REMARK    6  A    between atoms: C_7  and  C_9
REMARK    7  A    between atoms: C_9  and  N_10
REMARK    8  A    between atoms: N_10  and  C_11
REMARK    9  A    between atoms: C_11  and  C_12
REMARK   10  A    between atoms: C_11  and  C_13
REMARK   11  A    between atoms: C_11  and  C_14
REMARK   12  A    between atoms: C_16  and  C_17
REMARK   13  A    between atoms: C_18  and  C_19
REMARK   14  A    between atoms: C_22  and  C_23
REMARK                            x       y       z     vdW  Elec       q    Type
REMARK                         _______ _______ _______ _____ _____    ______ ____
ROOT
ATOM      1  C   UNL     1       2.480   4.576  20.791  0.00  0.00    +0.000 C 
ATOM      2  C   UNL     1       2.178   5.989  20.350  0.00  0.00    +0.000 A 
ATOM      3  C   UNL     1       1.409   6.780  21.225  0.00  0.00    +0.000 A 
ATOM      4  C   UNL     1       1.074   8.089  20.907  0.00  0.00    +0.000 A 
ATOM      5  C   UNL     1       1.517   8.623  19.702  0.00  0.00    +0.000 A 
ATOM      6  C   UNL     1       2.308   7.872  18.805  0.00  0.00    +0.000 A 
ATOM      7  C   UNL     1       2.768   8.590  17.563  0.00  0.00    +0.000 C 
ATOM      8  C   UNL     1       2.640   6.525  19.117  0.00  0.00    +0.000 A 
ENDROOT
BRANCH   8   9
ATOM      9  C   UNL     1       3.468   5.684  18.224  0.00  0.00    +0.000 A 
ATOM     10  N   UNL     1       3.045   4.668  17.489  0.00  0.00    +0.000 NA
ATOM     11  C   UNL     1       4.131   4.181  16.812  0.00  0.00    +0.000 A 
ATOM     12  C   UNL     1       5.255   4.890  17.142  0.00  0.00    +0.000 A 
ATOM     13  N   UNL     1       4.809   5.875  17.985  0.00  0.00    +0.000 N 
ATOM     14  H   UNL     1       5.375   6.616  18.372  0.00  0.00    +0.000 HD
BRANCH  12  15
ATOM     15  C   UNL     1       6.667   4.753  16.765  0.00  0.00    +0.000 C 
ATOM     16  F   UNL     1       7.233   5.928  16.409  0.00  0.00    +0.000 F 
ATOM     17  F   UNL     1       7.402   4.239  17.782  0.00  0.00    +0.000 F 
ATOM     18  F   UNL     1       6.810   3.902  15.716  0.00  0.00    +0.000 F 
ENDBRANCH  12  15
ENDBRANCH   8   9
BRANCH   4  19
ATOM     19  O   UNL     1       0.345   8.944  21.683  0.00  0.00    +0.000 OA
BRANCH  19  20
ATOM     20  C   UNL     1      -0.479   9.891  20.989  0.00  0.00    +0.000 C 
BRANCH  20  21
ATOM     21  C   UNL     1      -0.759  11.079  21.915  0.00  0.00    +0.000 C 
BRANCH  21  22
ATOM     22  O   UNL     1      -0.383  10.736  23.258  0.00  0.00    +0.000 OA
ATOM     23  H   UNL     1       0.538  10.414  23.204  0.00  0.00    +0.000 HD
ENDBRANCH  21  22
BRANCH  21  24
ATOM     24  C   UNL     1      -0.001  12.358  21.504  0.00  0.00    +0.000 C 
BRANCH  24  25
ATOM     25  N   UNL     1       1.330  12.077  20.952  0.00  0.00    +0.000 NA
ATOM     26  H   UNL     1       1.348  11.118  20.604  0.00  0.00    +0.000 HD
BRANCH  25  27
ATOM     27  C   UNL     1       1.769  12.986  19.874  0.00  0.00    +0.000 C 
ATOM     28  C   UNL     1       2.067  12.227  18.570  0.00  0.00    +0.000 C 
ATOM     29  C   UNL     1       0.597  13.951  19.605  0.00  0.00    +0.000 C 
ATOM     30  C   UNL     1       2.991  13.816  20.298  0.00  0.00    +0.000 C 
ENDBRANCH  25  27
ENDBRANCH  24  25
ENDBRANCH  21  24
ENDBRANCH  20  21
ENDBRANCH  19  20
ENDBRANCH   4  19
TORSDOF 9
ENDMDL
MODEL 6
REMARK VINA RESULT:      -6.7      5.071      8.722
REMARK  Name = 
REMARK  14 active torsions:
REMARK  status: ('A' for Active; 'I' for Inactive)
REMARK    1  A    between atoms: C_1  and  C_2
REMARK    2  A    between atoms: C_4  and  O_5
REMARK    3  A    between atoms: O_5  and  C_6
REMARK    4  A    between atoms: C_6  and  C_7
REMARK    5  A    between atoms: C_7  and  O_8
REMARK    6  A    between atoms: C_7  and  C_9
REMARK    7  A    between atoms: C_9  and  N_10
REMARK    8  A    between atoms: N_10  and  C_11
REMARK    9  A    between atoms: C_11  and  C_12
REMARK   10  A    between atoms: C_11  and  C_13
REMARK   11  A    between atoms: C_11  and  C_14
REMARK   12  A    between atoms: C_16  and  C_17
REMARK   13  A    between atoms: C_18  and  C_19
REMARK   14  A    between atoms: C_22  and  C_23
REMARK                            x       y       z     vdW  Elec       q    Type
REMARK                         _______ _______ _______ _____ _____    ______ ____
ROOT
ATOM      1  C   UNL     1      -0.135   8.780  21.954  0.00  0.00    +0.000 C 
ATOM      2  C   UNL     1       0.792   8.209  20.908  0.00  0.00    +0.000 A 
ATOM      3  C   UNL     1       1.319   6.925  21.154  0.00  0.00    +0.000 A 
ATOM      4  C   UNL     1       2.184   6.318  20.255  0.00  0.00    +0.000 A 
ATOM      5  C   UNL     1       2.527   6.993  19.089  0.00  0.00    +0.000 A 
ATOM      6  C   UNL     1       2.005   8.271  18.793  0.00  0.00    +0.000 A 
ATOM      7  C   UNL     1       2.412   8.865  17.469  0.00  0.00    +0.000 C 
ATOM      8  C   UNL     1       1.132   8.906  19.717  0.00  0.00    +0.000 A 
ENDROOT
BRANCH   8   9
ATOM      9  C   UNL     1       0.546  10.243  19.467  0.00  0.00    +0.000 A 
ATOM     10  N   UNL     1      -0.646  10.494  18.950  0.00  0.00    +0.000 NA
ATOM     11  C   UNL     1      -0.787  11.855  18.905  0.00  0.00    +0.000 A 
ATOM     12  C   UNL     1       0.341  12.467  19.384  0.00  0.00    +0.000 A 
ATOM     13  N   UNL     1       1.148  11.437  19.794  0.00  0.00    +0.000 N 
ATOM     14  H   UNL     1       2.040  11.539  20.254  0.00  0.00    +0.000 HD
BRANCH  12  15
ATOM     15  C   UNL     1       0.737  13.875  19.499  0.00  0.00    +0.000 C 
ATOM     16  F   UNL     1       2.062  14.066  19.303  0.00  0.00    +0.000 F 
ATOM     17  F   UNL     1       0.078  14.648  18.600  0.00  0.00    +0.000 F 
ATOM     18  F   UNL     1       0.436  14.367  20.727  0.00  0.00    +0.000 F 
ENDBRANCH  12  15
ENDBRANCH   8   9
BRANCH   4  19
ATOM     19  O   UNL     1       2.744   5.079  20.389  0.00  0.00    +0.000 OA
BRANCH  19  20
ATOM     20  C   UNL     1       3.397   4.544  19.230  0.00  0.00    +0.000 C 
BRANCH  20  21
ATOM     21  C   UNL     1       4.794   4.056  19.627  0.00  0.00    +0.000 C 
BRANCH  21  22
ATOM     22  O   UNL     1       4.922   2.663  19.303  0.00  0.00    +0.000 OA
ATOM     23  H   UNL     1       5.758   2.580  18.805  0.00  0.00    +0.000 HD
ENDBRANCH  21  22
BRANCH  21  24
ATOM     24  C   UNL     1       5.928   4.830  18.923  0.00  0.00    +0.000 C 
BRANCH  24  25
ATOM     25  N   UNL     1       6.152   4.381  17.543  0.00  0.00    +0.000 NA
ATOM     26  H   UNL     1       5.342   3.842  17.236  0.00  0.00    +0.000 HD
BRANCH  25  27
ATOM     27  C   UNL     1       6.412   5.456  16.565  0.00  0.00    +0.000 C 
ATOM     28  C   UNL     1       7.051   4.915  15.275  0.00  0.00    +0.000 C 
ATOM     29  C   UNL     1       5.041   6.061  16.200  0.00  0.00    +0.000 C 
ATOM     30  C   UNL     1       7.286   6.567  17.168  0.00  0.00    +0.000 C 
ENDBRANCH  25  27
ENDBRANCH  24  25
ENDBRANCH  21  24
ENDBRANCH  20  21
ENDBRANCH  19  20
ENDBRANCH   4  19
TORSDOF 9
ENDMDL
MODEL 7
REMARK VINA RESULT:      -6.7      4.819      8.332
REMARK  Name = 
REMARK  14 active torsions:
REMARK  status: ('A' for Active; 'I' for Inactive)
REMARK    1  A    between atoms: C_1  and  C_2
REMARK    2  A    between atoms: C_4  and  O_5
REMARK    3  A    between atoms: O_5  and  C_6
REMARK    4  A    between atoms: C_6  and  C_7
REMARK    5  A    between atoms: C_7  and  O_8
REMARK    6  A    between atoms: C_7  and  C_9
REMARK    7  A    between atoms: C_9  and  N_10
REMARK    8  A    between atoms: N_10  and  C_11
REMARK    9  A    between atoms: C_11  and  C_12
REMARK   10  A    between atoms: C_11  and  C_13
REMARK   11  A    between atoms: C_11  and  C_14
REMARK   12  A    between atoms: C_16  and  C_17
REMARK   13  A    between atoms: C_18  and  C_19
REMARK   14  A    between atoms: C_22  and  C_23
REMARK                            x       y       z     vdW  Elec       q    Type
REMARK                         _______ _______ _______ _____ _____    ______ ____
ROOT
ATOM      1  C   UNL     1       1.921   9.629  17.601  0.00  0.00    +0.000 C 
ATOM      2  C   UNL     1       1.778   8.753  18.823  0.00  0.00    +0.000 A 
ATOM      3  C   UNL     1       2.386   7.483  18.773  0.00  0.00    +0.000 A 
ATOM      4  C   UNL     1       2.306   6.604  19.844  0.00  0.00    +0.000 A 
ATOM      5  C   UNL     1       1.616   6.995  20.986  0.00  0.00    +0.000 A 
ATOM      6  C   UNL     1       1.010   8.267  21.086  0.00  0.00    +0.000 A 
ATOM      7  C   UNL     1       0.345   8.584  22.401  0.00  0.00    +0.000 C 
ATOM      8  C   UNL     1       1.074   9.166  19.987  0.00  0.00    +0.000 A 
ENDROOT
BRANCH   8   9
ATOM      9  C   UNL     1       0.465  10.514  20.027  0.00  0.00    +0.000 A 
ATOM     10  N   UNL     1       1.113  11.668  20.066  0.00  0.00    +0.000 NA
ATOM     11  C   UNL     1       0.169  12.659  20.083  0.00  0.00    +0.000 A 
ATOM     12  C   UNL     1      -1.090  12.120  20.073  0.00  0.00    +0.000 A 
ATOM     13  N   UNL     1      -0.887  10.767  19.973  0.00  0.00    +0.000 N 
ATOM     14  H   UNL     1      -1.612  10.071  19.881  0.00  0.00    +0.000 HD
BRANCH  12  15
ATOM     15  C   UNL     1      -2.429  12.714  20.142  0.00  0.00    +0.000 C 
ATOM     16  F   UNL     1      -3.215  12.365  19.098  0.00  0.00    +0.000 F 
ATOM     17  F   UNL     1      -3.074  12.345  21.277  0.00  0.00    +0.000 F 
ATOM     18  F   UNL     1      -2.360  14.070  20.160  0.00  0.00    +0.000 F 
ENDBRANCH  12  15
ENDBRANCH   8   9
BRANCH   4  19
ATOM     19  O   UNL     1       2.863   5.358  19.905  0.00  0.00    +0.000 OA
BRANCH  19  20
ATOM     20  C   UNL     1       3.106   4.705  18.652  0.00  0.00    +0.000 C 
BRANCH  20  21
ATOM     21  C   UNL     1       4.226   3.676  18.836  0.00  0.00    +0.000 C 
BRANCH  21  22
ATOM     22  O   UNL     1       4.189   2.732  17.755  0.00  0.00    +0.000 OA
ATOM     23  H   UNL     1       4.012   3.255  16.949  0.00  0.00    +0.000 HD
ENDBRANCH  21  22
BRANCH  21  24
ATOM     24  C   UNL     1       5.630   4.312  18.885  0.00  0.00    +0.000 C 
BRANCH  24  25
ATOM     25  N   UNL     1       5.624   5.734  18.518  0.00  0.00    +0.000 NA
ATOM     26  H   UNL     1       6.036   6.273  19.281  0.00  0.00    +0.000 HD
BRANCH  25  27
ATOM     27  C   UNL     1       6.327   6.064  17.263  0.00  0.00    +0.000 C 
ATOM     28  C   UNL     1       7.361   7.185  17.462  0.00  0.00    +0.000 C 
ATOM     29  C   UNL     1       7.082   4.790  16.832  0.00  0.00    +0.000 C 
ATOM     30  C   UNL     1       5.340   6.442  16.146  0.00  0.00    +0.000 C 
ENDBRANCH  25  27
ENDBRANCH  24  25
ENDBRANCH  21  24
ENDBRANCH  20  21
ENDBRANCH  19  20
ENDBRANCH   4  19
TORSDOF 9
ENDMDL
MODEL 8
REMARK VINA RESULT:      -6.7      5.066      8.723
REMARK  Name = 
REMARK  14 active torsions:
REMARK  status: ('A' for Active; 'I' for Inactive)
REMARK    1  A    between atoms: C_1  and  C_2
REMARK    2  A    between atoms: C_4  and  O_5
REMARK    3  A    between atoms: O_5  and  C_6
REMARK    4  A    between atoms: C_6  and  C_7
REMARK    5  A    between atoms: C_7  and  O_8
REMARK    6  A    between atoms: C_7  and  C_9
REMARK    7  A    between atoms: C_9  and  N_10
REMARK    8  A    between atoms: N_10  and  C_11
REMARK    9  A    between atoms: C_11  and  C_12
REMARK   10  A    between atoms: C_11  and  C_13
REMARK   11  A    between atoms: C_11  and  C_14
REMARK   12  A    between atoms: C_16  and  C_17
REMARK   13  A    between atoms: C_18  and  C_19
REMARK   14  A    between atoms: C_22  and  C_23
REMARK                            x       y       z     vdW  Elec       q    Type
REMARK                         _______ _______ _______ _____ _____    ______ ____
ROOT
ATOM      1  C   UNL     1       2.258   8.995  17.526  0.00  0.00    +0.000 C 
ATOM      2  C   UNL     1       1.843   8.431  18.864  0.00  0.00    +0.000 A 
ATOM      3  C   UNL     1       2.341   7.157  19.202  0.00  0.00    +0.000 A 
ATOM      4  C   UNL     1       2.012   6.551  20.407  0.00  0.00    +0.000 A 
ATOM      5  C   UNL     1       1.179   7.225  21.294  0.00  0.00    +0.000 A 
ATOM      6  C   UNL     1       0.676   8.513  21.005  0.00  0.00    +0.000 A 
ATOM      7  C   UNL     1      -0.166   9.154  22.077  0.00  0.00    +0.000 C 
ATOM      8  C   UNL     1       0.996   9.131  19.766  0.00  0.00    +0.000 A 
ENDROOT
BRANCH   8   9
ATOM      9  C   UNL     1       0.506  10.480  19.401  0.00  0.00    +0.000 A 
ATOM     10  N   UNL     1      -0.673  10.769  18.871  0.00  0.00    +0.000 NA
ATOM     11  C   UNL     1      -0.716  12.128  18.704  0.00  0.00    +0.000 A 
ATOM     12  C   UNL     1       0.460  12.697  19.119  0.00  0.00    +0.000 A 
ATOM     13  N   UNL     1       1.195  11.651  19.614  0.00  0.00    +0.000 N 
ATOM     14  H   UNL     1       2.098  11.729  20.058  0.00  0.00    +0.000 HD
BRANCH  12  15
ATOM     15  C   UNL     1       0.958  14.077  19.104  0.00  0.00    +0.000 C 
ATOM     16  F   UNL     1       1.971  14.261  18.227  0.00  0.00    +0.000 F 
ATOM     17  F   UNL     1      -0.025  14.952  18.779  0.00  0.00    +0.000 F 
ATOM     18  F   UNL     1       1.413  14.443  20.329  0.00  0.00    +0.000 F 
ENDBRANCH  12  15
ENDBRANCH   8   9
BRANCH   4  19
ATOM     19  O   UNL     1       2.443   5.329  20.837  0.00  0.00    +0.000 OA
BRANCH  19  20
ATOM     20  C   UNL     1       2.260   4.232  19.931  0.00  0.00    +0.000 C 
BRANCH  20  21
ATOM     21  C   UNL     1       3.605   3.528  19.725  0.00  0.00    +0.000 C 
BRANCH  21  22
ATOM     22  O   UNL     1       3.381   2.126  19.512  0.00  0.00    +0.000 OA
ATOM     23  H   UNL     1       2.751   2.065  18.769  0.00  0.00    +0.000 HD
ENDBRANCH  21  22
BRANCH  21  24
ATOM     24  C   UNL     1       4.402   4.085  18.528  0.00  0.00    +0.000 C 
BRANCH  24  25
ATOM     25  N   UNL     1       5.855   4.021  18.732  0.00  0.00    +0.000 NA
ATOM     26  H   UNL     1       6.205   3.145  18.342  0.00  0.00    +0.000 HD
BRANCH  25  27
ATOM     27  C   UNL     1       6.622   5.143  18.155  0.00  0.00    +0.000 C 
ATOM     28  C   UNL     1       7.627   5.728  19.161  0.00  0.00    +0.000 C 
ATOM     29  C   UNL     1       7.418   4.568  16.966  0.00  0.00    +0.000 C 
ATOM     30  C   UNL     1       5.694   6.248  17.626  0.00  0.00    +0.000 C 
ENDBRANCH  25  27
ENDBRANCH  24  25
ENDBRANCH  21  24
ENDBRANCH  20  21
ENDBRANCH  19  20
ENDBRANCH   4  19
TORSDOF 9
ENDMDL
MODEL 9
REMARK VINA RESULT:      -6.7      3.864      5.084
REMARK  Name = 
REMARK  14 active torsions:
REMARK  status: ('A' for Active; 'I' for Inactive)
REMARK    1  A    between atoms: C_1  and  C_2
REMARK    2  A    between atoms: C_4  and  O_5
REMARK    3  A    between atoms: O_5  and  C_6
REMARK    4  A    between atoms: C_6  and  C_7
REMARK    5  A    between atoms: C_7  and  O_8
REMARK    6  A    between atoms: C_7  and  C_9
REMARK    7  A    between atoms: C_9  and  N_10
REMARK    8  A    between atoms: N_10  and  C_11
REMARK    9  A    between atoms: C_11  and  C_12
REMARK   10  A    between atoms: C_11  and  C_13
REMARK   11  A    between atoms: C_11  and  C_14
REMARK   12  A    between atoms: C_16  and  C_17
REMARK   13  A    between atoms: C_18  and  C_19
REMARK   14  A    between atoms: C_22  and  C_23
REMARK                            x       y       z     vdW  Elec       q    Type
REMARK                         _______ _______ _______ _____ _____    ______ ____
ROOT
ATOM      1  C   UNL     1       2.871   3.963  20.345  0.00  0.00    +0.000 C 
ATOM      2  C   UNL     1       2.479   5.392  20.052  0.00  0.00    +0.000 A 
ATOM      3  C   UNL     1       1.616   6.019  20.972  0.00  0.00    +0.000 A 
ATOM      4  C   UNL     1       1.194   7.328  20.787  0.00  0.00    +0.000 A 
ATOM      5  C   UNL     1       1.642   8.029  19.672  0.00  0.00    +0.000 A 
ATOM      6  C   UNL     1       2.525   7.446  18.736  0.00  0.00    +0.000 A 
ATOM      7  C   UNL     1       2.977   8.334  17.607  0.00  0.00    +0.000 C 
ATOM      8  C   UNL     1       2.947   6.100  18.911  0.00  0.00    +0.000 A 
ENDROOT
BRANCH   8   9
ATOM      9  C   UNL     1       3.873   5.429  17.971  0.00  0.00    +0.000 A 
ATOM     10  N   UNL     1       3.568   4.452  17.131  0.00  0.00    +0.000 NA
ATOM     11  C   UNL     1       4.711   4.137  16.448  0.00  0.00    +0.000 A 
ATOM     12  C   UNL     1       5.754   4.916  16.877  0.00  0.00    +0.000 A 
ATOM     13  N   UNL     1       5.195   5.769  17.793  0.00  0.00    +0.000 N 
ATOM     14  H   UNL     1       5.677   6.520  18.264  0.00  0.00    +0.000 HD
BRANCH  12  15
ATOM     15  C   UNL     1       7.180   4.950  16.533  0.00  0.00    +0.000 C 
ATOM     16  F   UNL     1       7.435   4.452  15.301  0.00  0.00    +0.000 F 
ATOM     17  F   UNL     1       7.665   6.215  16.569  0.00  0.00    +0.000 F 
ATOM     18  F   UNL     1       7.912   4.228  17.419  0.00  0.00    +0.000 F 
ENDBRANCH  12  15
ENDBRANCH   8   9
BRANCH   4  19
ATOM     19  O   UNL     1       0.370   8.033  21.618  0.00  0.00    +0.000 OA
BRANCH  19  20
ATOM     20  C   UNL     1       0.508   9.460  21.594  0.00  0.00    +0.000 C 
BRANCH  20  21
ATOM     21  C   UNL     1      -0.478  10.071  22.596  0.00  0.00    +0.000 C 
BRANCH  21  22
ATOM     22  O   UNL     1      -0.033   9.791  23.933  0.00  0.00    +0.000 OA
ATOM     23  H   UNL     1      -0.051  10.645  24.405  0.00  0.00    +0.000 HD
ENDBRANCH  21  22
BRANCH  21  24
ATOM     24  C   UNL     1      -0.631  11.598  22.439  0.00  0.00    +0.000 C 
BRANCH  24  25
ATOM     25  N   UNL     1       0.408  12.189  21.585  0.00  0.00    +0.000 NA
ATOM     26  H   UNL     1       1.077  11.463  21.329  0.00  0.00    +0.000 HD
BRANCH  25  27
ATOM     27  C   UNL     1      -0.085  12.842  20.356  0.00  0.00    +0.000 C 
ATOM     28  C   UNL     1      -1.614  12.750  20.230  0.00  0.00    +0.000 C 
ATOM     29  C   UNL     1       0.295  14.333  20.467  0.00  0.00    +0.000 C 
ATOM     30  C   UNL     1       0.589  12.264  19.101  0.00  0.00    +0.000 C 
ENDBRANCH  25  27
ENDBRANCH  24  25
ENDBRANCH  21  24
ENDBRANCH  20  21
ENDBRANCH  19  20
ENDBRANCH   4  19
TORSDOF 9
ENDMDL
