MODEL 1
REMARK VINA RESULT:      -8.9      0.000      0.000
REMARK  Name = 
REMARK  9 active torsions:
REMARK  status: ('A' for Active; 'I' for Inactive)
REMARK    1  A    between atoms: C_1  and  O_2
REMARK    2  A    between atoms: O_2  and  C_3
REMARK    3  A    between atoms: C_11  and  C_12
REMARK    4  A    between atoms: C_12  and  C_13
REMARK    5  A    between atoms: C_13  and  O_14
REMARK    6  A    between atoms: C_13  and  C_15
REMARK    7  A    between atoms: C_18  and  N_19
REMARK    8  A    between atoms: N_19  and  C_20
REMARK    9  A    between atoms: C_20  and  C_21
REMARK                            x       y       z     vdW  Elec       q    Type
REMARK                         _______ _______ _______ _____ _____    ______ ____
ROOT
ATOM      1  C   UNL     1       5.986   5.415  18.039  0.00  0.00    +0.000 C 
ATOM      2  O   UNL     1       7.391   5.359  18.307  0.00  0.00    +0.000 OA
ATOM      3  C   UNL     1       7.900   6.660  18.603  0.00  0.00    +0.000 C 
ATOM      4  C   UNL     1       7.646   7.655  17.457  0.00  0.00    +0.000 C 
ATOM      5  C   UNL     1       6.171   7.528  17.020  0.00  0.00    +0.000 C 
ATOM      6  O   UNL     1       5.766   6.170  16.848  0.00  0.00    +0.000 OA
ENDROOT
BRANCH   4   7
ATOM      7  N   UNL     1       7.935   9.059  17.808  0.00  0.00    +0.000 NA
ATOM      8  H   UNL     1       8.339   9.531  16.990  0.00  0.00    +0.000 HD
BRANCH   7   9
ATOM      9  C   UNL     1       8.926   9.213  18.885  0.00  0.00    +0.000 C 
BRANCH   9  10
ATOM     10  C   UNL     1       9.443  10.641  18.960  0.00  0.00    +0.000 A 
ATOM     11  C   UNL     1      10.082  11.261  17.876  0.00  0.00    +0.000 A 
ATOM     12  C   UNL     1      10.458  12.609  17.983  0.00  0.00    +0.000 A 
ATOM     13  C   UNL     1      10.138  13.287  19.151  0.00  0.00    +0.000 A 
ATOM     14  C   UNL     1       9.557  12.589  20.196  0.00  0.00    +0.000 A 
ATOM     15  N   UNL     1       9.222  11.282  20.137  0.00  0.00    +0.000 NA
ATOM     16  O   UNL     1      10.304  14.633  19.285  0.00  0.00    +0.000 OA
ATOM     17  C   UNL     1      11.525  15.077  18.706  0.00  0.00    +0.000 C 
ATOM     18  C   UNL     1      11.689  14.705  17.238  0.00  0.00    +0.000 C 
ATOM     19  C   UNL     1      11.149  13.323  16.859  0.00  0.00    +0.000 C 
ENDBRANCH   9  10
ENDBRANCH   7   9
ENDBRANCH   4   7
BRANCH   1  20
ATOM     20  C   UNL     1       5.445   3.965  17.867  0.00  0.00    +0.000 C 
BRANCH  20  21
ATOM     21  O   UNL     1       5.684   3.196  19.061  0.00  0.00    +0.000 OA
ATOM     22  H   UNL     1       6.272   3.745  19.615  0.00  0.00    +0.000 HD
ENDBRANCH  20  21
BRANCH  20  23
ATOM     23  C   UNL     1       3.930   3.983  17.590  0.00  0.00    +0.000 C 
BRANCH  23  32
ATOM     24  C   UNL     1       2.415   7.735  18.763  0.00  0.00    +0.000 A 
ATOM     25  C   UNL     1       1.704   7.946  19.924  0.00  0.00    +0.000 A 
ATOM     26  C   UNL     1       1.425   6.844  20.728  0.00  0.00    +0.000 A 
ATOM     27  C   UNL     1       1.854   5.575  20.366  0.00  0.00    +0.000 A 
ATOM     28  N   UNL     1       1.560   4.534  21.168  0.00  0.00    +0.000 NA
ATOM     29  C   UNL     1       2.008   3.321  20.782  0.00  0.00    +0.000 A 
ATOM     30  C   UNL     1       2.759   3.116  19.642  0.00  0.00    +0.000 A 
ATOM     31  F   UNL     1       3.197   1.885  19.349  0.00  0.00    +0.000 F 
ATOM     32  C   UNL     1       3.075   4.200  18.820  0.00  0.00    +0.000 A 
ATOM     33  C   UNL     1       2.599   5.465  19.164  0.00  0.00    +0.000 A 
ATOM     34  N   UNL     1       2.869   6.525  18.373  0.00  0.00    +0.000 NA
BRANCH  24  36
ATOM     35  C   UNL     1       1.656   9.839  18.096  0.00  0.00    +0.000 C 
ATOM     36  O   UNL     1       2.669   8.844  17.982  0.00  0.00    +0.000 OA
ENDBRANCH  24  36
ENDBRANCH  23  32
ENDBRANCH  20  23
ENDBRANCH   1  20
TORSDOF 8
ENDMDL
MODEL 2
REMARK VINA RESULT:      -8.8      5.341     10.085
REMARK  Name = 
REMARK  9 active torsions:
REMARK  status: ('A' for Active; 'I' for Inactive)
REMARK    1  A    between atoms: C_1  and  O_2
REMARK    2  A    between atoms: O_2  and  C_3
REMARK    3  A    between atoms: C_11  and  C_12
REMARK    4  A    between atoms: C_12  and  C_13
REMARK    5  A    between atoms: C_13  and  O_14
REMARK    6  A    between atoms: C_13  and  C_15
REMARK    7  A    between atoms: C_18  and  N_19
REMARK    8  A    between atoms: N_19  and  C_20
REMARK    9  A    between atoms: C_20  and  C_21
REMARK                            x       y       z     vdW  Elec       q    Type
REMARK                         _______ _______ _______ _____ _____    ______ ____
ROOT
ATOM      1  C   UNL     1       1.567   8.804  19.977  0.00  0.00    +0.000 C 
ATOM      2  O   UNL     1       0.555   9.668  19.450  0.00  0.00    +0.000 OA
ATOM      3  C   UNL     1       0.249  10.710  20.379  0.00  0.00    +0.000 C 
ATOM      4  C   UNL     1      -0.219  10.155  21.736  0.00  0.00    +0.000 C 
ATOM      5  C   UNL     1       0.763   9.048  22.175  0.00  0.00    +0.000 C 
ATOM      6  O   UNL     1       1.054   8.127  21.123  0.00  0.00    +0.000 OA
ENDROOT
BRANCH   4   7
ATOM      7  N   UNL     1      -0.317  11.175  22.798  0.00  0.00    +0.000 NA
ATOM      8  H   UNL     1      -1.036  10.887  23.472  0.00  0.00    +0.000 HD
BRANCH   7   9
ATOM      9  C   UNL     1      -0.733  12.501  22.315  0.00  0.00    +0.000 C 
BRANCH   9  10
ATOM     10  C   UNL     1      -2.248  12.609  22.234  0.00  0.00    +0.000 A 
ATOM     11  C   UNL     1      -3.064  12.518  23.371  0.00  0.00    +0.000 A 
ATOM     12  C   UNL     1      -4.448  12.712  23.238  0.00  0.00    +0.000 A 
ATOM     13  C   UNL     1      -4.946  13.033  21.982  0.00  0.00    +0.000 A 
ATOM     14  C   UNL     1      -4.082  13.049  20.901  0.00  0.00    +0.000 A 
ATOM     15  N   UNL     1      -2.754  12.825  20.992  0.00  0.00    +0.000 NA
ATOM     16  O   UNL     1      -6.241  13.407  21.782  0.00  0.00    +0.000 OA
ATOM     17  C   UNL     1      -7.145  12.623  22.551  0.00  0.00    +0.000 C 
ATOM     18  C   UNL     1      -6.857  12.627  24.046  0.00  0.00    +0.000 C 
ATOM     19  C   UNL     1      -5.371  12.621  24.417  0.00  0.00    +0.000 C 
ENDBRANCH   9  10
ENDBRANCH   7   9
ENDBRANCH   4   7
BRANCH   1  20
ATOM     20  C   UNL     1       1.975   7.775  18.880  0.00  0.00    +0.000 C 
BRANCH  20  21
ATOM     21  O   UNL     1       2.695   8.432  17.821  0.00  0.00    +0.000 OA
ATOM     22  H   UNL     1       3.640   8.268  18.003  0.00  0.00    +0.000 HD
ENDBRANCH  20  21
BRANCH  20  23
ATOM     23  C   UNL     1       2.874   6.677  19.478  0.00  0.00    +0.000 C 
BRANCH  23  32
ATOM     24  C   UNL     1       5.967   6.159  16.664  0.00  0.00    +0.000 A 
ATOM     25  C   UNL     1       6.057   5.078  15.813  0.00  0.00    +0.000 A 
ATOM     26  C   UNL     1       5.099   4.075  15.930  0.00  0.00    +0.000 A 
ATOM     27  C   UNL     1       4.086   4.167  16.874  0.00  0.00    +0.000 A 
ATOM     28  N   UNL     1       3.181   3.173  16.958  0.00  0.00    +0.000 NA
ATOM     29  C   UNL     1       2.208   3.311  17.882  0.00  0.00    +0.000 A 
ATOM     30  C   UNL     1       2.091   4.415  18.704  0.00  0.00    +0.000 A 
ATOM     31  F   UNL     1       1.073   4.491  19.570  0.00  0.00    +0.000 F 
ATOM     32  C   UNL     1       3.023   5.450  18.604  0.00  0.00    +0.000 A 
ATOM     33  C   UNL     1       4.066   5.328  17.687  0.00  0.00    +0.000 A 
ATOM     34  N   UNL     1       4.994   6.305  17.588  0.00  0.00    +0.000 NA
BRANCH  24  36
ATOM     35  C   UNL     1       7.651   7.362  17.743  0.00  0.00    +0.000 C 
ATOM     36  O   UNL     1       6.935   7.133  16.533  0.00  0.00    +0.000 OA
ENDBRANCH  24  36
ENDBRANCH  23  32
ENDBRANCH  20  23
ENDBRANCH   1  20
TORSDOF 8
ENDMDL
MODEL 3
REMARK VINA RESULT:      -8.7      1.162      1.728
REMARK  Name = 
REMARK  9 active torsions:
REMARK  status: ('A' for Active; 'I' for Inactive)
REMARK    1  A    between atoms: C_1  and  O_2
REMARK    2  A    between atoms: O_2  and  C_3
REMARK    3  A    between atoms: C_11  and  C_12
REMARK    4  A    between atoms: C_12  and  C_13
REMARK    5  A    between atoms: C_13  and  O_14
REMARK    6  A    between atoms: C_13  and  C_15
REMARK    7  A    between atoms: C_18  and  N_19
REMARK    8  A    between atoms: N_19  and  C_20
REMARK    9  A    between atoms: C_20  and  C_21
REMARK                            x       y       z     vdW  Elec       q    Type
REMARK                         _______ _______ _______ _____ _____    ______ ____
ROOT
ATOM      1  C   UNL     1       6.238   5.516  17.962  0.00  0.00    +0.000 C 
ATOM      2  O   UNL     1       7.649   5.534  18.196  0.00  0.00    +0.000 OA
ATOM      3  C   UNL     1       8.084   6.849  18.547  0.00  0.00    +0.000 C 
ATOM      4  C   UNL     1       7.741   7.881  17.458  0.00  0.00    +0.000 C 
ATOM      5  C   UNL     1       6.266   7.684  17.047  0.00  0.00    +0.000 C 
ATOM      6  O   UNL     1       5.943   6.312  16.815  0.00  0.00    +0.000 OA
ENDROOT
BRANCH   4   7
ATOM      7  N   UNL     1       7.952   9.282  17.873  0.00  0.00    +0.000 NA
ATOM      8  H   UNL     1       8.341   9.808  17.083  0.00  0.00    +0.000 HD
BRANCH   7   9
ATOM      9  C   UNL     1       8.919   9.439  18.971  0.00  0.00    +0.000 C 
BRANCH   9  10
ATOM     10  C   UNL     1       9.493  10.847  19.003  0.00  0.00    +0.000 A 
ATOM     11  C   UNL     1       9.476  11.633  20.165  0.00  0.00    +0.000 A 
ATOM     12  C   UNL     1      10.100  12.890  20.150  0.00  0.00    +0.000 A 
ATOM     13  C   UNL     1      10.751  13.284  18.989  0.00  0.00    +0.000 A 
ATOM     14  C   UNL     1      10.675  12.475  17.868  0.00  0.00    +0.000 A 
ATOM     15  N   UNL     1      10.046  11.280  17.840  0.00  0.00    +0.000 NA
ATOM     16  O   UNL     1      11.528  14.403  18.928  0.00  0.00    +0.000 OA
ATOM     17  C   UNL     1      10.944  15.492  19.631  0.00  0.00    +0.000 C 
ATOM     18  C   UNL     1      10.625  15.193  21.090  0.00  0.00    +0.000 C 
ATOM     19  C   UNL     1      10.109  13.777  21.360  0.00  0.00    +0.000 C 
ENDBRANCH   9  10
ENDBRANCH   7   9
ENDBRANCH   4   7
BRANCH   1  20
ATOM     20  C   UNL     1       5.782   4.044  17.728  0.00  0.00    +0.000 C 
BRANCH  20  21
ATOM     21  O   UNL     1       5.789   3.315  18.969  0.00  0.00    +0.000 OA
ATOM     22  H   UNL     1       6.462   2.615  18.861  0.00  0.00    +0.000 HD
ENDBRANCH  20  21
BRANCH  20  23
ATOM     23  C   UNL     1       4.358   4.005  17.144  0.00  0.00    +0.000 C 
BRANCH  23  32
ATOM     24  C   UNL     1       2.170   6.673  19.563  0.00  0.00    +0.000 A 
ATOM     25  C   UNL     1       1.258   6.272  20.516  0.00  0.00    +0.000 A 
ATOM     26  C   UNL     1       1.008   4.909  20.646  0.00  0.00    +0.000 A 
ATOM     27  C   UNL     1       1.660   3.987  19.841  0.00  0.00    +0.000 A 
ATOM     28  N   UNL     1       1.386   2.677  19.995  0.00  0.00    +0.000 NA
ATOM     29  C   UNL     1       2.054   1.817  19.199  0.00  0.00    +0.000 A 
ATOM     30  C   UNL     1       3.001   2.214  18.275  0.00  0.00    +0.000 A 
ATOM     31  F   UNL     1       3.646   1.293  17.549  0.00  0.00    +0.000 F 
ATOM     32  C   UNL     1       3.293   3.572  18.128  0.00  0.00    +0.000 A 
ATOM     33  C   UNL     1       2.598   4.496  18.907  0.00  0.00    +0.000 A 
ATOM     34  N   UNL     1       2.844   5.816  18.765  0.00  0.00    +0.000 NA
BRANCH  24  36
ATOM     35  C   UNL     1       2.341   8.482  18.100  0.00  0.00    +0.000 C 
ATOM     36  O   UNL     1       2.392   8.029  19.449  0.00  0.00    +0.000 OA
ENDBRANCH  24  36
ENDBRANCH  23  32
ENDBRANCH  20  23
ENDBRANCH   1  20
TORSDOF 8
ENDMDL
MODEL 4
REMARK VINA RESULT:      -8.7      5.610     10.295
REMARK  Name = 
REMARK  9 active torsions:
REMARK  status: ('A' for Active; 'I' for Inactive)
REMARK    1  A    between atoms: C_1  and  O_2
REMARK    2  A    between atoms: O_2  and  C_3
REMARK    3  A    between atoms: C_11  and  C_12
REMARK    4  A    between atoms: C_12  and  C_13
REMARK    5  A    between atoms: C_13  and  O_14
REMARK    6  A    between atoms: C_13  and  C_15
REMARK    7  A    between atoms: C_18  and  N_19
REMARK    8  A    between atoms: N_19  and  C_20
REMARK    9  A    between atoms: C_20  and  C_21
REMARK                            x       y       z     vdW  Elec       q    Type
REMARK                         _______ _______ _______ _____ _____    ______ ____
ROOT
ATOM      1  C   UNL     1       1.302   8.899  20.392  0.00  0.00    +0.000 C 
ATOM      2  O   UNL     1       0.905  10.124  19.769  0.00  0.00    +0.000 OA
ATOM      3  C   UNL     1       0.647  11.128  20.752  0.00  0.00    +0.000 C 
ATOM      4  C   UNL     1      -0.441  10.695  21.750  0.00  0.00    +0.000 C 
ATOM      5  C   UNL     1      -0.117   9.265  22.232  0.00  0.00    +0.000 C 
ATOM      6  O   UNL     1       0.212   8.386  21.156  0.00  0.00    +0.000 OA
ENDROOT
BRANCH   4   7
ATOM      7  N   UNL     1      -0.573  11.589  22.917  0.00  0.00    +0.000 NA
ATOM      8  H   UNL     1      -1.193  11.148  23.606  0.00  0.00    +0.000 HD
BRANCH   7   9
ATOM      9  C   UNL     1      -1.187  12.890  22.605  0.00  0.00    +0.000 C 
BRANCH   9  10
ATOM     10  C   UNL     1      -2.687  12.866  22.852  0.00  0.00    +0.000 A 
ATOM     11  C   UNL     1      -3.616  12.873  21.801  0.00  0.00    +0.000 A 
ATOM     12  C   UNL     1      -4.984  12.764  22.097  0.00  0.00    +0.000 A 
ATOM     13  C   UNL     1      -5.357  12.607  23.425  0.00  0.00    +0.000 A 
ATOM     14  C   UNL     1      -4.383  12.665  24.408  0.00  0.00    +0.000 A 
ATOM     15  N   UNL     1      -3.065  12.812  24.156  0.00  0.00    +0.000 NA
ATOM     16  O   UNL     1      -6.636  12.321  23.798  0.00  0.00    +0.000 OA
ATOM     17  C   UNL     1      -7.587  13.061  23.041  0.00  0.00    +0.000 C 
ATOM     18  C   UNL     1      -7.461  12.880  21.535  0.00  0.00    +0.000 C 
ATOM     19  C   UNL     1      -6.025  12.772  21.016  0.00  0.00    +0.000 C 
ENDBRANCH   9  10
ENDBRANCH   7   9
ENDBRANCH   4   7
BRANCH   1  20
ATOM     20  C   UNL     1       1.714   7.880  19.288  0.00  0.00    +0.000 C 
BRANCH  20  21
ATOM     21  O   UNL     1       2.422   8.549  18.228  0.00  0.00    +0.000 OA
ATOM     22  H   UNL     1       3.337   8.659  18.550  0.00  0.00    +0.000 HD
ENDBRANCH  20  21
BRANCH  20  23
ATOM     23  C   UNL     1       2.627   6.787  19.874  0.00  0.00    +0.000 C 
BRANCH  23  32
ATOM     24  C   UNL     1       5.478   6.197  16.828  0.00  0.00    +0.000 A 
ATOM     25  C   UNL     1       5.507   5.089  16.010  0.00  0.00    +0.000 A 
ATOM     26  C   UNL     1       4.574   4.082  16.242  0.00  0.00    +0.000 A 
ATOM     27  C   UNL     1       3.644   4.198  17.264  0.00  0.00    +0.000 A 
ATOM     28  N   UNL     1       2.760   3.200  17.458  0.00  0.00    +0.000 NA
ATOM     29  C   UNL     1       1.867   3.362  18.456  0.00  0.00    +0.000 A 
ATOM     30  C   UNL     1       1.808   4.492  19.247  0.00  0.00    +0.000 A 
ATOM     31  F   UNL     1       0.865   4.591  20.193  0.00  0.00    +0.000 F 
ATOM     32  C   UNL     1       2.716   5.532  19.033  0.00  0.00    +0.000 A 
ATOM     33  C   UNL     1       3.679   5.387  18.036  0.00  0.00    +0.000 A 
ATOM     34  N   UNL     1       4.584   6.367  17.826  0.00  0.00    +0.000 NA
BRANCH  24  36
ATOM     35  C   UNL     1       7.447   7.208  17.569  0.00  0.00    +0.000 C 
ATOM     36  O   UNL     1       6.420   7.175  16.582  0.00  0.00    +0.000 OA
ENDBRANCH  24  36
ENDBRANCH  23  32
ENDBRANCH  20  23
ENDBRANCH   1  20
TORSDOF 8
ENDMDL
MODEL 5
REMARK VINA RESULT:      -8.6      4.552      9.759
REMARK  Name = 
REMARK  9 active torsions:
REMARK  status: ('A' for Active; 'I' for Inactive)
REMARK    1  A    between atoms: C_1  and  O_2
REMARK    2  A    between atoms: O_2  and  C_3
REMARK    3  A    between atoms: C_11  and  C_12
REMARK    4  A    between atoms: C_12  and  C_13
REMARK    5  A    between atoms: C_13  and  O_14
REMARK    6  A    between atoms: C_13  and  C_15
REMARK    7  A    between atoms: C_18  and  N_19
REMARK    8  A    between atoms: N_19  and  C_20
REMARK    9  A    between atoms: C_20  and  C_21
REMARK                            x       y       z     vdW  Elec       q    Type
REMARK                         _______ _______ _______ _____ _____    ______ ____
ROOT
ATOM      1  C   UNL     1       1.950   8.292  20.045  0.00  0.00    +0.000 C 
ATOM      2  O   UNL     1       1.465   8.870  18.829  0.00  0.00    +0.000 OA
ATOM      3  C   UNL     1       1.037  10.215  19.048  0.00  0.00    +0.000 C 
ATOM      4  C   UNL     1      -0.063  10.305  20.122  0.00  0.00    +0.000 C 
ATOM      5  C   UNL     1       0.380   9.471  21.343  0.00  0.00    +0.000 C 
ATOM      6  O   UNL     1       0.873   8.182  20.974  0.00  0.00    +0.000 OA
ENDROOT
BRANCH   4   7
ATOM      7  N   UNL     1      -0.367  11.683  20.553  0.00  0.00    +0.000 NA
ATOM      8  H   UNL     1      -1.130  11.657  21.239  0.00  0.00    +0.000 HD
BRANCH   7   9
ATOM      9  C   UNL     1      -0.839  12.558  19.467  0.00  0.00    +0.000 C 
BRANCH   9  10
ATOM     10  C   UNL     1      -2.256  12.203  19.049  0.00  0.00    +0.000 A 
ATOM     11  C   UNL     1      -3.360  12.427  19.886  0.00  0.00    +0.000 A 
ATOM     12  C   UNL     1      -4.650  12.156  19.404  0.00  0.00    +0.000 A 
ATOM     13  C   UNL     1      -4.782  11.716  18.094  0.00  0.00    +0.000 A 
ATOM     14  C   UNL     1      -3.641  11.467  17.352  0.00  0.00    +0.000 A 
ATOM     15  N   UNL     1      -2.385  11.678  17.802  0.00  0.00    +0.000 NA
ATOM     16  O   UNL     1      -5.993  11.591  17.482  0.00  0.00    +0.000 OA
ATOM     17  C   UNL     1      -6.972  11.037  18.352  0.00  0.00    +0.000 C 
ATOM     18  C   UNL     1      -7.156  11.805  19.653  0.00  0.00    +0.000 C 
ATOM     19  C   UNL     1      -5.867  12.372  20.255  0.00  0.00    +0.000 C 
ENDBRANCH   9  10
ENDBRANCH   7   9
ENDBRANCH   4   7
BRANCH   1  20
ATOM     20  C   UNL     1       2.541   6.884  19.735  0.00  0.00    +0.000 C 
BRANCH  20  21
ATOM     21  O   UNL     1       1.953   5.893  20.599  0.00  0.00    +0.000 OA
ATOM     22  H   UNL     1       1.493   6.394  21.300  0.00  0.00    +0.000 HD
ENDBRANCH  20  21
BRANCH  20  23
ATOM     23  C   UNL     1       2.258   6.489  18.274  0.00  0.00    +0.000 C 
BRANCH  23  32
ATOM     24  C   UNL     1       6.197   6.402  16.779  0.00  0.00    +0.000 A 
ATOM     25  C   UNL     1       6.808   5.265  16.294  0.00  0.00    +0.000 A 
ATOM     26  C   UNL     1       6.100   4.068  16.354  0.00  0.00    +0.000 A 
ATOM     27  C   UNL     1       4.818   4.027  16.883  0.00  0.00    +0.000 A 
ATOM     28  N   UNL     1       4.168   2.847  16.927  0.00  0.00    +0.000 NA
ATOM     29  C   UNL     1       2.921   2.858  17.440  0.00  0.00    +0.000 A 
ATOM     30  C   UNL     1       2.290   4.004  17.883  0.00  0.00    +0.000 A 
ATOM     31  F   UNL     1       1.035   3.934  18.344  0.00  0.00    +0.000 F 
ATOM     32  C   UNL     1       2.962   5.227  17.823  0.00  0.00    +0.000 A 
ATOM     33  C   UNL     1       4.267   5.253  17.334  0.00  0.00    +0.000 A 
ATOM     34  N   UNL     1       4.947   6.419  17.289  0.00  0.00    +0.000 NA
BRANCH  24  36
ATOM     35  C   UNL     1       7.785   7.743  17.838  0.00  0.00    +0.000 C 
ATOM     36  O   UNL     1       6.925   7.572  16.716  0.00  0.00    +0.000 OA
ENDBRANCH  24  36
ENDBRANCH  23  32
ENDBRANCH  20  23
ENDBRANCH   1  20
TORSDOF 8
ENDMDL
MODEL 6
REMARK VINA RESULT:      -8.5      0.812      1.425
REMARK  Name = 
REMARK  9 active torsions:
REMARK  status: ('A' for Active; 'I' for Inactive)
REMARK    1  A    between atoms: C_1  and  O_2
REMARK    2  A    between atoms: O_2  and  C_3
REMARK    3  A    between atoms: C_11  and  C_12
REMARK    4  A    between atoms: C_12  and  C_13
REMARK    5  A    between atoms: C_13  and  O_14
REMARK    6  A    between atoms: C_13  and  C_15
REMARK    7  A    between atoms: C_18  and  N_19
REMARK    8  A    between atoms: N_19  and  C_20
REMARK    9  A    between atoms: C_20  and  C_21
REMARK                            x       y       z     vdW  Elec       q    Type
REMARK                         _______ _______ _______ _____ _____    ______ ____
ROOT
ATOM      1  C   UNL     1       5.907   5.444  17.993  0.00  0.00    +0.000 C 
ATOM      2  O   UNL     1       7.298   5.361  18.319  0.00  0.00    +0.000 OA
ATOM      3  C   UNL     1       7.824   6.655  18.616  0.00  0.00    +0.000 C 
ATOM      4  C   UNL     1       7.640   7.637  17.445  0.00  0.00    +0.000 C 
ATOM      5  C   UNL     1       6.181   7.535  16.950  0.00  0.00    +0.000 C 
ATOM      6  O   UNL     1       5.753   6.183  16.783  0.00  0.00    +0.000 OA
ENDROOT
BRANCH   4   7
ATOM      7  N   UNL     1       7.947   9.040  17.785  0.00  0.00    +0.000 NA
ATOM      8  H   UNL     1       8.396   9.488  16.979  0.00  0.00    +0.000 HD
BRANCH   7   9
ATOM      9  C   UNL     1       8.893   9.189  18.902  0.00  0.00    +0.000 C 
BRANCH   9  10
ATOM     10  C   UNL     1       9.415  10.614  18.997  0.00  0.00    +0.000 A 
ATOM     11  C   UNL     1       9.383  11.342  20.195  0.00  0.00    +0.000 A 
ATOM     12  C   UNL     1       9.960  12.621  20.235  0.00  0.00    +0.000 A 
ATOM     13  C   UNL     1      10.582  13.095  19.087  0.00  0.00    +0.000 A 
ATOM     14  C   UNL     1      10.522  12.338  17.930  0.00  0.00    +0.000 A 
ATOM     15  N   UNL     1       9.938  11.123  17.851  0.00  0.00    +0.000 NA
ATOM     16  O   UNL     1      11.316  14.243  19.073  0.00  0.00    +0.000 OA
ATOM     17  C   UNL     1      10.701  15.275  19.834  0.00  0.00    +0.000 C 
ATOM     18  C   UNL     1      10.410  14.895  21.280  0.00  0.00    +0.000 C 
ATOM     19  C   UNL     1       9.951  13.449  21.486  0.00  0.00    +0.000 C 
ENDBRANCH   9  10
ENDBRANCH   7   9
ENDBRANCH   4   7
BRANCH   1  20
ATOM     20  C   UNL     1       5.341   4.003  17.821  0.00  0.00    +0.000 C 
BRANCH  20  21
ATOM     21  O   UNL     1       5.625   3.211  18.989  0.00  0.00    +0.000 OA
ATOM     22  H   UNL     1       4.785   2.772  19.222  0.00  0.00    +0.000 HD
ENDBRANCH  20  21
BRANCH  20  23
ATOM     23  C   UNL     1       3.815   4.044  17.616  0.00  0.00    +0.000 C 
BRANCH  23  32
ATOM     24  C   UNL     1       2.365   7.900  18.500  0.00  0.00    +0.000 A 
ATOM     25  C   UNL     1       1.718   8.226  19.673  0.00  0.00    +0.000 A 
ATOM     26  C   UNL     1       1.484   7.208  20.593  0.00  0.00    +0.000 A 
ATOM     27  C   UNL     1       1.893   5.908  20.333  0.00  0.00    +0.000 A 
ATOM     28  N   UNL     1       1.643   4.950  21.247  0.00  0.00    +0.000 NA
ATOM     29  C   UNL     1       2.070   3.704  20.957  0.00  0.00    +0.000 A 
ATOM     30  C   UNL     1       2.758   3.386  19.803  0.00  0.00    +0.000 A 
ATOM     31  F   UNL     1       3.180   2.130  19.607  0.00  0.00    +0.000 F 
ATOM     32  C   UNL     1       3.028   4.384  18.864  0.00  0.00    +0.000 A 
ATOM     33  C   UNL     1       2.571   5.678  19.109  0.00  0.00    +0.000 A 
ATOM     34  N   UNL     1       2.797   6.655  18.205  0.00  0.00    +0.000 NA
BRANCH  24  36
ATOM     35  C   UNL     1       1.910  10.128  17.978  0.00  0.00    +0.000 C 
ATOM     36  O   UNL     1       2.575   8.926  17.603  0.00  0.00    +0.000 OA
ENDBRANCH  24  36
ENDBRANCH  23  32
ENDBRANCH  20  23
ENDBRANCH   1  20
TORSDOF 8
ENDMDL
MODEL 7
REMARK VINA RESULT:      -8.5      5.123      9.882
REMARK  Name = 
REMARK  9 active torsions:
REMARK  status: ('A' for Active; 'I' for Inactive)
REMARK    1  A    between atoms: C_1  and  O_2
REMARK    2  A    between atoms: O_2  and  C_3
REMARK    3  A    between atoms: C_11  and  C_12
REMARK    4  A    between atoms: C_12  and  C_13
REMARK    5  A    between atoms: C_13  and  O_14
REMARK    6  A    between atoms: C_13  and  C_15
REMARK    7  A    between atoms: C_18  and  N_19
REMARK    8  A    between atoms: N_19  and  C_20
REMARK    9  A    between atoms: C_20  and  C_21
REMARK                            x       y       z     vdW  Elec       q    Type
REMARK                         _______ _______ _______ _____ _____    ______ ____
ROOT
ATOM      1  C   UNL     1       1.272   8.850  19.047  0.00  0.00    +0.000 C 
ATOM      2  O   UNL     1       1.559   8.504  20.405  0.00  0.00    +0.000 OA
ATOM      3  C   UNL     1       0.747   9.265  21.301  0.00  0.00    +0.000 C 
ATOM      4  C   UNL     1       0.944  10.780  21.116  0.00  0.00    +0.000 C 
ATOM      5  C   UNL     1       0.867  11.099  19.607  0.00  0.00    +0.000 C 
ATOM      6  O   UNL     1       1.653  10.206  18.818  0.00  0.00    +0.000 OA
ENDROOT
BRANCH   4   7
ATOM      7  N   UNL     1      -0.039  11.605  21.844  0.00  0.00    +0.000 NA
ATOM      8  H   UNL     1      -0.783  10.997  22.203  0.00  0.00    +0.000 HD
BRANCH   7   9
ATOM      9  C   UNL     1      -0.714  12.608  21.005  0.00  0.00    +0.000 C 
BRANCH   9  10
ATOM     10  C   UNL     1      -2.209  12.637  21.275  0.00  0.00    +0.000 A 
ATOM     11  C   UNL     1      -2.732  12.690  22.576  0.00  0.00    +0.000 A 
ATOM     12  C   UNL     1      -4.120  12.801  22.752  0.00  0.00    +0.000 A 
ATOM     13  C   UNL     1      -4.918  12.901  21.621  0.00  0.00    +0.000 A 
ATOM     14  C   UNL     1      -4.331  12.785  20.372  0.00  0.00    +0.000 A 
ATOM     15  N   UNL     1      -3.004  12.635  20.172  0.00  0.00    +0.000 NA
ATOM     16  O   UNL     1      -6.249  13.184  21.686  0.00  0.00    +0.000 OA
ATOM     17  C   UNL     1      -6.887  12.491  22.753  0.00  0.00    +0.000 C 
ATOM     18  C   UNL     1      -6.263  12.741  24.119  0.00  0.00    +0.000 C 
ATOM     19  C   UNL     1      -4.736  12.856  24.119  0.00  0.00    +0.000 C 
ENDBRANCH   9  10
ENDBRANCH   7   9
ENDBRANCH   4   7
BRANCH   1  20
ATOM     20  C   UNL     1       2.067   7.899  18.103  0.00  0.00    +0.000 C 
BRANCH  20  21
ATOM     21  O   UNL     1       2.958   8.657  17.264  0.00  0.00    +0.000 OA
ATOM     22  H   UNL     1       2.432   8.912  16.482  0.00  0.00    +0.000 HD
ENDBRANCH  20  21
BRANCH  20  23
ATOM     23  C   UNL     1       2.899   6.896  18.923  0.00  0.00    +0.000 C 
BRANCH  23  32
ATOM     24  C   UNL     1       6.398   6.202  16.679  0.00  0.00    +0.000 A 
ATOM     25  C   UNL     1       6.631   5.050  15.959  0.00  0.00    +0.000 A 
ATOM     26  C   UNL     1       5.678   4.037  16.023  0.00  0.00    +0.000 A 
ATOM     27  C   UNL     1       4.530   4.189  16.787  0.00  0.00    +0.000 A 
ATOM     28  N   UNL     1       3.634   3.183  16.826  0.00  0.00    +0.000 NA
ATOM     29  C   UNL     1       2.528   3.381  17.573  0.00  0.00    +0.000 A 
ATOM     30  C   UNL     1       2.272   4.552  18.258  0.00  0.00    +0.000 A 
ATOM     31  F   UNL     1       1.131   4.682  18.946  0.00  0.00    +0.000 F 
ATOM     32  C   UNL     1       3.196   5.598  18.203  0.00  0.00    +0.000 A 
ATOM     33  C   UNL     1       4.370   5.420  17.473  0.00  0.00    +0.000 A 
ATOM     34  N   UNL     1       5.291   6.407  17.425  0.00  0.00    +0.000 NA
BRANCH  24  36
ATOM     35  C   UNL     1       7.718   7.702  17.884  0.00  0.00    +0.000 C 
ATOM     36  O   UNL     1       7.362   7.185  16.606  0.00  0.00    +0.000 OA
ENDBRANCH  24  36
ENDBRANCH  23  32
ENDBRANCH  20  23
ENDBRANCH   1  20
TORSDOF 8
ENDMDL
MODEL 8
REMARK VINA RESULT:      -8.4      4.928      9.900
REMARK  Name = 
REMARK  9 active torsions:
REMARK  status: ('A' for Active; 'I' for Inactive)
REMARK    1  A    between atoms: C_1  and  O_2
REMARK    2  A    between atoms: O_2  and  C_3
REMARK    3  A    between atoms: C_11  and  C_12
REMARK    4  A    between atoms: C_12  and  C_13
REMARK    5  A    between atoms: C_13  and  O_14
REMARK    6  A    between atoms: C_13  and  C_15
REMARK    7  A    between atoms: C_18  and  N_19
REMARK    8  A    between atoms: N_19  and  C_20
REMARK    9  A    between atoms: C_20  and  C_21
REMARK                            x       y       z     vdW  Elec       q    Type
REMARK                         _______ _______ _______ _____ _____    ______ ____
ROOT
ATOM      1  C   UNL     1       1.842   8.219  20.319  0.00  0.00    +0.000 C 
ATOM      2  O   UNL     1       1.368   8.903  19.154  0.00  0.00    +0.000 OA
ATOM      3  C   UNL     1       0.793  10.161  19.509  0.00  0.00    +0.000 C 
ATOM      4  C   UNL     1      -0.367  10.006  20.508  0.00  0.00    +0.000 C 
ATOM      5  C   UNL     1       0.091   9.065  21.643  0.00  0.00    +0.000 C 
ATOM      6  O   UNL     1       0.733   7.888  21.152  0.00  0.00    +0.000 OA
ENDROOT
BRANCH   4   7
ATOM      7  N   UNL     1      -0.835  11.281  21.086  0.00  0.00    +0.000 NA
ATOM      8  H   UNL     1      -1.708  11.114  21.600  0.00  0.00    +0.000 HD
BRANCH   7   9
ATOM      9  C   UNL     1      -1.155  12.309  20.082  0.00  0.00    +0.000 C 
BRANCH   9  10
ATOM     10  C   UNL     1      -2.657  12.502  19.949  0.00  0.00    +0.000 A 
ATOM     11  C   UNL     1      -3.396  11.912  18.913  0.00  0.00    +0.000 A 
ATOM     12  C   UNL     1      -4.792  12.061  18.897  0.00  0.00    +0.000 A 
ATOM     13  C   UNL     1      -5.389  12.752  19.942  0.00  0.00    +0.000 A 
ATOM     14  C   UNL     1      -4.585  13.351  20.897  0.00  0.00    +0.000 A 
ATOM     15  N   UNL     1      -3.238  13.261  20.915  0.00  0.00    +0.000 NA
ATOM     16  O   UNL     1      -6.740  12.803  20.109  0.00  0.00    +0.000 OA
ATOM     17  C   UNL     1      -7.421  12.975  18.872  0.00  0.00    +0.000 C 
ATOM     18  C   UNL     1      -7.094  11.917  17.828  0.00  0.00    +0.000 C 
ATOM     19  C   UNL     1      -5.633  11.458  17.811  0.00  0.00    +0.000 C 
ENDBRANCH   9  10
ENDBRANCH   7   9
ENDBRANCH   4   7
BRANCH   1  20
ATOM     20  C   UNL     1       2.591   6.926  19.877  0.00  0.00    +0.000 C 
BRANCH  20  21
ATOM     21  O   UNL     1       2.175   5.807  20.682  0.00  0.00    +0.000 OA
ATOM     22  H   UNL     1       2.466   6.014  21.591  0.00  0.00    +0.000 HD
ENDBRANCH  20  21
BRANCH  20  23
ATOM     23  C   UNL     1       2.291   6.606  18.401  0.00  0.00    +0.000 C 
BRANCH  23  32
ATOM     24  C   UNL     1       6.234   6.548  16.918  0.00  0.00    +0.000 A 
ATOM     25  C   UNL     1       6.832   5.433  16.371  0.00  0.00    +0.000 A 
ATOM     26  C   UNL     1       6.107   4.244  16.360  0.00  0.00    +0.000 A 
ATOM     27  C   UNL     1       4.822   4.191  16.882  0.00  0.00    +0.000 A 
ATOM     28  N   UNL     1       4.156   3.020  16.856  0.00  0.00    +0.000 NA
ATOM     29  C   UNL     1       2.906   3.019  17.364  0.00  0.00    +0.000 A 
ATOM     30  C   UNL     1       2.290   4.147  17.870  0.00  0.00    +0.000 A 
ATOM     31  F   UNL     1       1.032   4.069  18.321  0.00  0.00    +0.000 F 
ATOM     32  C   UNL     1       2.978   5.362  17.881  0.00  0.00    +0.000 A 
ATOM     33  C   UNL     1       4.287   5.397  17.400  0.00  0.00    +0.000 A 
ATOM     34  N   UNL     1       4.982   6.554  17.424  0.00  0.00    +0.000 NA
BRANCH  24  36
ATOM     35  C   UNL     1       7.930   7.745  17.983  0.00  0.00    +0.000 C 
ATOM     36  O   UNL     1       6.979   7.709  16.924  0.00  0.00    +0.000 OA
ENDBRANCH  24  36
ENDBRANCH  23  32
ENDBRANCH  20  23
ENDBRANCH   1  20
TORSDOF 8
ENDMDL
MODEL 9
REMARK VINA RESULT:      -8.4      5.269      9.974
REMARK  Name = 
REMARK  9 active torsions:
REMARK  status: ('A' for Active; 'I' for Inactive)
REMARK    1  A    between atoms: C_1  and  O_2
REMARK    2  A    between atoms: O_2  and  C_3
REMARK    3  A    between atoms: C_11  and  C_12
REMARK    4  A    between atoms: C_12  and  C_13
REMARK    5  A    between atoms: C_13  and  O_14
REMARK    6  A    between atoms: C_13  and  C_15
REMARK    7  A    between atoms: C_18  and  N_19
REMARK    8  A    between atoms: N_19  and  C_20
REMARK    9  A    between atoms: C_20  and  C_21
REMARK                            x       y       z     vdW  Elec       q    Type
REMARK                         _______ _______ _______ _____ _____    ______ ____
ROOT
ATOM      1  C   UNL     1       1.898   8.641  19.825  0.00  0.00    +0.000 C 
ATOM      2  O   UNL     1       1.099   8.970  18.684  0.00  0.00    +0.000 OA
ATOM      3  C   UNL     1       0.666  10.330  18.747  0.00  0.00    +0.000 C 
ATOM      4  C   UNL     1      -0.139  10.621  20.026  0.00  0.00    +0.000 C 
ATOM      5  C   UNL     1       0.634  10.043  21.230  0.00  0.00    +0.000 C 
ATOM      6  O   UNL     1       1.089   8.709  20.998  0.00  0.00    +0.000 OA
ENDROOT
BRANCH   4   7
ATOM      7  N   UNL     1      -0.401  12.056  20.254  0.00  0.00    +0.000 NA
ATOM      8  H   UNL     1       0.465  12.582  20.095  0.00  0.00    +0.000 HD
BRANCH   7   9
ATOM      9  C   UNL     1      -0.814  12.375  21.630  0.00  0.00    +0.000 C 
BRANCH   9  10
ATOM     10  C   UNL     1      -2.324  12.524  21.733  0.00  0.00    +0.000 A 
ATOM     11  C   UNL     1      -2.996  12.477  22.963  0.00  0.00    +0.000 A 
ATOM     12  C   UNL     1      -4.381  12.707  22.996  0.00  0.00    +0.000 A 
ATOM     13  C   UNL     1      -5.021  13.019  21.805  0.00  0.00    +0.000 A 
ATOM     14  C   UNL     1      -4.297  12.992  20.625  0.00  0.00    +0.000 A 
ATOM     15  N   UNL     1      -2.973  12.732  20.557  0.00  0.00    +0.000 NA
ATOM     16  O   UNL     1      -6.321  13.426  21.757  0.00  0.00    +0.000 OA
ATOM     17  C   UNL     1      -7.143  12.682  22.648  0.00  0.00    +0.000 C 
ATOM     18  C   UNL     1      -6.673  12.704  24.096  0.00  0.00    +0.000 C 
ATOM     19  C   UNL     1      -5.153  12.663  24.281  0.00  0.00    +0.000 C 
ENDBRANCH   9  10
ENDBRANCH   7   9
ENDBRANCH   4   7
BRANCH   1  20
ATOM     20  C   UNL     1       2.468   7.202  19.646  0.00  0.00    +0.000 C 
BRANCH  20  21
ATOM     21  O   UNL     1       1.816   6.289  20.548  0.00  0.00    +0.000 OA
ATOM     22  H   UNL     1       2.534   5.792  20.985  0.00  0.00    +0.000 HD
ENDBRANCH  20  21
BRANCH  20  23
ATOM     23  C   UNL     1       2.247   6.709  18.204  0.00  0.00    +0.000 C 
BRANCH  23  32
ATOM     24  C   UNL     1       6.290   6.673  17.016  0.00  0.00    +0.000 A 
ATOM     25  C   UNL     1       6.962   5.538  16.619  0.00  0.00    +0.000 A 
ATOM     26  C   UNL     1       6.280   4.325  16.667  0.00  0.00    +0.000 A 
ATOM     27  C   UNL     1       4.963   4.268  17.099  0.00  0.00    +0.000 A 
ATOM     28  N   UNL     1       4.339   3.075  17.134  0.00  0.00    +0.000 NA
ATOM     29  C   UNL     1       3.055   3.070  17.550  0.00  0.00    +0.000 A 
ATOM     30  C   UNL     1       2.366   4.214  17.904  0.00  0.00    +0.000 A 
ATOM     31  F   UNL     1       1.081   4.127  18.270  0.00  0.00    +0.000 F 
ATOM     32  C   UNL     1       3.012   5.451  17.852  0.00  0.00    +0.000 A 
ATOM     33  C   UNL     1       4.351   5.494  17.464  0.00  0.00    +0.000 A 
ATOM     34  N   UNL     1       5.004   6.675  17.429  0.00  0.00    +0.000 NA
BRANCH  24  36
ATOM     35  C   UNL     1       8.043   7.914  17.929  0.00  0.00    +0.000 C 
ATOM     36  O   UNL     1       6.993   7.859  16.968  0.00  0.00    +0.000 OA
ENDBRANCH  24  36
ENDBRANCH  23  32
ENDBRANCH  20  23
ENDBRANCH   1  20
TORSDOF 8
ENDMDL
