MODEL 1
REMARK VINA RESULT:      -7.8      0.000      0.000
REMARK  Name = 
REMARK  17 active torsions:
REMARK  status: ('A' for Active; 'I' for Inactive)
REMARK    1  A    between atoms: C_1  and  O_2
REMARK    2  A    between atoms: O_2  and  C_3
REMARK    3  A    between atoms: C_3  and  C_5
REMARK    4  A    between atoms: C_5  and  N_6
REMARK    5  A    between atoms: C_5  and  C_29
REMARK    6  A    between atoms: C_7  and  C_9
REMARK    7  A    between atoms: C_9  and  C_10
REMARK    8  A    between atoms: C_10  and  C_11
REMARK    9  A    between atoms: C_11  and  C_12
REMARK   10  A    between atoms: C_13  and  C_14
REMARK   11  A    between atoms: C_14  and  C_15
REMARK   12  A    between atoms: C_16  and  O_17
REMARK   13  A    between atoms: C_20  and  C_21
REMARK   14  A    between atoms: C_22  and  O_23
REMARK   15  A    between atoms: O_23  and  C_24
REMARK   16  A    between atoms: C_29  and  C_30
REMARK   17  A    between atoms: C_29  and  C_31
REMARK                            x       y       z     vdW  Elec       q    Type
REMARK                         _______ _______ _______ _____ _____    ______ ____
ROOT
ATOM      1  C   UNL     1       7.044   6.625  17.595  0.00  0.00    +0.000 C 
ATOM      2  C   UNL     1       7.355   5.158  17.394  0.00  0.00    +0.000 C 
ATOM      3  C   UNL     1       5.838   7.114  17.298  0.00  0.00    +0.000 C 
ENDROOT
BRANCH   1   4
ATOM      4  C   UNL     1       8.121   7.554  18.112  0.00  0.00    +0.000 C 
BRANCH   4   5
ATOM      5  C   UNL     1       8.088   8.969  17.523  0.00  0.00    +0.000 C 
BRANCH   5   7
ATOM      6  N   UNL     1       8.978  11.172  17.869  0.00  0.00    +0.000 N 
ATOM      7  C   UNL     1       8.762   9.946  18.444  0.00  0.00    +0.000 C 
ATOM      8  O   UNL     1       9.072   9.679  19.604  0.00  0.00    +0.000 OA
ATOM      9  H   UNL     1       8.981  11.230  16.855  0.00  0.00    +0.000 HD
BRANCH   6  10
ATOM     10  C   UNL     1       9.604  12.263  18.626  0.00  0.00    +0.000 C 
BRANCH  10  11
ATOM     11  C   UNL     1       9.421  13.601  17.874  0.00  0.00    +0.000 C 
ATOM     12  C   UNL     1       8.890  14.706  18.795  0.00  0.00    +0.000 C 
ATOM     13  C   UNL     1      10.730  14.099  17.244  0.00  0.00    +0.000 C 
ENDBRANCH  10  11
BRANCH  10  14
ATOM     14  C   UNL     1      11.077  11.937  18.919  0.00  0.00    +0.000 C 
ATOM     15  O   UNL     1      11.842  11.379  18.108  0.00  0.00    +0.000 OA
BRANCH  14  17
ATOM     16  C   UNL     1      10.442  12.291  21.153  0.00  0.00    +0.000 C 
ATOM     17  O   UNL     1      11.469  12.348  20.155  0.00  0.00    +0.000 OA
ENDBRANCH  14  17
ENDBRANCH  10  14
ENDBRANCH   6  10
ENDBRANCH   5   7
ENDBRANCH   4   5
ENDBRANCH   1   4
BRANCH   3  18
ATOM     18  C   UNL     1       4.688   6.278  16.807  0.00  0.00    +0.000 C 
BRANCH  18  19
ATOM     19  C   UNL     1       3.799   5.595  17.818  0.00  0.00    +0.000 A 
ATOM     20  C   UNL     1       3.716   4.178  17.875  0.00  0.00    +0.000 A 
ATOM     21  C   UNL     1       2.928   3.569  18.842  0.00  0.00    +0.000 A 
ATOM     22  C   UNL     1       2.168   4.299  19.717  0.00  0.00    +0.000 A 
ATOM     23  C   UNL     1       2.159   5.690  19.674  0.00  0.00    +0.000 A 
ATOM     24  C   UNL     1       1.276   6.480  20.603  0.00  0.00    +0.000 C 
ATOM     25  C   UNL     1       2.963   6.350  18.703  0.00  0.00    +0.000 A 
ATOM     26  C   UNL     1       1.414   3.373  20.589  0.00  0.00    +0.000 C 
ATOM     27  O   UNL     1       1.833   2.073  20.149  0.00  0.00    +0.000 OA
ATOM     28  C   UNL     1       2.720   2.142  19.107  0.00  0.00    +0.000 C 
ATOM     29  O   UNL     1       3.213   1.185  18.548  0.00  0.00    +0.000 OA
BRANCH  20  30
ATOM     30  O   UNL     1       4.345   3.340  17.002  0.00  0.00    +0.000 OA
ATOM     31  H   UNL     1       5.297   3.525  16.975  0.00  0.00    +0.000 HD
ENDBRANCH  20  30
BRANCH  25  32
ATOM     32  O   UNL     1       2.834   7.713  18.810  0.00  0.00    +0.000 OA
ATOM     33  C   UNL     1       2.216   8.531  17.830  0.00  0.00    +0.000 C 
ENDBRANCH  25  32
ENDBRANCH  18  19
ENDBRANCH   3  18
TORSDOF 11
ENDMDL
MODEL 2
REMARK VINA RESULT:      -7.6      5.648      9.677
REMARK  Name = 
REMARK  17 active torsions:
REMARK  status: ('A' for Active; 'I' for Inactive)
REMARK    1  A    between atoms: C_1  and  O_2
REMARK    2  A    between atoms: O_2  and  C_3
REMARK    3  A    between atoms: C_3  and  C_5
REMARK    4  A    between atoms: C_5  and  N_6
REMARK    5  A    between atoms: C_5  and  C_29
REMARK    6  A    between atoms: C_7  and  C_9
REMARK    7  A    between atoms: C_9  and  C_10
REMARK    8  A    between atoms: C_10  and  C_11
REMARK    9  A    between atoms: C_11  and  C_12
REMARK   10  A    between atoms: C_13  and  C_14
REMARK   11  A    between atoms: C_14  and  C_15
REMARK   12  A    between atoms: C_16  and  O_17
REMARK   13  A    between atoms: C_20  and  C_21
REMARK   14  A    between atoms: C_22  and  O_23
REMARK   15  A    between atoms: O_23  and  C_24
REMARK   16  A    between atoms: C_29  and  C_30
REMARK   17  A    between atoms: C_29  and  C_31
REMARK                            x       y       z     vdW  Elec       q    Type
REMARK                         _______ _______ _______ _____ _____    ______ ____
ROOT
ATOM      1  C   UNL     1       0.577   8.744  21.015  0.00  0.00    +0.000 C 
ATOM      2  C   UNL     1      -0.385   8.894  22.174  0.00  0.00    +0.000 C 
ATOM      3  C   UNL     1       0.755   9.737  20.142  0.00  0.00    +0.000 C 
ENDROOT
BRANCH   1   4
ATOM      4  C   UNL     1       1.324   7.441  20.829  0.00  0.00    +0.000 C 
BRANCH   4   5
ATOM      5  C   UNL     1       2.437   7.482  19.776  0.00  0.00    +0.000 C 
BRANCH   5   7
ATOM      6  N   UNL     1       2.858   5.119  19.824  0.00  0.00    +0.000 N 
ATOM      7  C   UNL     1       2.514   6.180  19.029  0.00  0.00    +0.000 C 
ATOM      8  O   UNL     1       2.276   6.075  17.827  0.00  0.00    +0.000 OA
ATOM      9  H   UNL     1       3.325   5.313  20.705  0.00  0.00    +0.000 HD
BRANCH   6  10
ATOM     10  C   UNL     1       2.960   3.762  19.273  0.00  0.00    +0.000 C 
BRANCH  10  11
ATOM     11  C   UNL     1       2.035   2.802  20.057  0.00  0.00    +0.000 C 
ATOM     12  C   UNL     1       1.685   3.352  21.444  0.00  0.00    +0.000 C 
ATOM     13  C   UNL     1       0.721   2.524  19.313  0.00  0.00    +0.000 C 
ENDBRANCH  10  11
BRANCH  10  14
ATOM     14  C   UNL     1       4.425   3.299  19.252  0.00  0.00    +0.000 C 
ATOM     15  O   UNL     1       4.901   2.459  20.040  0.00  0.00    +0.000 OA
BRANCH  14  17
ATOM     16  C   UNL     1       6.122   4.833  18.714  0.00  0.00    +0.000 C 
ATOM     17  O   UNL     1       5.146   3.887  18.259  0.00  0.00    +0.000 OA
ENDBRANCH  14  17
ENDBRANCH  10  14
ENDBRANCH   6  10
ENDBRANCH   5   7
ENDBRANCH   4   5
ENDBRANCH   1   4
BRANCH   3  18
ATOM     18  C   UNL     1       0.087  11.081  20.249  0.00  0.00    +0.000 C 
BRANCH  18  19
ATOM     19  C   UNL     1      -1.230  11.298  19.547  0.00  0.00    +0.000 A 
ATOM     20  C   UNL     1      -1.429  10.847  18.214  0.00  0.00    +0.000 A 
ATOM     21  C   UNL     1      -2.663  11.016  17.603  0.00  0.00    +0.000 A 
ATOM     22  C   UNL     1      -3.694  11.668  18.227  0.00  0.00    +0.000 A 
ATOM     23  C   UNL     1      -3.544  12.185  19.510  0.00  0.00    +0.000 A 
ATOM     24  C   UNL     1      -4.665  12.950  20.164  0.00  0.00    +0.000 C 
ATOM     25  C   UNL     1      -2.296  12.022  20.173  0.00  0.00    +0.000 A 
ATOM     26  C   UNL     1      -4.853  11.723  17.312  0.00  0.00    +0.000 C 
ATOM     27  O   UNL     1      -4.398  11.030  16.141  0.00  0.00    +0.000 OA
ATOM     28  C   UNL     1      -3.100  10.605  16.265  0.00  0.00    +0.000 C 
ATOM     29  O   UNL     1      -2.480  10.008  15.411  0.00  0.00    +0.000 OA
BRANCH  20  30
ATOM     30  O   UNL     1      -0.457  10.272  17.450  0.00  0.00    +0.000 OA
ATOM     31  H   UNL     1       0.222  10.924  17.211  0.00  0.00    +0.000 HD
ENDBRANCH  20  30
BRANCH  25  32
ATOM     32  O   UNL     1      -2.332  12.589  21.424  0.00  0.00    +0.000 OA
ATOM     33  C   UNL     1      -1.599  13.744  21.793  0.00  0.00    +0.000 C 
ENDBRANCH  25  32
ENDBRANCH  18  19
ENDBRANCH   3  18
TORSDOF 11
ENDMDL
MODEL 3
REMARK VINA RESULT:      -7.5      5.529      9.379
REMARK  Name = 
REMARK  17 active torsions:
REMARK  status: ('A' for Active; 'I' for Inactive)
REMARK    1  A    between atoms: C_1  and  O_2
REMARK    2  A    between atoms: O_2  and  C_3
REMARK    3  A    between atoms: C_3  and  C_5
REMARK    4  A    between atoms: C_5  and  N_6
REMARK    5  A    between atoms: C_5  and  C_29
REMARK    6  A    between atoms: C_7  and  C_9
REMARK    7  A    between atoms: C_9  and  C_10
REMARK    8  A    between atoms: C_10  and  C_11
REMARK    9  A    between atoms: C_11  and  C_12
REMARK   10  A    between atoms: C_13  and  C_14
REMARK   11  A    between atoms: C_14  and  C_15
REMARK   12  A    between atoms: C_16  and  O_17
REMARK   13  A    between atoms: C_20  and  C_21
REMARK   14  A    between atoms: C_22  and  O_23
REMARK   15  A    between atoms: O_23  and  C_24
REMARK   16  A    between atoms: C_29  and  C_30
REMARK   17  A    between atoms: C_29  and  C_31
REMARK                            x       y       z     vdW  Elec       q    Type
REMARK                         _______ _______ _______ _____ _____    ______ ____
ROOT
ATOM      1  C   UNL     1       1.086   8.809  20.874  0.00  0.00    +0.000 C 
ATOM      2  C   UNL     1       0.655   9.120  22.291  0.00  0.00    +0.000 C 
ATOM      3  C   UNL     1       0.851   9.671  19.883  0.00  0.00    +0.000 C 
ENDROOT
BRANCH   1   4
ATOM      4  C   UNL     1       1.766   7.491  20.573  0.00  0.00    +0.000 C 
BRANCH   4   5
ATOM      5  C   UNL     1       2.322   7.364  19.150  0.00  0.00    +0.000 C 
BRANCH   5   7
ATOM      6  N   UNL     1       3.309   5.699  17.730  0.00  0.00    +0.000 N 
ATOM      7  C   UNL     1       3.185   6.140  19.021  0.00  0.00    +0.000 C 
ATOM      8  O   UNL     1       3.739   5.599  19.977  0.00  0.00    +0.000 OA
ATOM      9  H   UNL     1       2.607   5.990  17.055  0.00  0.00    +0.000 HD
BRANCH   6  10
ATOM     10  C   UNL     1       4.134   4.527  17.406  0.00  0.00    +0.000 C 
BRANCH  10  11
ATOM     11  C   UNL     1       4.779   4.704  16.013  0.00  0.00    +0.000 C 
ATOM     12  C   UNL     1       5.206   6.155  15.760  0.00  0.00    +0.000 C 
ATOM     13  C   UNL     1       6.013   3.810  15.825  0.00  0.00    +0.000 C 
ENDBRANCH  10  11
BRANCH  10  14
ATOM     14  C   UNL     1       3.306   3.238  17.524  0.00  0.00    +0.000 C 
ATOM     15  O   UNL     1       3.788   2.123  17.798  0.00  0.00    +0.000 OA
BRANCH  14  17
ATOM     16  C   UNL     1       1.132   2.973  18.377  0.00  0.00    +0.000 C 
ATOM     17  O   UNL     1       1.976   3.449  17.322  0.00  0.00    +0.000 OA
ENDBRANCH  14  17
ENDBRANCH  10  14
ENDBRANCH   6  10
ENDBRANCH   5   7
ENDBRANCH   4   5
ENDBRANCH   1   4
BRANCH   3  18
ATOM     18  C   UNL     1       0.209  11.019  20.075  0.00  0.00    +0.000 C 
BRANCH  18  19
ATOM     19  C   UNL     1      -1.148  11.273  19.467  0.00  0.00    +0.000 A 
ATOM     20  C   UNL     1      -1.461  10.808  18.162  0.00  0.00    +0.000 A 
ATOM     21  C   UNL     1      -2.731  11.013  17.640  0.00  0.00    +0.000 A 
ATOM     22  C   UNL     1      -3.688  11.712  18.325  0.00  0.00    +0.000 A 
ATOM     23  C   UNL     1      -3.425  12.245  19.584  0.00  0.00    +0.000 A 
ATOM     24  C   UNL     1      -4.466  13.061  20.304  0.00  0.00    +0.000 C 
ATOM     25  C   UNL     1      -2.138  12.046  20.156  0.00  0.00    +0.000 A 
ATOM     26  C   UNL     1      -4.910  11.796  17.497  0.00  0.00    +0.000 C 
ATOM     27  O   UNL     1      -4.567  11.067  16.309  0.00  0.00    +0.000 OA
ATOM     28  C   UNL     1      -3.280  10.597  16.345  0.00  0.00    +0.000 C 
ATOM     29  O   UNL     1      -2.747   9.963  15.460  0.00  0.00    +0.000 OA
BRANCH  20  30
ATOM     30  O   UNL     1      -0.569  10.185  17.339  0.00  0.00    +0.000 OA
ATOM     31  H   UNL     1       0.339  10.327  17.648  0.00  0.00    +0.000 HD
ENDBRANCH  20  30
BRANCH  25  32
ATOM     32  O   UNL     1      -2.061  12.634  21.396  0.00  0.00    +0.000 OA
ATOM     33  C   UNL     1      -1.933  11.913  22.609  0.00  0.00    +0.000 C 
ENDBRANCH  25  32
ENDBRANCH  18  19
ENDBRANCH   3  18
TORSDOF 11
ENDMDL
MODEL 4
REMARK VINA RESULT:      -7.4      1.202      1.801
REMARK  Name = 
REMARK  17 active torsions:
REMARK  status: ('A' for Active; 'I' for Inactive)
REMARK    1  A    between atoms: C_1  and  O_2
REMARK    2  A    between atoms: O_2  and  C_3
REMARK    3  A    between atoms: C_3  and  C_5
REMARK    4  A    between atoms: C_5  and  N_6
REMARK    5  A    between atoms: C_5  and  C_29
REMARK    6  A    between atoms: C_7  and  C_9
REMARK    7  A    between atoms: C_9  and  C_10
REMARK    8  A    between atoms: C_10  and  C_11
REMARK    9  A    between atoms: C_11  and  C_12
REMARK   10  A    between atoms: C_13  and  C_14
REMARK   11  A    between atoms: C_14  and  C_15
REMARK   12  A    between atoms: C_16  and  O_17
REMARK   13  A    between atoms: C_20  and  C_21
REMARK   14  A    between atoms: C_22  and  O_23
REMARK   15  A    between atoms: O_23  and  C_24
REMARK   16  A    between atoms: C_29  and  C_30
REMARK   17  A    between atoms: C_29  and  C_31
REMARK                            x       y       z     vdW  Elec       q    Type
REMARK                         _______ _______ _______ _____ _____    ______ ____
ROOT
ATOM      1  C   UNL     1       7.023   6.724  17.651  0.00  0.00    +0.000 C 
ATOM      2  C   UNL     1       7.315   5.238  17.665  0.00  0.00    +0.000 C 
ATOM      3  C   UNL     1       5.853   7.186  17.206  0.00  0.00    +0.000 C 
ENDROOT
BRANCH   1   4
ATOM      4  C   UNL     1       8.082   7.697  18.121  0.00  0.00    +0.000 C 
BRANCH   4   5
ATOM      5  C   UNL     1       7.873   9.145  17.664  0.00  0.00    +0.000 C 
BRANCH   5   7
ATOM      6  N   UNL     1       8.699  11.377  17.983  0.00  0.00    +0.000 N 
ATOM      7  C   UNL     1       8.785  10.078  18.411  0.00  0.00    +0.000 C 
ATOM      8  O   UNL     1       9.523   9.714  19.325  0.00  0.00    +0.000 OA
ATOM      9  H   UNL     1       8.319  11.552  17.058  0.00  0.00    +0.000 HD
BRANCH   6  10
ATOM     10  C   UNL     1       9.500  12.435  18.612  0.00  0.00    +0.000 C 
BRANCH  10  11
ATOM     11  C   UNL     1       9.340  12.377  20.148  0.00  0.00    +0.000 C 
ATOM     12  C   UNL     1      10.683  12.547  20.869  0.00  0.00    +0.000 C 
ATOM     13  C   UNL     1       8.381  13.455  20.675  0.00  0.00    +0.000 C 
ENDBRANCH  10  11
BRANCH  10  14
ATOM     14  C   UNL     1       9.135  13.807  18.023  0.00  0.00    +0.000 C 
ATOM     15  O   UNL     1       7.993  14.115  17.630  0.00  0.00    +0.000 OA
BRANCH  14  17
ATOM     16  C   UNL     1       9.908  15.971  18.518  0.00  0.00    +0.000 C 
ATOM     17  O   UNL     1      10.191  14.665  17.999  0.00  0.00    +0.000 OA
ENDBRANCH  14  17
ENDBRANCH  10  14
ENDBRANCH   6  10
ENDBRANCH   5   7
ENDBRANCH   4   5
ENDBRANCH   1   4
BRANCH   3  18
ATOM     18  C   UNL     1       4.722   6.308  16.744  0.00  0.00    +0.000 C 
BRANCH  18  19
ATOM     19  C   UNL     1       3.833   5.660  17.778  0.00  0.00    +0.000 A 
ATOM     20  C   UNL     1       3.728   4.246  17.865  0.00  0.00    +0.000 A 
ATOM     21  C   UNL     1       2.941   3.670  18.852  0.00  0.00    +0.000 A 
ATOM     22  C   UNL     1       2.202   4.429  19.720  0.00  0.00    +0.000 A 
ATOM     23  C   UNL     1       2.215   5.819  19.648  0.00  0.00    +0.000 A 
ATOM     24  C   UNL     1       1.354   6.642  20.570  0.00  0.00    +0.000 C 
ATOM     25  C   UNL     1       3.019   6.446  18.656  0.00  0.00    +0.000 A 
ATOM     26  C   UNL     1       1.443   3.534  20.618  0.00  0.00    +0.000 C 
ATOM     27  O   UNL     1       1.836   2.218  20.201  0.00  0.00    +0.000 OA
ATOM     28  C   UNL     1       2.713   2.252  19.148  0.00  0.00    +0.000 C 
ATOM     29  O   UNL     1       3.184   1.276  18.604  0.00  0.00    +0.000 OA
BRANCH  20  30
ATOM     30  O   UNL     1       4.334   3.380  17.002  0.00  0.00    +0.000 OA
ATOM     31  H   UNL     1       4.934   3.855  16.405  0.00  0.00    +0.000 HD
ENDBRANCH  20  30
BRANCH  25  32
ATOM     32  O   UNL     1       2.912   7.814  18.736  0.00  0.00    +0.000 OA
ATOM     33  C   UNL     1       2.197   8.609  17.807  0.00  0.00    +0.000 C 
ENDBRANCH  25  32
ENDBRANCH  18  19
ENDBRANCH   3  18
TORSDOF 11
ENDMDL
MODEL 5
REMARK VINA RESULT:      -7.3      4.678      8.319
REMARK  Name = 
REMARK  17 active torsions:
REMARK  status: ('A' for Active; 'I' for Inactive)
REMARK    1  A    between atoms: C_1  and  O_2
REMARK    2  A    between atoms: O_2  and  C_3
REMARK    3  A    between atoms: C_3  and  C_5
REMARK    4  A    between atoms: C_5  and  N_6
REMARK    5  A    between atoms: C_5  and  C_29
REMARK    6  A    between atoms: C_7  and  C_9
REMARK    7  A    between atoms: C_9  and  C_10
REMARK    8  A    between atoms: C_10  and  C_11
REMARK    9  A    between atoms: C_11  and  C_12
REMARK   10  A    between atoms: C_13  and  C_14
REMARK   11  A    between atoms: C_14  and  C_15
REMARK   12  A    between atoms: C_16  and  O_17
REMARK   13  A    between atoms: C_20  and  C_21
REMARK   14  A    between atoms: C_22  and  O_23
REMARK   15  A    between atoms: O_23  and  C_24
REMARK   16  A    between atoms: C_29  and  C_30
REMARK   17  A    between atoms: C_29  and  C_31
REMARK                            x       y       z     vdW  Elec       q    Type
REMARK                         _______ _______ _______ _____ _____    ______ ____
ROOT
ATOM      1  C   UNL     1       1.845   8.292  19.355  0.00  0.00    +0.000 C 
ATOM      2  C   UNL     1       1.584   7.830  20.773  0.00  0.00    +0.000 C 
ATOM      3  C   UNL     1       1.360   9.455  18.916  0.00  0.00    +0.000 C 
ENDROOT
BRANCH   1   4
ATOM      4  C   UNL     1       2.641   7.411  18.417  0.00  0.00    +0.000 C 
BRANCH   4   5
ATOM      5  C   UNL     1       2.622   5.918  18.764  0.00  0.00    +0.000 C 
BRANCH   5   7
ATOM      6  N   UNL     1       4.752   6.027  17.661  0.00  0.00    +0.000 N 
ATOM      7  C   UNL     1       3.744   5.195  18.074  0.00  0.00    +0.000 C 
ATOM      8  O   UNL     1       3.764   3.976  17.911  0.00  0.00    +0.000 OA
ATOM      9  H   UNL     1       4.542   7.015  17.552  0.00  0.00    +0.000 HD
BRANCH   6  10
ATOM     10  C   UNL     1       5.944   5.495  16.988  0.00  0.00    +0.000 C 
BRANCH  10  11
ATOM     11  C   UNL     1       7.218   5.936  17.743  0.00  0.00    +0.000 C 
ATOM     12  C   UNL     1       7.494   7.435  17.574  0.00  0.00    +0.000 C 
ATOM     13  C   UNL     1       7.136   5.637  19.247  0.00  0.00    +0.000 C 
ENDBRANCH  10  11
BRANCH  10  14
ATOM     14  C   UNL     1       5.952   5.906  15.507  0.00  0.00    +0.000 C 
ATOM     15  O   UNL     1       5.203   6.776  15.021  0.00  0.00    +0.000 OA
BRANCH  14  17
ATOM     16  C   UNL     1       6.374   4.137  14.018  0.00  0.00    +0.000 C 
ATOM     17  O   UNL     1       6.888   5.235  14.782  0.00  0.00    +0.000 OA
ENDBRANCH  14  17
ENDBRANCH  10  14
ENDBRANCH   6  10
ENDBRANCH   5   7
ENDBRANCH   4   5
ENDBRANCH   1   4
BRANCH   3  18
ATOM     18  C   UNL     1       0.582  10.419  19.770  0.00  0.00    +0.000 C 
BRANCH  18  19
ATOM     19  C   UNL     1      -0.790  10.853  19.315  0.00  0.00    +0.000 A 
ATOM     20  C   UNL     1      -1.321  10.407  18.076  0.00  0.00    +0.000 A 
ATOM     21  C   UNL     1      -2.604  10.781  17.699  0.00  0.00    +0.000 A 
ATOM     22  C   UNL     1      -3.362  11.628  18.462  0.00  0.00    +0.000 A 
ATOM     23  C   UNL     1      -2.876  12.147  19.658  0.00  0.00    +0.000 A 
ATOM     24  C   UNL     1      -3.695  13.122  20.461  0.00  0.00    +0.000 C 
ATOM     25  C   UNL     1      -1.569  11.778  20.083  0.00  0.00    +0.000 A 
ATOM     26  C   UNL     1      -4.651  11.868  17.780  0.00  0.00    +0.000 C 
ATOM     27  O   UNL     1      -4.562  11.070  16.591  0.00  0.00    +0.000 OA
ATOM     28  C   UNL     1      -3.360  10.418  16.495  0.00  0.00    +0.000 C 
ATOM     29  O   UNL     1      -3.033   9.693  15.581  0.00  0.00    +0.000 OA
BRANCH  20  30
ATOM     30  O   UNL     1      -0.634   9.642  17.181  0.00  0.00    +0.000 OA
ATOM     31  H   UNL     1      -0.466  10.138  16.364  0.00  0.00    +0.000 HD
ENDBRANCH  20  30
BRANCH  25  32
ATOM     32  O   UNL     1      -1.259  12.378  21.280  0.00  0.00    +0.000 OA
ATOM     33  C   UNL     1      -0.309  13.420  21.422  0.00  0.00    +0.000 C 
ENDBRANCH  25  32
ENDBRANCH  18  19
ENDBRANCH   3  18
TORSDOF 11
ENDMDL
MODEL 6
REMARK VINA RESULT:      -7.2      1.558      2.000
REMARK  Name = 
REMARK  17 active torsions:
REMARK  status: ('A' for Active; 'I' for Inactive)
REMARK    1  A    between atoms: C_1  and  O_2
REMARK    2  A    between atoms: O_2  and  C_3
REMARK    3  A    between atoms: C_3  and  C_5
REMARK    4  A    between atoms: C_5  and  N_6
REMARK    5  A    between atoms: C_5  and  C_29
REMARK    6  A    between atoms: C_7  and  C_9
REMARK    7  A    between atoms: C_9  and  C_10
REMARK    8  A    between atoms: C_10  and  C_11
REMARK    9  A    between atoms: C_11  and  C_12
REMARK   10  A    between atoms: C_13  and  C_14
REMARK   11  A    between atoms: C_14  and  C_15
REMARK   12  A    between atoms: C_16  and  O_17
REMARK   13  A    between atoms: C_20  and  C_21
REMARK   14  A    between atoms: C_22  and  O_23
REMARK   15  A    between atoms: O_23  and  C_24
REMARK   16  A    between atoms: C_29  and  C_30
REMARK   17  A    between atoms: C_29  and  C_31
REMARK                            x       y       z     vdW  Elec       q    Type
REMARK                         _______ _______ _______ _____ _____    ______ ____
ROOT
ATOM      1  C   UNL     1       7.045   7.031  17.504  0.00  0.00    +0.000 C 
ATOM      2  C   UNL     1       7.669   6.013  18.434  0.00  0.00    +0.000 C 
ATOM      3  C   UNL     1       5.991   6.711  16.750  0.00  0.00    +0.000 C 
ENDROOT
BRANCH   1   4
ATOM      4  C   UNL     1       7.642   8.418  17.405  0.00  0.00    +0.000 C 
BRANCH   4   5
ATOM      5  C   UNL     1       8.575   8.801  18.560  0.00  0.00    +0.000 C 
BRANCH   5   7
ATOM      6  N   UNL     1       9.456  10.703  19.730  0.00  0.00    +0.000 N 
ATOM      7  C   UNL     1       8.771  10.290  18.617  0.00  0.00    +0.000 C 
ATOM      8  O   UNL     1       8.371  11.059  17.745  0.00  0.00    +0.000 OA
ATOM      9  H   UNL     1       9.486  10.080  20.532  0.00  0.00    +0.000 HD
BRANCH   6  10
ATOM     10  C   UNL     1       9.762  12.122  19.946  0.00  0.00    +0.000 C 
BRANCH  10  11
ATOM     11  C   UNL     1      11.284  12.311  20.142  0.00  0.00    +0.000 C 
ATOM     12  C   UNL     1      12.097  11.492  19.132  0.00  0.00    +0.000 C 
ATOM     13  C   UNL     1      11.710  13.781  20.010  0.00  0.00    +0.000 C 
ENDBRANCH  10  11
BRANCH  10  14
ATOM     14  C   UNL     1       8.934  12.679  21.115  0.00  0.00    +0.000 C 
ATOM     15  O   UNL     1       8.227  13.702  21.042  0.00  0.00    +0.000 OA
BRANCH  14  17
ATOM     16  C   UNL     1       7.803  11.749  22.953  0.00  0.00    +0.000 C 
ATOM     17  O   UNL     1       9.033  11.916  22.237  0.00  0.00    +0.000 OA
ENDBRANCH  14  17
ENDBRANCH  10  14
ENDBRANCH   6  10
ENDBRANCH   5   7
ENDBRANCH   4   5
ENDBRANCH   1   4
BRANCH   3  18
ATOM     18  C   UNL     1       5.302   5.374  16.790  0.00  0.00    +0.000 C 
BRANCH  18  19
ATOM     19  C   UNL     1       4.219   5.143  17.815  0.00  0.00    +0.000 A 
ATOM     20  C   UNL     1       3.794   3.827  18.141  0.00  0.00    +0.000 A 
ATOM     21  C   UNL     1       2.829   3.634  19.119  0.00  0.00    +0.000 A 
ATOM     22  C   UNL     1       2.218   4.686  19.748  0.00  0.00    +0.000 A 
ATOM     23  C   UNL     1       2.547   6.001  19.431  0.00  0.00    +0.000 A 
ATOM     24  C   UNL     1       1.829   7.150  20.087  0.00  0.00    +0.000 C 
ATOM     25  C   UNL     1       3.540   6.238  18.441  0.00  0.00    +0.000 A 
ATOM     26  C   UNL     1       1.215   4.164  20.699  0.00  0.00    +0.000 C 
ATOM     27  O   UNL     1       1.333   2.739  20.571  0.00  0.00    +0.000 OA
ATOM     28  C   UNL     1       2.268   2.381  19.636  0.00  0.00    +0.000 C 
ATOM     29  O   UNL     1       2.546   1.240  19.332  0.00  0.00    +0.000 OA
BRANCH  20  30
ATOM     30  O   UNL     1       4.251   2.701  17.521  0.00  0.00    +0.000 OA
ATOM     31  H   UNL     1       4.678   2.923  16.679  0.00  0.00    +0.000 HD
ENDBRANCH  20  30
BRANCH  25  32
ATOM     32  O   UNL     1       3.738   7.586  18.263  0.00  0.00    +0.000 OA
ATOM     33  C   UNL     1       2.836   8.436  17.574  0.00  0.00    +0.000 C 
ENDBRANCH  25  32
ENDBRANCH  18  19
ENDBRANCH   3  18
TORSDOF 11
ENDMDL
MODEL 7
REMARK VINA RESULT:      -7.2      1.803      2.177
REMARK  Name = 
REMARK  17 active torsions:
REMARK  status: ('A' for Active; 'I' for Inactive)
REMARK    1  A    between atoms: C_1  and  O_2
REMARK    2  A    between atoms: O_2  and  C_3
REMARK    3  A    between atoms: C_3  and  C_5
REMARK    4  A    between atoms: C_5  and  N_6
REMARK    5  A    between atoms: C_5  and  C_29
REMARK    6  A    between atoms: C_7  and  C_9
REMARK    7  A    between atoms: C_9  and  C_10
REMARK    8  A    between atoms: C_10  and  C_11
REMARK    9  A    between atoms: C_11  and  C_12
REMARK   10  A    between atoms: C_13  and  C_14
REMARK   11  A    between atoms: C_14  and  C_15
REMARK   12  A    between atoms: C_16  and  O_17
REMARK   13  A    between atoms: C_20  and  C_21
REMARK   14  A    between atoms: C_22  and  O_23
REMARK   15  A    between atoms: O_23  and  C_24
REMARK   16  A    between atoms: C_29  and  C_30
REMARK   17  A    between atoms: C_29  and  C_31
REMARK                            x       y       z     vdW  Elec       q    Type
REMARK                         _______ _______ _______ _____ _____    ______ ____
ROOT
ATOM      1  C   UNL     1       6.773   6.880  17.254  0.00  0.00    +0.000 C 
ATOM      2  C   UNL     1       7.531   5.711  17.845  0.00  0.00    +0.000 C 
ATOM      3  C   UNL     1       5.546   6.716  16.755  0.00  0.00    +0.000 C 
ENDROOT
BRANCH   1   4
ATOM      4  C   UNL     1       7.425   8.244  17.203  0.00  0.00    +0.000 C 
BRANCH   4   5
ATOM      5  C   UNL     1       8.361   8.555  18.376  0.00  0.00    +0.000 C 
BRANCH   5   7
ATOM      6  N   UNL     1       9.319  10.378  19.610  0.00  0.00    +0.000 N 
ATOM      7  C   UNL     1       8.579  10.036  18.508  0.00  0.00    +0.000 C 
ATOM      8  O   UNL     1       8.153  10.857  17.698  0.00  0.00    +0.000 OA
ATOM      9  H   UNL     1       9.375   9.711  20.374  0.00  0.00    +0.000 HD
BRANCH   6  10
ATOM     10  C   UNL     1       9.654  11.780  19.891  0.00  0.00    +0.000 C 
BRANCH  10  11
ATOM     11  C   UNL     1      11.187  11.946  20.000  0.00  0.00    +0.000 C 
ATOM     12  C   UNL     1      11.911  11.380  18.772  0.00  0.00    +0.000 C 
ATOM     13  C   UNL     1      11.603  13.415  20.158  0.00  0.00    +0.000 C 
ENDBRANCH  10  11
BRANCH  10  14
ATOM     14  C   UNL     1       8.908  12.270  21.142  0.00  0.00    +0.000 C 
ATOM     15  O   UNL     1       8.932  11.685  22.242  0.00  0.00    +0.000 OA
BRANCH  14  17
ATOM     16  C   UNL     1       7.676  14.023  22.109  0.00  0.00    +0.000 C 
ATOM     17  O   UNL     1       8.235  13.434  20.928  0.00  0.00    +0.000 OA
ENDBRANCH  14  17
ENDBRANCH  10  14
ENDBRANCH   6  10
ENDBRANCH   5   7
ENDBRANCH   4   5
ENDBRANCH   1   4
BRANCH   3  18
ATOM     18  C   UNL     1       4.794   5.413  16.781  0.00  0.00    +0.000 C 
BRANCH  18  19
ATOM     19  C   UNL     1       4.071   5.013  18.044  0.00  0.00    +0.000 A 
ATOM     20  C   UNL     1       4.460   3.857  18.771  0.00  0.00    +0.000 A 
ATOM     21  C   UNL     1       3.812   3.533  19.954  0.00  0.00    +0.000 A 
ATOM     22  C   UNL     1       2.753   4.265  20.421  0.00  0.00    +0.000 A 
ATOM     23  C   UNL     1       2.285   5.375  19.723  0.00  0.00    +0.000 A 
ATOM     24  C   UNL     1       1.084   6.139  20.215  0.00  0.00    +0.000 C 
ATOM     25  C   UNL     1       2.931   5.745  18.511  0.00  0.00    +0.000 A 
ATOM     26  C   UNL     1       2.254   3.651  21.669  0.00  0.00    +0.000 C 
ATOM     27  O   UNL     1       3.132   2.535  21.875  0.00  0.00    +0.000 OA
ATOM     28  C   UNL     1       4.063   2.420  20.876  0.00  0.00    +0.000 C 
ATOM     29  O   UNL     1       4.910   1.554  20.811  0.00  0.00    +0.000 OA
BRANCH  20  30
ATOM     30  O   UNL     1       5.432   2.990  18.365  0.00  0.00    +0.000 OA
ATOM     31  H   UNL     1       5.109   2.076  18.391  0.00  0.00    +0.000 HD
ENDBRANCH  20  30
BRANCH  25  32
ATOM     32  O   UNL     1       2.342   6.859  17.966  0.00  0.00    +0.000 OA
ATOM     33  C   UNL     1       2.792   8.185  18.189  0.00  0.00    +0.000 C 
ENDBRANCH  25  32
ENDBRANCH  18  19
ENDBRANCH   3  18
TORSDOF 11
ENDMDL
MODEL 8
REMARK VINA RESULT:      -7.2      3.407      9.282
REMARK  Name = 
REMARK  17 active torsions:
REMARK  status: ('A' for Active; 'I' for Inactive)
REMARK    1  A    between atoms: C_1  and  O_2
REMARK    2  A    between atoms: O_2  and  C_3
REMARK    3  A    between atoms: C_3  and  C_5
REMARK    4  A    between atoms: C_5  and  N_6
REMARK    5  A    between atoms: C_5  and  C_29
REMARK    6  A    between atoms: C_7  and  C_9
REMARK    7  A    between atoms: C_9  and  C_10
REMARK    8  A    between atoms: C_10  and  C_11
REMARK    9  A    between atoms: C_11  and  C_12
REMARK   10  A    between atoms: C_13  and  C_14
REMARK   11  A    between atoms: C_14  and  C_15
REMARK   12  A    between atoms: C_16  and  O_17
REMARK   13  A    between atoms: C_20  and  C_21
REMARK   14  A    between atoms: C_22  and  O_23
REMARK   15  A    between atoms: O_23  and  C_24
REMARK   16  A    between atoms: C_29  and  C_30
REMARK   17  A    between atoms: C_29  and  C_31
REMARK                            x       y       z     vdW  Elec       q    Type
REMARK                         _______ _______ _______ _____ _____    ______ ____
ROOT
ATOM      1  C   UNL     1       9.297  10.646  19.164  0.00  0.00    +0.000 C 
ATOM      2  C   UNL     1       8.982  11.790  18.225  0.00  0.00    +0.000 C 
ATOM      3  C   UNL     1       9.700  10.879  20.414  0.00  0.00    +0.000 C 
ENDROOT
BRANCH   1   4
ATOM      4  C   UNL     1       9.179   9.220  18.670  0.00  0.00    +0.000 C 
BRANCH   4   5
ATOM      5  C   UNL     1       8.019   8.968  17.700  0.00  0.00    +0.000 C 
BRANCH   5   7
ATOM      6  N   UNL     1       6.420   7.304  17.037  0.00  0.00    +0.000 N 
ATOM      7  C   UNL     1       7.499   7.565  17.841  0.00  0.00    +0.000 C 
ATOM      8  O   UNL     1       8.002   6.730  18.590  0.00  0.00    +0.000 OA
ATOM      9  H   UNL     1       5.882   8.092  16.688  0.00  0.00    +0.000 HD
BRANCH   6  10
ATOM     10  C   UNL     1       5.791   5.978  17.022  0.00  0.00    +0.000 C 
BRANCH  10  11
ATOM     11  C   UNL     1       5.764   5.421  15.580  0.00  0.00    +0.000 C 
ATOM     12  C   UNL     1       7.172   5.101  15.065  0.00  0.00    +0.000 C 
ATOM     13  C   UNL     1       4.917   4.146  15.464  0.00  0.00    +0.000 C 
ENDBRANCH  10  11
BRANCH  10  14
ATOM     14  C   UNL     1       4.398   6.036  17.669  0.00  0.00    +0.000 C 
ATOM     15  O   UNL     1       3.543   6.902  17.403  0.00  0.00    +0.000 OA
BRANCH  14  17
ATOM     16  C   UNL     1       5.376   4.500  19.155  0.00  0.00    +0.000 C 
ATOM     17  O   UNL     1       4.186   5.019  18.548  0.00  0.00    +0.000 OA
ENDBRANCH  14  17
ENDBRANCH  10  14
ENDBRANCH   6  10
ENDBRANCH   5   7
ENDBRANCH   4   5
ENDBRANCH   1   4
BRANCH   3  18
ATOM     18  C   UNL     1       9.823  12.252  21.016  0.00  0.00    +0.000 C 
BRANCH  18  19
ATOM     19  C   UNL     1       8.618  12.866  21.686  0.00  0.00    +0.000 A 
ATOM     20  C   UNL     1       8.020  12.249  22.817  0.00  0.00    +0.000 A 
ATOM     21  C   UNL     1       6.941  12.854  23.445  0.00  0.00    +0.000 A 
ATOM     22  C   UNL     1       6.384  14.011  22.969  0.00  0.00    +0.000 A 
ATOM     23  C   UNL     1       6.886  14.633  21.829  0.00  0.00    +0.000 A 
ATOM     24  C   UNL     1       6.231  15.873  21.281  0.00  0.00    +0.000 C 
ATOM     25  C   UNL     1       7.999  14.048  21.164  0.00  0.00    +0.000 A 
ATOM     26  C   UNL     1       5.234  14.380  23.821  0.00  0.00    +0.000 C 
ATOM     27  O   UNL     1       5.210  13.354  24.824  0.00  0.00    +0.000 OA
ATOM     28  C   UNL     1       6.195  12.421  24.632  0.00  0.00    +0.000 C 
ATOM     29  O   UNL     1       6.379  11.449  25.333  0.00  0.00    +0.000 OA
BRANCH  20  30
ATOM     30  O   UNL     1       8.416  11.049  23.331  0.00  0.00    +0.000 OA
ATOM     31  H   UNL     1       9.314  11.111  23.694  0.00  0.00    +0.000 HD
ENDBRANCH  20  30
BRANCH  25  32
ATOM     32  O   UNL     1       8.360  14.796  20.069  0.00  0.00    +0.000 OA
ATOM     33  C   UNL     1       9.539  15.579  19.996  0.00  0.00    +0.000 C 
ENDBRANCH  25  32
ENDBRANCH  18  19
ENDBRANCH   3  18
TORSDOF 11
ENDMDL
MODEL 9
REMARK VINA RESULT:      -7.1      4.942      8.521
REMARK  Name = 
REMARK  17 active torsions:
REMARK  status: ('A' for Active; 'I' for Inactive)
REMARK    1  A    between atoms: C_1  and  O_2
REMARK    2  A    between atoms: O_2  and  C_3
REMARK    3  A    between atoms: C_3  and  C_5
REMARK    4  A    between atoms: C_5  and  N_6
REMARK    5  A    between atoms: C_5  and  C_29
REMARK    6  A    between atoms: C_7  and  C_9
REMARK    7  A    between atoms: C_9  and  C_10
REMARK    8  A    between atoms: C_10  and  C_11
REMARK    9  A    between atoms: C_11  and  C_12
REMARK   10  A    between atoms: C_13  and  C_14
REMARK   11  A    between atoms: C_14  and  C_15
REMARK   12  A    between atoms: C_16  and  O_17
REMARK   13  A    between atoms: C_20  and  C_21
REMARK   14  A    between atoms: C_22  and  O_23
REMARK   15  A    between atoms: O_23  and  C_24
REMARK   16  A    between atoms: C_29  and  C_30
REMARK   17  A    between atoms: C_29  and  C_31
REMARK                            x       y       z     vdW  Elec       q    Type
REMARK                         _______ _______ _______ _____ _____    ______ ____
ROOT
ATOM      1  C   UNL     1       0.985   9.292  18.824  0.00  0.00    +0.000 C 
ATOM      2  C   UNL     1       1.196   9.372  20.320  0.00  0.00    +0.000 C 
ATOM      3  C   UNL     1       1.838   8.620  18.048  0.00  0.00    +0.000 C 
ENDROOT
BRANCH   1   4
ATOM      4  C   UNL     1      -0.192  10.007  18.197  0.00  0.00    +0.000 C 
BRANCH   4   5
ATOM      5  C   UNL     1      -0.333  11.482  18.589  0.00  0.00    +0.000 C 
BRANCH   5   7
ATOM      6  N   UNL     1      -1.414  12.257  20.588  0.00  0.00    +0.000 N 
ATOM      7  C   UNL     1      -1.611  11.715  19.345  0.00  0.00    +0.000 C 
ATOM      8  O   UNL     1      -2.724  11.460  18.887  0.00  0.00    +0.000 OA
ATOM      9  H   UNL     1      -0.496  12.159  21.013  0.00  0.00    +0.000 HD
BRANCH   6  10
ATOM     10  C   UNL     1      -2.549  12.575  21.464  0.00  0.00    +0.000 C 
BRANCH  10  11
ATOM     11  C   UNL     1      -2.792  14.102  21.480  0.00  0.00    +0.000 C 
ATOM     12  C   UNL     1      -4.235  14.446  21.868  0.00  0.00    +0.000 C 
ATOM     13  C   UNL     1      -1.854  14.830  22.453  0.00  0.00    +0.000 C 
ENDBRANCH  10  11
BRANCH  10  14
ATOM     14  C   UNL     1      -2.326  11.989  22.867  0.00  0.00    +0.000 C 
ATOM     15  O   UNL     1      -3.232  11.831  23.708  0.00  0.00    +0.000 OA
BRANCH  14  17
ATOM     16  C   UNL     1      -0.819  10.222  23.227  0.00  0.00    +0.000 C 
ATOM     17  O   UNL     1      -1.032  11.632  23.086  0.00  0.00    +0.000 OA
ENDBRANCH  14  17
ENDBRANCH  10  14
ENDBRANCH   6  10
ENDBRANCH   5   7
ENDBRANCH   4   5
ENDBRANCH   1   4
BRANCH   3  18
ATOM     18  C   UNL     1       3.022   7.851  18.568  0.00  0.00    +0.000 C 
BRANCH  18  19
ATOM     19  C   UNL     1       3.078   6.360  18.343  0.00  0.00    +0.000 A 
ATOM     20  C   UNL     1       2.302   5.474  19.137  0.00  0.00    +0.000 A 
ATOM     21  C   UNL     1       2.334   4.110  18.883  0.00  0.00    +0.000 A 
ATOM     22  C   UNL     1       3.147   3.574  17.920  0.00  0.00    +0.000 A 
ATOM     23  C   UNL     1       3.976   4.383  17.148  0.00  0.00    +0.000 A 
ATOM     24  C   UNL     1       4.908   3.778  16.132  0.00  0.00    +0.000 C 
ATOM     25  C   UNL     1       3.963   5.788  17.372  0.00  0.00    +0.000 A 
ATOM     26  C   UNL     1       2.990   2.104  17.918  0.00  0.00    +0.000 C 
ATOM     27  O   UNL     1       2.007   1.865  18.937  0.00  0.00    +0.000 OA
ATOM     28  C   UNL     1       1.601   3.025  19.544  0.00  0.00    +0.000 C 
ATOM     29  O   UNL     1       0.789   3.092  20.442  0.00  0.00    +0.000 OA
BRANCH  20  30
ATOM     30  O   UNL     1       1.528   5.869  20.188  0.00  0.00    +0.000 OA
ATOM     31  H   UNL     1       0.849   5.203  20.382  0.00  0.00    +0.000 HD
ENDBRANCH  20  30
BRANCH  25  32
ATOM     32  O   UNL     1       4.835   6.424  16.522  0.00  0.00    +0.000 OA
ATOM     33  C   UNL     1       6.087   6.955  16.922  0.00  0.00    +0.000 C 
ENDBRANCH  25  32
ENDBRANCH  18  19
ENDBRANCH   3  18
TORSDOF 11
ENDMDL
