MODEL 1
REMARK VINA RESULT:      -8.6      0.000      0.000
REMARK  Name = 
REMARK  7 active torsions:
REMARK  status: ('A' for Active; 'I' for Inactive)
REMARK    1  A    between atoms: C_2  and  C_3
REMARK    2  A    between atoms: C_6  and  C_7
REMARK    3  A    between atoms: N_9  and  C_10
REMARK    4  A    between atoms: C_14  and  C_15
REMARK    5  A    between atoms: C_19  and  C_20
REMARK    6  A    between atoms: C_20  and  N_21
REMARK    7  A    between atoms: C_24  and  O_25
REMARK                            x       y       z     vdW  Elec       q    Type
REMARK                         _______ _______ _______ _____ _____    ______ ____
ROOT
ATOM      1  C   UNL     1       0.977   9.726  19.678  0.00  0.00    +0.000 A 
ATOM      2  C   UNL     1       1.433  10.161  18.433  0.00  0.00    +0.000 A 
ATOM      3  C   UNL     1       2.179   9.317  17.613  0.00  0.00    +0.000 A 
ATOM      4  C   UNL     1       2.488   8.026  18.036  0.00  0.00    +0.000 A 
ATOM      5  C   UNL     1       2.063   7.548  19.286  0.00  0.00    +0.000 A 
ATOM      6  C   UNL     1       1.313   8.431  20.100  0.00  0.00    +0.000 A 
ENDROOT
BRANCH   5   7
ATOM      7  C   UNL     1       2.370   6.163  19.723  0.00  0.00    +0.000 A 
ATOM      8  C   UNL     1       1.684   5.556  20.790  0.00  0.00    +0.000 A 
ATOM      9  C   UNL     1       1.991   4.259  21.211  0.00  0.00    +0.000 A 
ATOM     10  C   UNL     1       3.008   3.542  20.582  0.00  0.00    +0.000 A 
ATOM     11  C   UNL     1       3.723   4.110  19.521  0.00  0.00    +0.000 A 
ATOM     12  C   UNL     1       3.374   5.404  19.092  0.00  0.00    +0.000 A 
BRANCH  11  13
ATOM     13  C   UNL     1       4.858   3.353  18.853  0.00  0.00    +0.000 C 
BRANCH  13  14
ATOM     14  N   UNL     1       5.996   4.159  18.360  0.00  0.00    +0.000 NA
ATOM     15  C   UNL     1       6.370   5.235  19.284  0.00  0.00    +0.000 C 
ATOM     16  C   UNL     1       7.552   6.073  18.793  0.00  0.00    +0.000 C 
ATOM     17  C   UNL     1       7.349   6.563  17.365  0.00  0.00    +0.000 C 
ATOM     18  C   UNL     1       7.018   5.395  16.447  0.00  0.00    +0.000 C 
ATOM     19  C   UNL     1       5.831   4.584  16.969  0.00  0.00    +0.000 C 
BRANCH  17  20
ATOM     20  O   UNL     1       6.327   7.558  17.301  0.00  0.00    +0.000 OA
ATOM     21  H   UNL     1       6.625   8.346  17.787  0.00  0.00    +0.000 HD
ENDBRANCH  17  20
ENDBRANCH  13  14
ENDBRANCH  11  13
ENDBRANCH   5   7
BRANCH   1  24
ATOM     22  C   UNL     1       0.602  11.690  21.155  0.00  0.00    +0.000 C 
ATOM     23  O   UNL     1       1.719  12.195  21.067  0.00  0.00    +0.000 OA
ATOM     24  N   UNL     1       0.175  10.532  20.530  0.00  0.00    +0.000 N 
ATOM     25  H   UNL     1      -0.817  10.327  20.541  0.00  0.00    +0.000 HD
BRANCH  22  29
ATOM     26  C   UNL     1      -2.110  13.968  23.571  0.00  0.00    +0.000 A 
ATOM     27  C   UNL     1      -1.041  14.581  22.916  0.00  0.00    +0.000 A 
ATOM     28  C   UNL     1      -0.188  13.821  22.114  0.00  0.00    +0.000 A 
ATOM     29  C   UNL     1      -0.400  12.440  21.953  0.00  0.00    +0.000 A 
ATOM     30  C   UNL     1      -1.468  11.823  22.610  0.00  0.00    +0.000 A 
ATOM     31  C   UNL     1      -2.321  12.591  23.418  0.00  0.00    +0.000 A 
BRANCH  26  33
ATOM     32  N   UNL     1      -3.682  15.382  25.079  0.00  0.00    +0.000 NA
ATOM     33  C   UNL     1      -2.976  14.750  24.406  0.00  0.00    +0.000 C 
ENDBRANCH  26  33
ENDBRANCH  22  29
ENDBRANCH   1  24
TORSDOF 7
ENDMDL
MODEL 2
REMARK VINA RESULT:      -8.5      4.232     11.351
REMARK  Name = 
REMARK  7 active torsions:
REMARK  status: ('A' for Active; 'I' for Inactive)
REMARK    1  A    between atoms: C_2  and  C_3
REMARK    2  A    between atoms: C_6  and  C_7
REMARK    3  A    between atoms: N_9  and  C_10
REMARK    4  A    between atoms: C_14  and  C_15
REMARK    5  A    between atoms: C_19  and  C_20
REMARK    6  A    between atoms: C_20  and  N_21
REMARK    7  A    between atoms: C_24  and  O_25
REMARK                            x       y       z     vdW  Elec       q    Type
REMARK                         _______ _______ _______ _____ _____    ______ ____
ROOT
ATOM      1  C   UNL     1       1.060   9.307  18.771  0.00  0.00    +0.000 A 
ATOM      2  C   UNL     1       1.212   9.804  20.066  0.00  0.00    +0.000 A 
ATOM      3  C   UNL     1       0.225  10.599  20.644  0.00  0.00    +0.000 A 
ATOM      4  C   UNL     1      -0.926  10.918  19.927  0.00  0.00    +0.000 A 
ATOM      5  C   UNL     1      -1.117  10.452  18.615  0.00  0.00    +0.000 A 
ATOM      6  C   UNL     1      -0.095   9.652  18.052  0.00  0.00    +0.000 A 
ENDROOT
BRANCH   5   7
ATOM      7  C   UNL     1      -2.357  10.770  17.862  0.00  0.00    +0.000 A 
ATOM      8  C   UNL     1      -2.510  10.417  16.509  0.00  0.00    +0.000 A 
ATOM      9  C   UNL     1      -3.670  10.737  15.799  0.00  0.00    +0.000 A 
ATOM     10  C   UNL     1      -4.703  11.435  16.423  0.00  0.00    +0.000 A 
ATOM     11  C   UNL     1      -4.590  11.814  17.767  0.00  0.00    +0.000 A 
ATOM     12  C   UNL     1      -3.427  11.452  18.472  0.00  0.00    +0.000 A 
BRANCH  11  13
ATOM     13  C   UNL     1      -5.692  12.608  18.447  0.00  0.00    +0.000 C 
BRANCH  13  14
ATOM     14  N   UNL     1      -5.964  12.289  19.865  0.00  0.00    +0.000 NA
ATOM     15  C   UNL     1      -7.367  11.937  20.107  0.00  0.00    +0.000 C 
ATOM     16  C   UNL     1      -7.664  11.594  21.568  0.00  0.00    +0.000 C 
ATOM     17  C   UNL     1      -7.150  12.665  22.521  0.00  0.00    +0.000 C 
ATOM     18  C   UNL     1      -5.677  12.946  22.256  0.00  0.00    +0.000 C 
ATOM     19  C   UNL     1      -5.421  13.287  20.787  0.00  0.00    +0.000 C 
BRANCH  17  20
ATOM     20  O   UNL     1      -7.916  13.865  22.411  0.00  0.00    +0.000 OA
ATOM     21  H   UNL     1      -7.336  14.580  22.098  0.00  0.00    +0.000 HD
ENDBRANCH  17  20
ENDBRANCH  13  14
ENDBRANCH  11  13
ENDBRANCH   5   7
BRANCH   1  24
ATOM     22  C   UNL     1       2.445   7.245  18.672  0.00  0.00    +0.000 C 
ATOM     23  O   UNL     1       2.071   6.728  19.721  0.00  0.00    +0.000 OA
ATOM     24  N   UNL     1       2.015   8.455  18.154  0.00  0.00    +0.000 N 
ATOM     25  H   UNL     1       2.266   8.676  17.198  0.00  0.00    +0.000 HD
BRANCH  22  29
ATOM     26  C   UNL     1       5.148   5.118  16.113  0.00  0.00    +0.000 A 
ATOM     27  C   UNL     1       5.175   6.511  16.188  0.00  0.00    +0.000 A 
ATOM     28  C   UNL     1       4.302   7.178  17.049  0.00  0.00    +0.000 A 
ATOM     29  C   UNL     1       3.398   6.457  17.850  0.00  0.00    +0.000 A 
ATOM     30  C   UNL     1       3.368   5.062  17.775  0.00  0.00    +0.000 A 
ATOM     31  C   UNL     1       4.244   4.396  16.905  0.00  0.00    +0.000 A 
BRANCH  26  33
ATOM     32  N   UNL     1       6.759   3.889  14.487  0.00  0.00    +0.000 NA
ATOM     33  C   UNL     1       6.037   4.436  15.216  0.00  0.00    +0.000 C 
ENDBRANCH  26  33
ENDBRANCH  22  29
ENDBRANCH   1  24
TORSDOF 7
ENDMDL
MODEL 3
REMARK VINA RESULT:      -8.5      1.707      2.066
REMARK  Name = 
REMARK  7 active torsions:
REMARK  status: ('A' for Active; 'I' for Inactive)
REMARK    1  A    between atoms: C_2  and  C_3
REMARK    2  A    between atoms: C_6  and  C_7
REMARK    3  A    between atoms: N_9  and  C_10
REMARK    4  A    between atoms: C_14  and  C_15
REMARK    5  A    between atoms: C_19  and  C_20
REMARK    6  A    between atoms: C_20  and  N_21
REMARK    7  A    between atoms: C_24  and  O_25
REMARK                            x       y       z     vdW  Elec       q    Type
REMARK                         _______ _______ _______ _____ _____    ______ ____
ROOT
ATOM      1  C   UNL     1       0.410   9.916  19.605  0.00  0.00    +0.000 A 
ATOM      2  C   UNL     1       1.024  10.580  18.543  0.00  0.00    +0.000 A 
ATOM      3  C   UNL     1       2.062   9.981  17.833  0.00  0.00    +0.000 A 
ATOM      4  C   UNL     1       2.508   8.708  18.186  0.00  0.00    +0.000 A 
ATOM      5  C   UNL     1       1.929   8.007  19.256  0.00  0.00    +0.000 A 
ATOM      6  C   UNL     1       0.882   8.643  19.963  0.00  0.00    +0.000 A 
ENDROOT
BRANCH   5   7
ATOM      7  C   UNL     1       2.387   6.640  19.613  0.00  0.00    +0.000 A 
ATOM      8  C   UNL     1       1.703   5.857  20.561  0.00  0.00    +0.000 A 
ATOM      9  C   UNL     1       2.150   4.579  20.909  0.00  0.00    +0.000 A 
ATOM     10  C   UNL     1       3.305   4.059  20.328  0.00  0.00    +0.000 A 
ATOM     11  C   UNL     1       4.023   4.807  19.386  0.00  0.00    +0.000 A 
ATOM     12  C   UNL     1       3.536   6.078  19.026  0.00  0.00    +0.000 A 
BRANCH  11  13
ATOM     13  C   UNL     1       5.305   4.267  18.775  0.00  0.00    +0.000 C 
BRANCH  13  14
ATOM     14  N   UNL     1       5.702   4.824  17.464  0.00  0.00    +0.000 NA
ATOM     15  C   UNL     1       4.683   4.622  16.430  0.00  0.00    +0.000 C 
ATOM     16  C   UNL     1       5.074   5.200  15.069  0.00  0.00    +0.000 C 
ATOM     17  C   UNL     1       6.459   4.742  14.632  0.00  0.00    +0.000 C 
ATOM     18  C   UNL     1       7.481   5.028  15.724  0.00  0.00    +0.000 C 
ATOM     19  C   UNL     1       7.056   4.431  17.066  0.00  0.00    +0.000 C 
BRANCH  17  20
ATOM     20  O   UNL     1       6.461   3.354  14.295  0.00  0.00    +0.000 OA
ATOM     21  H   UNL     1       5.616   2.963  14.576  0.00  0.00    +0.000 HD
ENDBRANCH  17  20
ENDBRANCH  13  14
ENDBRANCH  11  13
ENDBRANCH   5   7
BRANCH   1  24
ATOM     22  C   UNL     1      -0.580  11.476  21.267  0.00  0.00    +0.000 C 
ATOM     23  O   UNL     1       0.450  12.051  21.608  0.00  0.00    +0.000 OA
ATOM     24  N   UNL     1      -0.683  10.464  20.329  0.00  0.00    +0.000 N 
ATOM     25  H   UNL     1      -1.609  10.206  20.011  0.00  0.00    +0.000 HD
BRANCH  22  29
ATOM     26  C   UNL     1      -4.192  13.114  22.895  0.00  0.00    +0.000 A 
ATOM     27  C   UNL     1      -3.898  13.231  21.537  0.00  0.00    +0.000 A 
ATOM     28  C   UNL     1      -2.728  12.666  21.027  0.00  0.00    +0.000 A 
ATOM     29  C   UNL     1      -1.843  11.971  21.871  0.00  0.00    +0.000 A 
ATOM     30  C   UNL     1      -2.134  11.855  23.233  0.00  0.00    +0.000 A 
ATOM     31  C   UNL     1      -3.309  12.429  23.742  0.00  0.00    +0.000 A 
BRANCH  26  33
ATOM     32  N   UNL     1      -6.357  14.197  23.840  0.00  0.00    +0.000 NA
ATOM     33  C   UNL     1      -5.388  13.709  23.418  0.00  0.00    +0.000 C 
ENDBRANCH  26  33
ENDBRANCH  22  29
ENDBRANCH   1  24
TORSDOF 7
ENDMDL
MODEL 4
REMARK VINA RESULT:      -8.4      0.969      1.109
REMARK  Name = 
REMARK  7 active torsions:
REMARK  status: ('A' for Active; 'I' for Inactive)
REMARK    1  A    between atoms: C_2  and  C_3
REMARK    2  A    between atoms: C_6  and  C_7
REMARK    3  A    between atoms: N_9  and  C_10
REMARK    4  A    between atoms: C_14  and  C_15
REMARK    5  A    between atoms: C_19  and  C_20
REMARK    6  A    between atoms: C_20  and  N_21
REMARK    7  A    between atoms: C_24  and  O_25
REMARK                            x       y       z     vdW  Elec       q    Type
REMARK                         _______ _______ _______ _____ _____    ______ ____
ROOT
ATOM      1  C   UNL     1       0.648   9.784  19.478  0.00  0.00    +0.000 A 
ATOM      2  C   UNL     1       1.288  10.332  18.366  0.00  0.00    +0.000 A 
ATOM      3  C   UNL     1       2.247   9.603  17.665  0.00  0.00    +0.000 A 
ATOM      4  C   UNL     1       2.587   8.316  18.078  0.00  0.00    +0.000 A 
ATOM      5  C   UNL     1       1.979   7.728  19.200  0.00  0.00    +0.000 A 
ATOM      6  C   UNL     1       1.013   8.495  19.895  0.00  0.00    +0.000 A 
ENDROOT
BRANCH   5   7
ATOM      7  C   UNL     1       2.322   6.347  19.622  0.00  0.00    +0.000 A 
ATOM      8  C   UNL     1       1.762   5.767  20.775  0.00  0.00    +0.000 A 
ATOM      9  C   UNL     1       2.104   4.473  21.179  0.00  0.00    +0.000 A 
ATOM     10  C   UNL     1       3.031   3.733  20.447  0.00  0.00    +0.000 A 
ATOM     11  C   UNL     1       3.619   4.274  19.297  0.00  0.00    +0.000 A 
ATOM     12  C   UNL     1       3.235   5.565  18.889  0.00  0.00    +0.000 A 
BRANCH  11  13
ATOM     13  C   UNL     1       4.659   3.492  18.513  0.00  0.00    +0.000 C 
BRANCH  13  14
ATOM     14  N   UNL     1       5.877   4.226  18.108  0.00  0.00    +0.000 NA
ATOM     15  C   UNL     1       6.263   5.259  19.073  0.00  0.00    +0.000 C 
ATOM     16  C   UNL     1       7.528   6.022  18.674  0.00  0.00    +0.000 C 
ATOM     17  C   UNL     1       7.451   6.545  17.246  0.00  0.00    +0.000 C 
ATOM     18  C   UNL     1       7.101   5.416  16.286  0.00  0.00    +0.000 C 
ATOM     19  C   UNL     1       5.831   4.681  16.717  0.00  0.00    +0.000 C 
BRANCH  17  20
ATOM     20  O   UNL     1       6.504   7.608  17.136  0.00  0.00    +0.000 OA
ATOM     21  H   UNL     1       5.735   7.402  17.696  0.00  0.00    +0.000 HD
ENDBRANCH  17  20
ENDBRANCH  13  14
ENDBRANCH  11  13
ENDBRANCH   5   7
BRANCH   1  24
ATOM     22  C   UNL     1      -0.142  11.390  21.203  0.00  0.00    +0.000 C 
ATOM     23  O   UNL     1       0.953  11.757  21.620  0.00  0.00    +0.000 OA
ATOM     24  N   UNL     1      -0.370  10.468  20.196  0.00  0.00    +0.000 N 
ATOM     25  H   UNL     1      -1.310  10.393  19.827  0.00  0.00    +0.000 HD
BRANCH  22  29
ATOM     26  C   UNL     1      -3.564  13.478  22.723  0.00  0.00    +0.000 A 
ATOM     27  C   UNL     1      -3.464  13.150  21.370  0.00  0.00    +0.000 A 
ATOM     28  C   UNL     1      -2.351  12.446  20.906  0.00  0.00    +0.000 A 
ATOM     29  C   UNL     1      -1.330  12.057  21.792  0.00  0.00    +0.000 A 
ATOM     30  C   UNL     1      -1.428  12.387  23.146  0.00  0.00    +0.000 A 
ATOM     31  C   UNL     1      -2.546  13.098  23.608  0.00  0.00    +0.000 A 
BRANCH  26  33
ATOM     32  N   UNL     1      -5.622  14.816  23.573  0.00  0.00    +0.000 NA
ATOM     33  C   UNL     1      -4.702  14.215  23.194  0.00  0.00    +0.000 C 
ENDBRANCH  26  33
ENDBRANCH  22  29
ENDBRANCH   1  24
TORSDOF 7
ENDMDL
MODEL 5
REMARK VINA RESULT:      -8.3      1.353      1.664
REMARK  Name = 
REMARK  7 active torsions:
REMARK  status: ('A' for Active; 'I' for Inactive)
REMARK    1  A    between atoms: C_2  and  C_3
REMARK    2  A    between atoms: C_6  and  C_7
REMARK    3  A    between atoms: N_9  and  C_10
REMARK    4  A    between atoms: C_14  and  C_15
REMARK    5  A    between atoms: C_19  and  C_20
REMARK    6  A    between atoms: C_20  and  N_21
REMARK    7  A    between atoms: C_24  and  O_25
REMARK                            x       y       z     vdW  Elec       q    Type
REMARK                         _______ _______ _______ _____ _____    ______ ____
ROOT
ATOM      1  C   UNL     1       0.623   9.792  19.418  0.00  0.00    +0.000 A 
ATOM      2  C   UNL     1       1.318  10.364  18.352  0.00  0.00    +0.000 A 
ATOM      3  C   UNL     1       2.328   9.661  17.699  0.00  0.00    +0.000 A 
ATOM      4  C   UNL     1       2.665   8.374  18.116  0.00  0.00    +0.000 A 
ATOM      5  C   UNL     1       2.003   7.762  19.193  0.00  0.00    +0.000 A 
ATOM      6  C   UNL     1       0.987   8.504  19.840  0.00  0.00    +0.000 A 
ENDROOT
BRANCH   5   7
ATOM      7  C   UNL     1       2.345   6.380  19.617  0.00  0.00    +0.000 A 
ATOM      8  C   UNL     1       1.483   5.624  20.433  0.00  0.00    +0.000 A 
ATOM      9  C   UNL     1       1.819   4.333  20.847  0.00  0.00    +0.000 A 
ATOM     10  C   UNL     1       3.036   3.770  20.467  0.00  0.00    +0.000 A 
ATOM     11  C   UNL     1       3.929   4.489  19.662  0.00  0.00    +0.000 A 
ATOM     12  C   UNL     1       3.556   5.776  19.229  0.00  0.00    +0.000 A 
BRANCH  11  13
ATOM     13  C   UNL     1       5.275   3.902  19.274  0.00  0.00    +0.000 C 
BRANCH  13  14
ATOM     14  N   UNL     1       5.748   4.175  17.899  0.00  0.00    +0.000 NA
ATOM     15  C   UNL     1       6.551   5.398  17.809  0.00  0.00    +0.000 C 
ATOM     16  C   UNL     1       7.057   5.690  16.395  0.00  0.00    +0.000 C 
ATOM     17  C   UNL     1       5.934   5.643  15.367  0.00  0.00    +0.000 C 
ATOM     18  C   UNL     1       5.172   4.329  15.474  0.00  0.00    +0.000 C 
ATOM     19  C   UNL     1       4.681   4.075  16.901  0.00  0.00    +0.000 C 
BRANCH  17  20
ATOM     20  O   UNL     1       5.046   6.750  15.521  0.00  0.00    +0.000 OA
ATOM     21  H   UNL     1       4.175   6.506  15.164  0.00  0.00    +0.000 HD
ENDBRANCH  17  20
ENDBRANCH  13  14
ENDBRANCH  11  13
ENDBRANCH   5   7
BRANCH   1  24
ATOM     22  C   UNL     1      -0.299  11.282  21.181  0.00  0.00    +0.000 C 
ATOM     23  O   UNL     1       0.757  11.580  21.733  0.00  0.00    +0.000 OA
ATOM     24  N   UNL     1      -0.445  10.450  20.085  0.00  0.00    +0.000 N 
ATOM     25  H   UNL     1      -1.344  10.434  19.619  0.00  0.00    +0.000 HD
BRANCH  22  29
ATOM     26  C   UNL     1      -3.899  12.967  22.787  0.00  0.00    +0.000 A 
ATOM     27  C   UNL     1      -3.047  12.200  23.582  0.00  0.00    +0.000 A 
ATOM     28  C   UNL     1      -1.868  11.685  23.042  0.00  0.00    +0.000 A 
ATOM     29  C   UNL     1      -1.525  11.939  21.701  0.00  0.00    +0.000 A 
ATOM     30  C   UNL     1      -2.378  12.704  20.902  0.00  0.00    +0.000 A 
ATOM     31  C   UNL     1      -3.565  13.217  21.448  0.00  0.00    +0.000 A 
BRANCH  26  33
ATOM     32  N   UNL     1      -6.103  13.900  23.796  0.00  0.00    +0.000 NA
ATOM     33  C   UNL     1      -5.118  13.483  23.341  0.00  0.00    +0.000 C 
ENDBRANCH  26  33
ENDBRANCH  22  29
ENDBRANCH   1  24
TORSDOF 7
ENDMDL
MODEL 6
REMARK VINA RESULT:      -8.3      3.606     10.999
REMARK  Name = 
REMARK  7 active torsions:
REMARK  status: ('A' for Active; 'I' for Inactive)
REMARK    1  A    between atoms: C_2  and  C_3
REMARK    2  A    between atoms: C_6  and  C_7
REMARK    3  A    between atoms: N_9  and  C_10
REMARK    4  A    between atoms: C_14  and  C_15
REMARK    5  A    between atoms: C_19  and  C_20
REMARK    6  A    between atoms: C_20  and  N_21
REMARK    7  A    between atoms: C_24  and  O_25
REMARK                            x       y       z     vdW  Elec       q    Type
REMARK                         _______ _______ _______ _____ _____    ______ ____
ROOT
ATOM      1  C   UNL     1       0.785  10.296  18.919  0.00  0.00    +0.000 A 
ATOM      2  C   UNL     1       1.529  11.476  18.908  0.00  0.00    +0.000 A 
ATOM      3  C   UNL     1       0.908  12.707  18.705  0.00  0.00    +0.000 A 
ATOM      4  C   UNL     1      -0.469  12.770  18.498  0.00  0.00    +0.000 A 
ATOM      5  C   UNL     1      -1.256  11.607  18.488  0.00  0.00    +0.000 A 
ATOM      6  C   UNL     1      -0.597  10.372  18.690  0.00  0.00    +0.000 A 
ENDROOT
BRANCH   5   7
ATOM      7  C   UNL     1      -2.727  11.679  18.295  0.00  0.00    +0.000 A 
ATOM      8  C   UNL     1      -3.328  11.341  17.069  0.00  0.00    +0.000 A 
ATOM      9  C   UNL     1      -4.710  11.431  16.886  0.00  0.00    +0.000 A 
ATOM     10  C   UNL     1      -5.526  11.878  17.923  0.00  0.00    +0.000 A 
ATOM     11  C   UNL     1      -4.970  12.234  19.158  0.00  0.00    +0.000 A 
ATOM     12  C   UNL     1      -3.579  12.104  19.332  0.00  0.00    +0.000 A 
BRANCH  11  13
ATOM     13  C   UNL     1      -5.844  12.760  20.284  0.00  0.00    +0.000 C 
BRANCH  13  14
ATOM     14  N   UNL     1      -5.180  13.594  21.308  0.00  0.00    +0.000 NA
ATOM     15  C   UNL     1      -5.096  12.930  22.612  0.00  0.00    +0.000 C 
ATOM     16  C   UNL     1      -4.402  13.776  23.682  0.00  0.00    +0.000 C 
ATOM     17  C   UNL     1      -4.989  15.179  23.769  0.00  0.00    +0.000 C 
ATOM     18  C   UNL     1      -4.999  15.835  22.395  0.00  0.00    +0.000 C 
ATOM     19  C   UNL     1      -5.703  14.961  21.356  0.00  0.00    +0.000 C 
BRANCH  17  20
ATOM     20  O   UNL     1      -6.305  15.154  24.321  0.00  0.00    +0.000 OA
ATOM     21  H   UNL     1      -6.675  14.260  24.211  0.00  0.00    +0.000 HD
ENDBRANCH  17  20
ENDBRANCH  13  14
ENDBRANCH  11  13
ENDBRANCH   5   7
BRANCH   1  24
ATOM     22  C   UNL     1       2.158   8.326  18.274  0.00  0.00    +0.000 C 
ATOM     23  O   UNL     1       2.485   8.697  17.150  0.00  0.00    +0.000 OA
ATOM     24  N   UNL     1       1.364   9.022  19.169  0.00  0.00    +0.000 N 
ATOM     25  H   UNL     1       1.323   8.688  20.124  0.00  0.00    +0.000 HD
BRANCH  22  29
ATOM     26  C   UNL     1       3.803   4.527  19.386  0.00  0.00    +0.000 A 
ATOM     27  C   UNL     1       4.260   5.205  18.256  0.00  0.00    +0.000 A 
ATOM     28  C   UNL     1       3.726   6.453  17.931  0.00  0.00    +0.000 A 
ATOM     29  C   UNL     1       2.734   7.039  18.738  0.00  0.00    +0.000 A 
ATOM     30  C   UNL     1       2.273   6.360  19.869  0.00  0.00    +0.000 A 
ATOM     31  C   UNL     1       2.809   5.104  20.189  0.00  0.00    +0.000 A 
BRANCH  26  33
ATOM     32  N   UNL     1       4.781   2.193  19.977  0.00  0.00    +0.000 NA
ATOM     33  C   UNL     1       4.343   3.237  19.709  0.00  0.00    +0.000 C 
ENDBRANCH  26  33
ENDBRANCH  22  29
ENDBRANCH   1  24
TORSDOF 7
ENDMDL
MODEL 7
REMARK VINA RESULT:      -8.2      3.894     11.080
REMARK  Name = 
REMARK  7 active torsions:
REMARK  status: ('A' for Active; 'I' for Inactive)
REMARK    1  A    between atoms: C_2  and  C_3
REMARK    2  A    between atoms: C_6  and  C_7
REMARK    3  A    between atoms: N_9  and  C_10
REMARK    4  A    between atoms: C_14  and  C_15
REMARK    5  A    between atoms: C_19  and  C_20
REMARK    6  A    between atoms: C_20  and  N_21
REMARK    7  A    between atoms: C_24  and  O_25
REMARK                            x       y       z     vdW  Elec       q    Type
REMARK                         _______ _______ _______ _____ _____    ______ ____
ROOT
ATOM      1  C   UNL     1       0.791  10.260  18.734  0.00  0.00    +0.000 A 
ATOM      2  C   UNL     1       1.528  11.445  18.735  0.00  0.00    +0.000 A 
ATOM      3  C   UNL     1       0.891  12.681  18.648  0.00  0.00    +0.000 A 
ATOM      4  C   UNL     1      -0.497  12.746  18.547  0.00  0.00    +0.000 A 
ATOM      5  C   UNL     1      -1.280  11.580  18.528  0.00  0.00    +0.000 A 
ATOM      6  C   UNL     1      -0.605  10.340  18.611  0.00  0.00    +0.000 A 
ENDROOT
BRANCH   5   7
ATOM      7  C   UNL     1      -2.761  11.653  18.448  0.00  0.00    +0.000 A 
ATOM      8  C   UNL     1      -3.479  10.992  17.434  0.00  0.00    +0.000 A 
ATOM      9  C   UNL     1      -4.871  11.081  17.351  0.00  0.00    +0.000 A 
ATOM     10  C   UNL     1      -5.580  11.849  18.273  0.00  0.00    +0.000 A 
ATOM     11  C   UNL     1      -4.906  12.530  19.294  0.00  0.00    +0.000 A 
ATOM     12  C   UNL     1      -3.507  12.400  19.379  0.00  0.00    +0.000 A 
BRANCH  11  13
ATOM     13  C   UNL     1      -5.664  13.402  20.281  0.00  0.00    +0.000 C 
BRANCH  13  14
ATOM     14  N   UNL     1      -6.007  12.789  21.582  0.00  0.00    +0.000 NA
ATOM     15  C   UNL     1      -7.452  12.734  21.819  0.00  0.00    +0.000 C 
ATOM     16  C   UNL     1      -7.825  12.094  23.158  0.00  0.00    +0.000 C 
ATOM     17  C   UNL     1      -7.058  12.713  24.319  0.00  0.00    +0.000 C 
ATOM     18  C   UNL     1      -5.562  12.691  24.037  0.00  0.00    +0.000 C 
ATOM     19  C   UNL     1      -5.230  13.342  22.693  0.00  0.00    +0.000 C 
BRANCH  17  20
ATOM     20  O   UNL     1      -7.500  14.046  24.577  0.00  0.00    +0.000 OA
ATOM     21  H   UNL     1      -8.242  14.014  25.206  0.00  0.00    +0.000 HD
ENDBRANCH  17  20
ENDBRANCH  13  14
ENDBRANCH  11  13
ENDBRANCH   5   7
BRANCH   1  24
ATOM     22  C   UNL     1       1.493   8.275  20.055  0.00  0.00    +0.000 C 
ATOM     23  O   UNL     1       1.085   8.639  21.155  0.00  0.00    +0.000 OA
ATOM     24  N   UNL     1       1.390   8.979  18.868  0.00  0.00    +0.000 N 
ATOM     25  H   UNL     1       1.603   8.489  18.007  0.00  0.00    +0.000 HD
BRANCH  22  29
ATOM     26  C   UNL     1       3.167   4.352  19.622  0.00  0.00    +0.000 A 
ATOM     27  C   UNL     1       3.507   5.380  18.742  0.00  0.00    +0.000 A 
ATOM     28  C   UNL     1       2.968   6.655  18.920  0.00  0.00    +0.000 A 
ATOM     29  C   UNL     1       2.089   6.917  19.988  0.00  0.00    +0.000 A 
ATOM     30  C   UNL     1       1.746   5.888  20.869  0.00  0.00    +0.000 A 
ATOM     31  C   UNL     1       2.287   4.607  20.682  0.00  0.00    +0.000 A 
BRANCH  26  33
ATOM     32  N   UNL     1       4.154   1.975  19.273  0.00  0.00    +0.000 NA
ATOM     33  C   UNL     1       3.711   3.039  19.426  0.00  0.00    +0.000 C 
ENDBRANCH  26  33
ENDBRANCH  22  29
ENDBRANCH   1  24
TORSDOF 7
ENDMDL
MODEL 8
REMARK VINA RESULT:      -8.2      1.743      2.191
REMARK  Name = 
REMARK  7 active torsions:
REMARK  status: ('A' for Active; 'I' for Inactive)
REMARK    1  A    between atoms: C_2  and  C_3
REMARK    2  A    between atoms: C_6  and  C_7
REMARK    3  A    between atoms: N_9  and  C_10
REMARK    4  A    between atoms: C_14  and  C_15
REMARK    5  A    between atoms: C_19  and  C_20
REMARK    6  A    between atoms: C_20  and  N_21
REMARK    7  A    between atoms: C_24  and  O_25
REMARK                            x       y       z     vdW  Elec       q    Type
REMARK                         _______ _______ _______ _____ _____    ______ ____
ROOT
ATOM      1  C   UNL     1       0.105  10.586  19.665  0.00  0.00    +0.000 A 
ATOM      2  C   UNL     1       0.867  11.348  18.779  0.00  0.00    +0.000 A 
ATOM      3  C   UNL     1       1.942  10.784  18.095  0.00  0.00    +0.000 A 
ATOM      4  C   UNL     1       2.275   9.446  18.299  0.00  0.00    +0.000 A 
ATOM      5  C   UNL     1       1.546   8.643  19.191  0.00  0.00    +0.000 A 
ATOM      6  C   UNL     1       0.464   9.246  19.876  0.00  0.00    +0.000 A 
ENDROOT
BRANCH   5   7
ATOM      7  C   UNL     1       1.886   7.211  19.387  0.00  0.00    +0.000 A 
ATOM      8  C   UNL     1       1.718   6.576  20.630  0.00  0.00    +0.000 A 
ATOM      9  C   UNL     1       2.060   5.233  20.815  0.00  0.00    +0.000 A 
ATOM     10  C   UNL     1       2.594   4.496  19.760  0.00  0.00    +0.000 A 
ATOM     11  C   UNL     1       2.787   5.090  18.506  0.00  0.00    +0.000 A 
ATOM     12  C   UNL     1       2.405   6.434  18.334  0.00  0.00    +0.000 A 
BRANCH  11  13
ATOM     13  C   UNL     1       3.405   4.308  17.360  0.00  0.00    +0.000 C 
BRANCH  13  14
ATOM     14  N   UNL     1       4.638   4.865  16.763  0.00  0.00    +0.000 NA
ATOM     15  C   UNL     1       5.328   3.909  15.892  0.00  0.00    +0.000 C 
ATOM     16  C   UNL     1       6.601   4.473  15.259  0.00  0.00    +0.000 C 
ATOM     17  C   UNL     1       7.523   5.101  16.295  0.00  0.00    +0.000 C 
ATOM     18  C   UNL     1       6.763   6.123  17.131  0.00  0.00    +0.000 C 
ATOM     19  C   UNL     1       5.500   5.520  17.748  0.00  0.00    +0.000 C 
BRANCH  17  20
ATOM     20  O   UNL     1       8.111   4.106  17.133  0.00  0.00    +0.000 OA
ATOM     21  H   UNL     1       7.668   3.255  16.968  0.00  0.00    +0.000 HD
ENDBRANCH  17  20
ENDBRANCH  13  14
ENDBRANCH  11  13
ENDBRANCH   5   7
BRANCH   1  24
ATOM     22  C   UNL     1      -0.985  11.750  21.572  0.00  0.00    +0.000 C 
ATOM     23  O   UNL     1       0.021  11.980  22.239  0.00  0.00    +0.000 OA
ATOM     24  N   UNL     1      -1.028  11.103  20.350  0.00  0.00    +0.000 N 
ATOM     25  H   UNL     1      -1.893  11.141  19.825  0.00  0.00    +0.000 HD
BRANCH  22  29
ATOM     26  C   UNL     1      -4.615  13.515  23.015  0.00  0.00    +0.000 A 
ATOM     27  C   UNL     1      -4.158  13.766  21.721  0.00  0.00    +0.000 A 
ATOM     28  C   UNL     1      -2.987  13.158  21.267  0.00  0.00    +0.000 A 
ATOM     29  C   UNL     1      -2.264  12.285  22.101  0.00  0.00    +0.000 A 
ATOM     30  C   UNL     1      -2.719  12.034  23.398  0.00  0.00    +0.000 A 
ATOM     31  C   UNL     1      -3.895  12.651  23.852  0.00  0.00    +0.000 A 
BRANCH  26  33
ATOM     32  N   UNL     1      -6.779  14.672  23.868  0.00  0.00    +0.000 NA
ATOM     33  C   UNL     1      -5.812  14.153  23.484  0.00  0.00    +0.000 C 
ENDBRANCH  26  33
ENDBRANCH  22  29
ENDBRANCH   1  24
TORSDOF 7
ENDMDL
MODEL 9
REMARK VINA RESULT:      -8.2      1.085      1.155
REMARK  Name = 
REMARK  7 active torsions:
REMARK  status: ('A' for Active; 'I' for Inactive)
REMARK    1  A    between atoms: C_2  and  C_3
REMARK    2  A    between atoms: C_6  and  C_7
REMARK    3  A    between atoms: N_9  and  C_10
REMARK    4  A    between atoms: C_14  and  C_15
REMARK    5  A    between atoms: C_19  and  C_20
REMARK    6  A    between atoms: C_20  and  N_21
REMARK    7  A    between atoms: C_24  and  O_25
REMARK                            x       y       z     vdW  Elec       q    Type
REMARK                         _______ _______ _______ _____ _____    ______ ____
ROOT
ATOM      1  C   UNL     1       1.238   9.909  19.399  0.00  0.00    +0.000 A 
ATOM      2  C   UNL     1       1.712  10.253  18.133  0.00  0.00    +0.000 A 
ATOM      3  C   UNL     1       2.402   9.326  17.355  0.00  0.00    +0.000 A 
ATOM      4  C   UNL     1       2.637   8.041  17.841  0.00  0.00    +0.000 A 
ATOM      5  C   UNL     1       2.191   7.654  19.115  0.00  0.00    +0.000 A 
ATOM      6  C   UNL     1       1.499   8.618  19.885  0.00  0.00    +0.000 A 
ENDROOT
BRANCH   5   7
ATOM      7  C   UNL     1       2.419   6.276  19.620  0.00  0.00    +0.000 A 
ATOM      8  C   UNL     1       1.630   5.727  20.647  0.00  0.00    +0.000 A 
ATOM      9  C   UNL     1       1.861   4.437  21.134  0.00  0.00    +0.000 A 
ATOM     10  C   UNL     1       2.902   3.670  20.614  0.00  0.00    +0.000 A 
ATOM     11  C   UNL     1       3.719   4.179  19.597  0.00  0.00    +0.000 A 
ATOM     12  C   UNL     1       3.447   5.468  19.099  0.00  0.00    +0.000 A 
BRANCH  11  13
ATOM     13  C   UNL     1       4.880   3.368  19.050  0.00  0.00    +0.000 C 
BRANCH  13  14
ATOM     14  N   UNL     1       6.002   4.128  18.457  0.00  0.00    +0.000 NA
ATOM     15  C   UNL     1       6.387   5.290  19.264  0.00  0.00    +0.000 C 
ATOM     16  C   UNL     1       7.553   6.082  18.670  0.00  0.00    +0.000 C 
ATOM     17  C   UNL     1       7.319   6.430  17.205  0.00  0.00    +0.000 C 
ATOM     18  C   UNL     1       6.977   5.176  16.412  0.00  0.00    +0.000 C 
ATOM     19  C   UNL     1       5.806   4.414  17.035  0.00  0.00    +0.000 C 
BRANCH  17  20
ATOM     20  O   UNL     1       6.288   7.408  17.066  0.00  0.00    +0.000 OA
ATOM     21  H   UNL     1       5.425   6.971  17.171  0.00  0.00    +0.000 HD
ENDBRANCH  17  20
ENDBRANCH  13  14
ENDBRANCH  11  13
ENDBRANCH   5   7
BRANCH   1  24
ATOM     22  C   UNL     1      -0.847  11.113  20.021  0.00  0.00    +0.000 C 
ATOM     23  O   UNL     1      -1.579  10.667  19.141  0.00  0.00    +0.000 OA
ATOM     24  N   UNL     1       0.489  10.802  20.211  0.00  0.00    +0.000 N 
ATOM     25  H   UNL     1       0.924  11.096  21.078  0.00  0.00    +0.000 HD
BRANCH  22  29
ATOM     26  C   UNL     1      -2.637  13.547  23.062  0.00  0.00    +0.000 A 
ATOM     27  C   UNL     1      -1.405  12.925  23.270  0.00  0.00    +0.000 A 
ATOM     28  C   UNL     1      -0.832  12.159  22.255  0.00  0.00    +0.000 A 
ATOM     29  C   UNL     1      -1.481  12.014  21.015  0.00  0.00    +0.000 A 
ATOM     30  C   UNL     1      -2.715  12.634  20.805  0.00  0.00    +0.000 A 
ATOM     31  C   UNL     1      -3.290  13.399  21.831  0.00  0.00    +0.000 A 
BRANCH  26  33
ATOM     32  N   UNL     1      -3.714  14.952  24.962  0.00  0.00    +0.000 NA
ATOM     33  C   UNL     1      -3.230  14.322  24.114  0.00  0.00    +0.000 C 
ENDBRANCH  26  33
ENDBRANCH  22  29
ENDBRANCH   1  24
TORSDOF 7
ENDMDL
