MODEL 1
REMARK VINA RESULT:      -8.8      0.000      0.000
REMARK  Name = 
REMARK  10 active torsions:
REMARK  status: ('A' for Active; 'I' for Inactive)
REMARK    1  A    between atoms: C_1  and  C_2
REMARK    2  A    between atoms: C_5  and  C_6
REMARK    3  A    between atoms: C_7  and  S_8
REMARK    4  A    between atoms: S_8  and  N_11
REMARK    5  A    between atoms: C_15  and  C_16
REMARK    6  A    between atoms: C_16  and  N_17
REMARK    7  A    between atoms: C_18  and  C_20
REMARK    8  A    between atoms: N_22  and  C_23
REMARK    9  A    between atoms: C_23  and  C_24
REMARK   10  A    between atoms: C_24  and  C_25
REMARK                            x       y       z     vdW  Elec       q    Type
REMARK                         _______ _______ _______ _____ _____    ______ ____
ROOT
ATOM      1  C   UNL     1       2.742   6.469  19.472  0.00  0.00    +0.000 C 
ENDROOT
BRANCH   1   6
ATOM      2  N   UNL     1       3.072   3.995  19.347  0.00  0.00    +0.000 NA
ATOM      3  C   UNL     1       2.912   3.290  20.638  0.00  0.00    +0.000 C 
ATOM      4  C   UNL     1       1.441   3.450  20.976  0.00  0.00    +0.000 C 
ATOM      5  C   UNL     1       1.039   4.793  20.390  0.00  0.00    +0.000 C 
ATOM      6  C   UNL     1       2.053   5.094  19.282  0.00  0.00    +0.000 C 
BRANCH   2   7
ATOM      7  S   UNL     1       3.336   3.053  17.945  0.00  0.00    +0.000 S 
ATOM      8  O   UNL     1       2.196   3.224  17.068  0.00  0.00    +0.000 OA
ATOM      9  O   UNL     1       3.785   1.743  18.369  0.00  0.00    +0.000 OA
BRANCH   7  16
ATOM     10  C   UNL     1       6.018   3.961  13.551  0.00  0.00    +0.000 C 
ATOM     11  C   UNL     1       5.917   4.192  15.029  0.00  0.00    +0.000 A 
ATOM     12  C   UNL     1       6.980   4.741  15.750  0.00  0.00    +0.000 A 
ATOM     13  C   UNL     1       6.892   4.882  17.139  0.00  0.00    +0.000 A 
ATOM     14  C   UNL     1       5.757   4.449  17.844  0.00  0.00    +0.000 A 
ATOM     15  C   UNL     1       5.756   4.576  19.343  0.00  0.00    +0.000 C 
ATOM     16  C   UNL     1       4.696   3.865  17.114  0.00  0.00    +0.000 A 
ATOM     17  C   UNL     1       4.777   3.768  15.717  0.00  0.00    +0.000 A 
ENDBRANCH   7  16
ENDBRANCH   2   7
ENDBRANCH   1   6
BRANCH   1  18
ATOM     18  N   UNL     1       2.170   7.273  20.545  0.00  0.00    +0.000 N 
ATOM     19  C   UNL     1       1.551   8.492  20.358  0.00  0.00    +0.000 C 
ATOM     20  O   UNL     1       1.369   9.053  19.289  0.00  0.00    +0.000 OA
ATOM     21  H   UNL     1       2.241   6.943  21.504  0.00  0.00    +0.000 HD
BRANCH  19  22
ATOM     22  C   UNL     1       1.065   9.148  21.680  0.00  0.00    +0.000 C 
ATOM     23  O   UNL     1       1.869   9.337  22.586  0.00  0.00    +0.000 OA
ATOM     24  N   UNL     1      -0.279   9.450  21.721  0.00  0.00    +0.000 N 
ATOM     25  H   UNL     1      -0.853   9.121  20.947  0.00  0.00    +0.000 HD
BRANCH  24  26
ATOM     26  C   UNL     1      -0.893   9.977  22.926  0.00  0.00    +0.000 C 
BRANCH  26  27
ATOM     27  C   UNL     1      -0.945  11.509  22.992  0.00  0.00    +0.000 C 
BRANCH  27  28
ATOM     28  C   UNL     1      -2.239  12.117  22.498  0.00  0.00    +0.000 A 
ATOM     29  C   UNL     1      -3.312  12.344  23.371  0.00  0.00    +0.000 A 
ATOM     30  C   UNL     1      -4.502  12.904  22.902  0.00  0.00    +0.000 A 
ATOM     31  C   UNL     1      -4.627  13.258  21.561  0.00  0.00    +0.000 A 
ATOM     32  C   UNL     1      -3.558  13.062  20.689  0.00  0.00    +0.000 A 
ATOM     33  C   UNL     1      -2.369  12.498  21.155  0.00  0.00    +0.000 A 
ENDBRANCH  27  28
ENDBRANCH  26  27
ENDBRANCH  24  26
ENDBRANCH  19  22
ENDBRANCH   1  18
TORSDOF 8
ENDMDL
MODEL 2
REMARK VINA RESULT:      -8.8      4.829      8.587
REMARK  Name = 
REMARK  10 active torsions:
REMARK  status: ('A' for Active; 'I' for Inactive)
REMARK    1  A    between atoms: C_1  and  C_2
REMARK    2  A    between atoms: C_5  and  C_6
REMARK    3  A    between atoms: C_7  and  S_8
REMARK    4  A    between atoms: S_8  and  N_11
REMARK    5  A    between atoms: C_15  and  C_16
REMARK    6  A    between atoms: C_16  and  N_17
REMARK    7  A    between atoms: C_18  and  C_20
REMARK    8  A    between atoms: N_22  and  C_23
REMARK    9  A    between atoms: C_23  and  C_24
REMARK   10  A    between atoms: C_24  and  C_25
REMARK                            x       y       z     vdW  Elec       q    Type
REMARK                         _______ _______ _______ _____ _____    ______ ____
ROOT
ATOM      1  C   UNL     1       5.679   3.836  17.645  0.00  0.00    +0.000 C 
ENDROOT
BRANCH   1   6
ATOM      2  N   UNL     1       3.560   2.647  18.228  0.00  0.00    +0.000 NA
ATOM      3  C   UNL     1       3.748   1.417  19.029  0.00  0.00    +0.000 C 
ATOM      4  C   UNL     1       4.274   1.913  20.364  0.00  0.00    +0.000 C 
ATOM      5  C   UNL     1       5.082   3.157  20.039  0.00  0.00    +0.000 C 
ATOM      6  C   UNL     1       4.553   3.670  18.696  0.00  0.00    +0.000 C 
BRANCH   2   7
ATOM      7  S   UNL     1       1.961   3.161  17.909  0.00  0.00    +0.000 S 
ATOM      8  O   UNL     1       1.057   2.299  18.644  0.00  0.00    +0.000 OA
ATOM      9  O   UNL     1       1.836   3.359  16.480  0.00  0.00    +0.000 OA
BRANCH   7  16
ATOM     10  C   UNL     1       2.715   8.331  17.749  0.00  0.00    +0.000 C 
ATOM     11  C   UNL     1       2.273   7.153  18.564  0.00  0.00    +0.000 A 
ATOM     12  C   UNL     1       2.077   7.259  19.943  0.00  0.00    +0.000 A 
ATOM     13  C   UNL     1       1.734   6.131  20.696  0.00  0.00    +0.000 A 
ATOM     14  C   UNL     1       1.610   4.867  20.096  0.00  0.00    +0.000 A 
ATOM     15  C   UNL     1       1.298   3.687  20.977  0.00  0.00    +0.000 C 
ATOM     16  C   UNL     1       1.840   4.758  18.705  0.00  0.00    +0.000 A 
ATOM     17  C   UNL     1       2.141   5.903  17.953  0.00  0.00    +0.000 A 
ENDBRANCH   7  16
ENDBRANCH   2   7
ENDBRANCH   1   6
BRANCH   1  18
ATOM     18  N   UNL     1       6.086   5.219  17.427  0.00  0.00    +0.000 N 
ATOM     19  C   UNL     1       7.123   5.839  18.094  0.00  0.00    +0.000 C 
ATOM     20  O   UNL     1       7.856   5.327  18.925  0.00  0.00    +0.000 OA
ATOM     21  H   UNL     1       5.571   5.788  16.761  0.00  0.00    +0.000 HD
BRANCH  19  22
ATOM     22  C   UNL     1       7.315   7.326  17.691  0.00  0.00    +0.000 C 
ATOM     23  O   UNL     1       6.596   7.810  16.823  0.00  0.00    +0.000 OA
ATOM     24  N   UNL     1       8.325   7.986  18.356  0.00  0.00    +0.000 N 
ATOM     25  H   UNL     1       8.926   7.427  18.960  0.00  0.00    +0.000 HD
BRANCH  24  26
ATOM     26  C   UNL     1       8.683   9.351  18.016  0.00  0.00    +0.000 C 
BRANCH  26  27
ATOM     27  C   UNL     1       9.002  10.241  19.223  0.00  0.00    +0.000 C 
BRANCH  27  28
ATOM     28  C   UNL     1      10.168  11.183  19.022  0.00  0.00    +0.000 A 
ATOM     29  C   UNL     1      10.448  11.730  17.762  0.00  0.00    +0.000 A 
ATOM     30  C   UNL     1      11.529  12.597  17.589  0.00  0.00    +0.000 A 
ATOM     31  C   UNL     1      12.333  12.937  18.674  0.00  0.00    +0.000 A 
ATOM     32  C   UNL     1      12.049  12.421  19.936  0.00  0.00    +0.000 A 
ATOM     33  C   UNL     1      10.971  11.551  20.110  0.00  0.00    +0.000 A 
ENDBRANCH  27  28
ENDBRANCH  26  27
ENDBRANCH  24  26
ENDBRANCH  19  22
ENDBRANCH   1  18
TORSDOF 8
ENDMDL
MODEL 3
REMARK VINA RESULT:      -8.7      4.070      8.597
REMARK  Name = 
REMARK  10 active torsions:
REMARK  status: ('A' for Active; 'I' for Inactive)
REMARK    1  A    between atoms: C_1  and  C_2
REMARK    2  A    between atoms: C_5  and  C_6
REMARK    3  A    between atoms: C_7  and  S_8
REMARK    4  A    between atoms: S_8  and  N_11
REMARK    5  A    between atoms: C_15  and  C_16
REMARK    6  A    between atoms: C_16  and  N_17
REMARK    7  A    between atoms: C_18  and  C_20
REMARK    8  A    between atoms: N_22  and  C_23
REMARK    9  A    between atoms: C_23  and  C_24
REMARK   10  A    between atoms: C_24  and  C_25
REMARK                            x       y       z     vdW  Elec       q    Type
REMARK                         _______ _______ _______ _____ _____    ______ ____
ROOT
ATOM      1  C   UNL     1       4.371   3.493  16.872  0.00  0.00    +0.000 C 
ENDROOT
BRANCH   1   6
ATOM      2  N   UNL     1       2.787   4.540  18.496  0.00  0.00    +0.000 NA
ATOM      3  C   UNL     1       1.357   4.314  18.190  0.00  0.00    +0.000 C 
ATOM      4  C   UNL     1       1.161   2.822  18.391  0.00  0.00    +0.000 C 
ATOM      5  C   UNL     1       2.488   2.188  18.013  0.00  0.00    +0.000 C 
ATOM      6  C   UNL     1       3.544   3.287  18.166  0.00  0.00    +0.000 C 
BRANCH   2   7
ATOM      7  S   UNL     1       3.178   5.362  19.943  0.00  0.00    +0.000 S 
ATOM      8  O   UNL     1       4.607   5.601  19.953  0.00  0.00    +0.000 OA
ATOM      9  O   UNL     1       2.509   4.684  21.033  0.00  0.00    +0.000 OA
BRANCH   7  16
ATOM     10  C   UNL     1      -0.225   8.966  21.603  0.00  0.00    +0.000 C 
ATOM     11  C   UNL     1       0.784   8.579  20.565  0.00  0.00    +0.000 A 
ATOM     12  C   UNL     1       0.904   9.293  19.370  0.00  0.00    +0.000 A 
ATOM     13  C   UNL     1       1.803   8.872  18.384  0.00  0.00    +0.000 A 
ATOM     14  C   UNL     1       2.579   7.714  18.554  0.00  0.00    +0.000 A 
ATOM     15  C   UNL     1       3.480   7.288  17.427  0.00  0.00    +0.000 C 
ATOM     16  C   UNL     1       2.433   6.977  19.752  0.00  0.00    +0.000 A 
ATOM     17  C   UNL     1       1.560   7.431  20.751  0.00  0.00    +0.000 A 
ENDBRANCH   7  16
ENDBRANCH   2   7
ENDBRANCH   1   6
BRANCH   1  18
ATOM     18  N   UNL     1       5.416   4.502  16.992  0.00  0.00    +0.000 N 
ATOM     19  C   UNL     1       5.997   5.152  15.922  0.00  0.00    +0.000 C 
ATOM     20  O   UNL     1       5.710   5.003  14.745  0.00  0.00    +0.000 OA
ATOM     21  H   UNL     1       5.769   4.742  17.914  0.00  0.00    +0.000 HD
BRANCH  19  22
ATOM     22  C   UNL     1       7.109   6.153  16.337  0.00  0.00    +0.000 C 
ATOM     23  O   UNL     1       8.001   6.422  15.541  0.00  0.00    +0.000 OA
ATOM     24  N   UNL     1       6.997   6.652  17.617  0.00  0.00    +0.000 N 
ATOM     25  H   UNL     1       6.278   6.246  18.213  0.00  0.00    +0.000 HD
BRANCH  24  26
ATOM     26  C   UNL     1       8.015   7.523  18.175  0.00  0.00    +0.000 C 
BRANCH  26  27
ATOM     27  C   UNL     1       7.929   8.981  17.704  0.00  0.00    +0.000 C 
BRANCH  27  28
ATOM     28  C   UNL     1       8.872   9.928  18.409  0.00  0.00    +0.000 A 
ATOM     29  C   UNL     1       9.701  10.797  17.686  0.00  0.00    +0.000 A 
ATOM     30  C   UNL     1      10.570  11.667  18.350  0.00  0.00    +0.000 A 
ATOM     31  C   UNL     1      10.609  11.687  19.742  0.00  0.00    +0.000 A 
ATOM     32  C   UNL     1       9.771  10.847  20.472  0.00  0.00    +0.000 A 
ATOM     33  C   UNL     1       8.905   9.975  19.810  0.00  0.00    +0.000 A 
ENDBRANCH  27  28
ENDBRANCH  26  27
ENDBRANCH  24  26
ENDBRANCH  19  22
ENDBRANCH   1  18
TORSDOF 8
ENDMDL
MODEL 4
REMARK VINA RESULT:      -8.5      2.308      2.814
REMARK  Name = 
REMARK  10 active torsions:
REMARK  status: ('A' for Active; 'I' for Inactive)
REMARK    1  A    between atoms: C_1  and  C_2
REMARK    2  A    between atoms: C_5  and  C_6
REMARK    3  A    between atoms: C_7  and  S_8
REMARK    4  A    between atoms: S_8  and  N_11
REMARK    5  A    between atoms: C_15  and  C_16
REMARK    6  A    between atoms: C_16  and  N_17
REMARK    7  A    between atoms: C_18  and  C_20
REMARK    8  A    between atoms: N_22  and  C_23
REMARK    9  A    between atoms: C_23  and  C_24
REMARK   10  A    between atoms: C_24  and  C_25
REMARK                            x       y       z     vdW  Elec       q    Type
REMARK                         _______ _______ _______ _____ _____    ______ ____
ROOT
ATOM      1  C   UNL     1       2.920   6.287  19.683  0.00  0.00    +0.000 C 
ENDROOT
BRANCH   1   6
ATOM      2  N   UNL     1       3.041   3.815  19.341  0.00  0.00    +0.000 NA
ATOM      3  C   UNL     1       2.766   3.015  20.555  0.00  0.00    +0.000 C 
ATOM      4  C   UNL     1       1.301   3.276  20.855  0.00  0.00    +0.000 C 
ATOM      5  C   UNL     1       1.042   4.696  20.383  0.00  0.00    +0.000 C 
ATOM      6  C   UNL     1       2.124   5.003  19.342  0.00  0.00    +0.000 C 
BRANCH   2   7
ATOM      7  S   UNL     1       3.281   2.982  17.868  0.00  0.00    +0.000 S 
ATOM      8  O   UNL     1       2.161   3.275  16.997  0.00  0.00    +0.000 OA
ATOM      9  O   UNL     1       3.669   1.624  18.184  0.00  0.00    +0.000 OA
BRANCH   7  16
ATOM     10  C   UNL     1       6.087   4.086  13.597  0.00  0.00    +0.000 C 
ATOM     11  C   UNL     1       5.962   4.222  15.085  0.00  0.00    +0.000 A 
ATOM     12  C   UNL     1       7.026   4.686  15.862  0.00  0.00    +0.000 A 
ATOM     13  C   UNL     1       6.913   4.738  17.255  0.00  0.00    +0.000 A 
ATOM     14  C   UNL     1       5.748   4.298  17.907  0.00  0.00    +0.000 A 
ATOM     15  C   UNL     1       5.719   4.326  19.411  0.00  0.00    +0.000 C 
ATOM     16  C   UNL     1       4.685   3.800  17.119  0.00  0.00    +0.000 A 
ATOM     17  C   UNL     1       4.793   3.793  15.720  0.00  0.00    +0.000 A 
ENDBRANCH   7  16
ENDBRANCH   2   7
ENDBRANCH   1   6
BRANCH   1  18
ATOM     18  N   UNL     1       2.235   7.522  19.319  0.00  0.00    +0.000 N 
ATOM     19  C   UNL     1       2.483   8.238  18.166  0.00  0.00    +0.000 C 
ATOM     20  O   UNL     1       3.274   7.938  17.285  0.00  0.00    +0.000 OA
ATOM     21  H   UNL     1       1.541   7.909  19.952  0.00  0.00    +0.000 HD
BRANCH  19  22
ATOM     22  C   UNL     1       1.634   9.533  18.049  0.00  0.00    +0.000 C 
ATOM     23  O   UNL     1       2.202  10.615  17.941  0.00  0.00    +0.000 OA
ATOM     24  N   UNL     1       0.270   9.343  18.097  0.00  0.00    +0.000 N 
ATOM     25  H   UNL     1      -0.061   8.406  18.317  0.00  0.00    +0.000 HD
BRANCH  24  26
ATOM     26  C   UNL     1      -0.646  10.470  18.096  0.00  0.00    +0.000 C 
BRANCH  26  27
ATOM     27  C   UNL     1      -1.896  10.268  17.229  0.00  0.00    +0.000 C 
BRANCH  27  28
ATOM     28  C   UNL     1      -3.128  10.991  17.723  0.00  0.00    +0.000 A 
ATOM     29  C   UNL     1      -4.331  10.947  17.005  0.00  0.00    +0.000 A 
ATOM     30  C   UNL     1      -5.462  11.622  17.471  0.00  0.00    +0.000 A 
ATOM     31  C   UNL     1      -5.407  12.334  18.666  0.00  0.00    +0.000 A 
ATOM     32  C   UNL     1      -4.226  12.364  19.403  0.00  0.00    +0.000 A 
ATOM     33  C   UNL     1      -3.093  11.694  18.936  0.00  0.00    +0.000 A 
ENDBRANCH  27  28
ENDBRANCH  26  27
ENDBRANCH  24  26
ENDBRANCH  19  22
ENDBRANCH   1  18
TORSDOF 8
ENDMDL
MODEL 5
REMARK VINA RESULT:      -8.4      1.469      1.877
REMARK  Name = 
REMARK  10 active torsions:
REMARK  status: ('A' for Active; 'I' for Inactive)
REMARK    1  A    between atoms: C_1  and  C_2
REMARK    2  A    between atoms: C_5  and  C_6
REMARK    3  A    between atoms: C_7  and  S_8
REMARK    4  A    between atoms: S_8  and  N_11
REMARK    5  A    between atoms: C_15  and  C_16
REMARK    6  A    between atoms: C_16  and  N_17
REMARK    7  A    between atoms: C_18  and  C_20
REMARK    8  A    between atoms: N_22  and  C_23
REMARK    9  A    between atoms: C_23  and  C_24
REMARK   10  A    between atoms: C_24  and  C_25
REMARK                            x       y       z     vdW  Elec       q    Type
REMARK                         _______ _______ _______ _____ _____    ______ ____
ROOT
ATOM      1  C   UNL     1       2.862   6.054  19.818  0.00  0.00    +0.000 C 
ENDROOT
BRANCH   1   6
ATOM      2  N   UNL     1       2.989   3.601  19.364  0.00  0.00    +0.000 NA
ATOM      3  C   UNL     1       2.663   2.745  20.526  0.00  0.00    +0.000 C 
ATOM      4  C   UNL     1       1.188   2.999  20.780  0.00  0.00    +0.000 C 
ATOM      5  C   UNL     1       0.953   4.441  20.366  0.00  0.00    +0.000 C 
ATOM      6  C   UNL     1       2.076   4.791  19.385  0.00  0.00    +0.000 C 
BRANCH   2   7
ATOM      7  S   UNL     1       3.286   2.837  17.864  0.00  0.00    +0.000 S 
ATOM      8  O   UNL     1       2.178   3.136  16.980  0.00  0.00    +0.000 OA
ATOM      9  O   UNL     1       3.704   1.477  18.133  0.00  0.00    +0.000 OA
BRANCH   7  16
ATOM     10  C   UNL     1       6.158   4.191  13.711  0.00  0.00    +0.000 C 
ATOM     11  C   UNL     1       5.994   4.263  15.199  0.00  0.00    +0.000 A 
ATOM     12  C   UNL     1       7.026   4.725  16.020  0.00  0.00    +0.000 A 
ATOM     13  C   UNL     1       6.878   4.717  17.411  0.00  0.00    +0.000 A 
ATOM     14  C   UNL     1       5.712   4.219  18.016  0.00  0.00    +0.000 A 
ATOM     15  C   UNL     1       5.647   4.185  19.519  0.00  0.00    +0.000 C 
ATOM     16  C   UNL     1       4.682   3.724  17.182  0.00  0.00    +0.000 A 
ATOM     17  C   UNL     1       4.823   3.776  15.788  0.00  0.00    +0.000 A 
ENDBRANCH   7  16
ENDBRANCH   2   7
ENDBRANCH   1   6
BRANCH   1  18
ATOM     18  N   UNL     1       2.216   7.308  19.450  0.00  0.00    +0.000 N 
ATOM     19  C   UNL     1       2.546   8.056  18.338  0.00  0.00    +0.000 C 
ATOM     20  O   UNL     1       3.388   7.773  17.501  0.00  0.00    +0.000 OA
ATOM     21  H   UNL     1       1.487   7.685  20.050  0.00  0.00    +0.000 HD
BRANCH  19  22
ATOM     22  C   UNL     1       1.721   9.365  18.207  0.00  0.00    +0.000 C 
ATOM     23  O   UNL     1       2.013  10.173  17.332  0.00  0.00    +0.000 OA
ATOM     24  N   UNL     1       0.711   9.513  19.134  0.00  0.00    +0.000 N 
ATOM     25  H   UNL     1       0.663   8.825  19.882  0.00  0.00    +0.000 HD
BRANCH  24  26
ATOM     26  C   UNL     1      -0.080  10.729  19.193  0.00  0.00    +0.000 C 
BRANCH  26  27
ATOM     27  C   UNL     1       0.178  11.592  20.435  0.00  0.00    +0.000 C 
BRANCH  27  28
ATOM     28  C   UNL     1      -1.052  11.895  21.260  0.00  0.00    +0.000 A 
ATOM     29  C   UNL     1      -1.140  11.501  22.603  0.00  0.00    +0.000 A 
ATOM     30  C   UNL     1      -2.284  11.785  23.353  0.00  0.00    +0.000 A 
ATOM     31  C   UNL     1      -3.344  12.478  22.774  0.00  0.00    +0.000 A 
ATOM     32  C   UNL     1      -3.259  12.898  21.449  0.00  0.00    +0.000 A 
ATOM     33  C   UNL     1      -2.118  12.611  20.696  0.00  0.00    +0.000 A 
ENDBRANCH  27  28
ENDBRANCH  26  27
ENDBRANCH  24  26
ENDBRANCH  19  22
ENDBRANCH   1  18
TORSDOF 8
ENDMDL
MODEL 6
REMARK VINA RESULT:      -8.4      1.922      2.438
REMARK  Name = 
REMARK  10 active torsions:
REMARK  status: ('A' for Active; 'I' for Inactive)
REMARK    1  A    between atoms: C_1  and  C_2
REMARK    2  A    between atoms: C_5  and  C_6
REMARK    3  A    between atoms: C_7  and  S_8
REMARK    4  A    between atoms: S_8  and  N_11
REMARK    5  A    between atoms: C_15  and  C_16
REMARK    6  A    between atoms: C_16  and  N_17
REMARK    7  A    between atoms: C_18  and  C_20
REMARK    8  A    between atoms: N_22  and  C_23
REMARK    9  A    between atoms: C_23  and  C_24
REMARK   10  A    between atoms: C_24  and  C_25
REMARK                            x       y       z     vdW  Elec       q    Type
REMARK                         _______ _______ _______ _____ _____    ______ ____
ROOT
ATOM      1  C   UNL     1       2.761   6.383  19.620  0.00  0.00    +0.000 C 
ENDROOT
BRANCH   1   6
ATOM      2  N   UNL     1       3.026   3.911  19.364  0.00  0.00    +0.000 NA
ATOM      3  C   UNL     1       2.839   3.143  20.614  0.00  0.00    +0.000 C 
ATOM      4  C   UNL     1       1.370   3.325  20.953  0.00  0.00    +0.000 C 
ATOM      5  C   UNL     1       1.009   4.707  20.438  0.00  0.00    +0.000 C 
ATOM      6  C   UNL     1       2.037   5.040  19.352  0.00  0.00    +0.000 C 
BRANCH   2   7
ATOM      7  S   UNL     1       3.273   3.039  17.915  0.00  0.00    +0.000 S 
ATOM      8  O   UNL     1       2.146   3.291  17.040  0.00  0.00    +0.000 OA
ATOM      9  O   UNL     1       3.680   1.696  18.269  0.00  0.00    +0.000 OA
BRANCH   7  16
ATOM     10  C   UNL     1       6.061   4.039  13.607  0.00  0.00    +0.000 C 
ATOM     11  C   UNL     1       5.932   4.225  15.089  0.00  0.00    +0.000 A 
ATOM     12  C   UNL     1       6.988   4.735  15.848  0.00  0.00    +0.000 A 
ATOM     13  C   UNL     1       6.874   4.834  17.239  0.00  0.00    +0.000 A 
ATOM     14  C   UNL     1       5.717   4.397  17.906  0.00  0.00    +0.000 A 
ATOM     15  C   UNL     1       5.687   4.478  19.409  0.00  0.00    +0.000 C 
ATOM     16  C   UNL     1       4.663   3.854  17.137  0.00  0.00    +0.000 A 
ATOM     17  C   UNL     1       4.771   3.799  15.739  0.00  0.00    +0.000 A 
ENDBRANCH   7  16
ENDBRANCH   2   7
ENDBRANCH   1   6
BRANCH   1  18
ATOM     18  N   UNL     1       1.909   7.555  19.466  0.00  0.00    +0.000 N 
ATOM     19  C   UNL     1       1.468   8.339  20.513  0.00  0.00    +0.000 C 
ATOM     20  O   UNL     1       1.743   8.189  21.694  0.00  0.00    +0.000 OA
ATOM     21  H   UNL     1       1.588   7.817  18.539  0.00  0.00    +0.000 HD
BRANCH  19  22
ATOM     22  C   UNL     1       0.544   9.504  20.067  0.00  0.00    +0.000 C 
ATOM     23  O   UNL     1      -0.125  10.095  20.907  0.00  0.00    +0.000 OA
ATOM     24  N   UNL     1       0.545   9.764  18.713  0.00  0.00    +0.000 N 
ATOM     25  H   UNL     1       1.050   9.112  18.116  0.00  0.00    +0.000 HD
BRANCH  24  26
ATOM     26  C   UNL     1      -0.342  10.759  18.139  0.00  0.00    +0.000 C 
BRANCH  26  27
ATOM     27  C   UNL     1      -1.627  10.186  17.528  0.00  0.00    +0.000 C 
BRANCH  27  28
ATOM     28  C   UNL     1      -2.897  10.882  17.962  0.00  0.00    +0.000 A 
ATOM     29  C   UNL     1      -2.916  11.720  19.086  0.00  0.00    +0.000 A 
ATOM     30  C   UNL     1      -4.097  12.356  19.477  0.00  0.00    +0.000 A 
ATOM     31  C   UNL     1      -5.265  12.174  18.742  0.00  0.00    +0.000 A 
ATOM     32  C   UNL     1      -5.253  11.365  17.608  0.00  0.00    +0.000 A 
ATOM     33  C   UNL     1      -4.075  10.725  17.218  0.00  0.00    +0.000 A 
ENDBRANCH  27  28
ENDBRANCH  26  27
ENDBRANCH  24  26
ENDBRANCH  19  22
ENDBRANCH   1  18
TORSDOF 8
ENDMDL
MODEL 7
REMARK VINA RESULT:      -8.3      2.646      3.287
REMARK  Name = 
REMARK  10 active torsions:
REMARK  status: ('A' for Active; 'I' for Inactive)
REMARK    1  A    between atoms: C_1  and  C_2
REMARK    2  A    between atoms: C_5  and  C_6
REMARK    3  A    between atoms: C_7  and  S_8
REMARK    4  A    between atoms: S_8  and  N_11
REMARK    5  A    between atoms: C_15  and  C_16
REMARK    6  A    between atoms: C_16  and  N_17
REMARK    7  A    between atoms: C_18  and  C_20
REMARK    8  A    between atoms: N_22  and  C_23
REMARK    9  A    between atoms: C_23  and  C_24
REMARK   10  A    between atoms: C_24  and  C_25
REMARK                            x       y       z     vdW  Elec       q    Type
REMARK                         _______ _______ _______ _____ _____    ______ ____
ROOT
ATOM      1  C   UNL     1       3.241   7.024  17.917  0.00  0.00    +0.000 C 
ENDROOT
BRANCH   1   6
ATOM      2  N   UNL     1       3.563   4.769  18.942  0.00  0.00    +0.000 NA
ATOM      3  C   UNL     1       2.621   4.455  20.040  0.00  0.00    +0.000 C 
ATOM      4  C   UNL     1       1.267   4.363  19.360  0.00  0.00    +0.000 C 
ATOM      5  C   UNL     1       1.332   5.344  18.203  0.00  0.00    +0.000 C 
ATOM      6  C   UNL     1       2.819   5.534  17.888  0.00  0.00    +0.000 C 
BRANCH   2   7
ATOM      7  S   UNL     1       4.646   3.546  18.440  0.00  0.00    +0.000 S 
ATOM      8  O   UNL     1       3.869   2.461  17.876  0.00  0.00    +0.000 OA
ATOM      9  O   UNL     1       5.597   3.329  19.510  0.00  0.00    +0.000 OA
BRANCH   7  16
ATOM     10  C   UNL     1       5.729   3.567  13.326  0.00  0.00    +0.000 C 
ATOM     11  C   UNL     1       6.008   4.171  14.669  0.00  0.00    +0.000 A 
ATOM     12  C   UNL     1       7.098   5.022  14.869  0.00  0.00    +0.000 A 
ATOM     13  C   UNL     1       7.382   5.518  16.145  0.00  0.00    +0.000 A 
ATOM     14  C   UNL     1       6.605   5.152  17.257  0.00  0.00    +0.000 A 
ATOM     15  C   UNL     1       7.005   5.675  18.610  0.00  0.00    +0.000 C 
ATOM     16  C   UNL     1       5.521   4.267  17.057  0.00  0.00    +0.000 A 
ATOM     17  C   UNL     1       5.219   3.809  15.766  0.00  0.00    +0.000 A 
ENDBRANCH   7  16
ENDBRANCH   2   7
ENDBRANCH   1   6
BRANCH   1  18
ATOM     18  N   UNL     1       2.277   7.899  18.572  0.00  0.00    +0.000 N 
ATOM     19  C   UNL     1       2.025   9.202  18.192  0.00  0.00    +0.000 C 
ATOM     20  O   UNL     1       2.538   9.793  17.255  0.00  0.00    +0.000 OA
ATOM     21  H   UNL     1       1.762   7.555  19.377  0.00  0.00    +0.000 HD
BRANCH  19  22
ATOM     22  C   UNL     1       0.975   9.914  19.086  0.00  0.00    +0.000 C 
ATOM     23  O   UNL     1       0.693   9.434  20.179  0.00  0.00    +0.000 OA
ATOM     24  N   UNL     1       0.421  11.053  18.542  0.00  0.00    +0.000 N 
ATOM     25  H   UNL     1       0.653  11.266  17.574  0.00  0.00    +0.000 HD
BRANCH  24  26
ATOM     26  C   UNL     1      -0.643  11.769  19.222  0.00  0.00    +0.000 C 
BRANCH  26  27
ATOM     27  C   UNL     1      -1.984  11.026  19.257  0.00  0.00    +0.000 C 
BRANCH  27  28
ATOM     28  C   UNL     1      -2.639  10.843  17.906  0.00  0.00    +0.000 A 
ATOM     29  C   UNL     1      -2.091   9.982  16.946  0.00  0.00    +0.000 A 
ATOM     30  C   UNL     1      -2.705   9.824  15.701  0.00  0.00    +0.000 A 
ATOM     31  C   UNL     1      -3.879  10.512  15.408  0.00  0.00    +0.000 A 
ATOM     32  C   UNL     1      -4.448  11.351  16.364  0.00  0.00    +0.000 A 
ATOM     33  C   UNL     1      -3.834  11.513  17.607  0.00  0.00    +0.000 A 
ENDBRANCH  27  28
ENDBRANCH  26  27
ENDBRANCH  24  26
ENDBRANCH  19  22
ENDBRANCH   1  18
TORSDOF 8
ENDMDL
MODEL 8
REMARK VINA RESULT:      -8.3      4.453      8.689
REMARK  Name = 
REMARK  10 active torsions:
REMARK  status: ('A' for Active; 'I' for Inactive)
REMARK    1  A    between atoms: C_1  and  C_2
REMARK    2  A    between atoms: C_5  and  C_6
REMARK    3  A    between atoms: C_7  and  S_8
REMARK    4  A    between atoms: S_8  and  N_11
REMARK    5  A    between atoms: C_15  and  C_16
REMARK    6  A    between atoms: C_16  and  N_17
REMARK    7  A    between atoms: C_18  and  C_20
REMARK    8  A    between atoms: N_22  and  C_23
REMARK    9  A    between atoms: C_23  and  C_24
REMARK   10  A    between atoms: C_24  and  C_25
REMARK                            x       y       z     vdW  Elec       q    Type
REMARK                         _______ _______ _______ _____ _____    ______ ____
ROOT
ATOM      1  C   UNL     1       4.789   3.727  17.517  0.00  0.00    +0.000 C 
ENDROOT
BRANCH   1   6
ATOM      2  N   UNL     1       2.658   4.446  18.605  0.00  0.00    +0.000 NA
ATOM      3  C   UNL     1       1.436   4.113  17.839  0.00  0.00    +0.000 C 
ATOM      4  C   UNL     1       1.375   2.596  17.871  0.00  0.00    +0.000 C 
ATOM      5  C   UNL     1       2.822   2.137  17.902  0.00  0.00    +0.000 C 
ATOM      6  C   UNL     1       3.630   3.313  18.458  0.00  0.00    +0.000 C 
BRANCH   2   7
ATOM      7  S   UNL     1       2.469   5.154  20.149  0.00  0.00    +0.000 S 
ATOM      8  O   UNL     1       3.758   5.143  20.810  0.00  0.00    +0.000 OA
ATOM      9  O   UNL     1       1.291   4.574  20.762  0.00  0.00    +0.000 OA
BRANCH   7  16
ATOM     10  C   UNL     1      -0.184   9.516  21.273  0.00  0.00    +0.000 C 
ATOM     11  C   UNL     1       0.810   8.851  20.370  0.00  0.00    +0.000 A 
ATOM     12  C   UNL     1       1.204   9.441  19.167  0.00  0.00    +0.000 A 
ATOM     13  C   UNL     1       2.078   8.771  18.305  0.00  0.00    +0.000 A 
ATOM     14  C   UNL     1       2.554   7.484  18.607  0.00  0.00    +0.000 A 
ATOM     15  C   UNL     1       3.443   6.799  17.605  0.00  0.00    +0.000 C 
ATOM     16  C   UNL     1       2.128   6.877  19.811  0.00  0.00    +0.000 A 
ATOM     17  C   UNL     1       1.286   7.575  20.688  0.00  0.00    +0.000 A 
ENDBRANCH   7  16
ENDBRANCH   2   7
ENDBRANCH   1   6
BRANCH   1  18
ATOM     18  N   UNL     1       5.759   4.625  18.133  0.00  0.00    +0.000 N 
ATOM     19  C   UNL     1       6.990   4.932  17.589  0.00  0.00    +0.000 C 
ATOM     20  O   UNL     1       7.429   4.530  16.523  0.00  0.00    +0.000 OA
ATOM     21  H   UNL     1       5.544   5.045  19.032  0.00  0.00    +0.000 HD
BRANCH  19  22
ATOM     22  C   UNL     1       7.836   5.886  18.475  0.00  0.00    +0.000 C 
ATOM     23  O   UNL     1       8.371   5.449  19.487  0.00  0.00    +0.000 OA
ATOM     24  N   UNL     1       7.894   7.192  18.035  0.00  0.00    +0.000 N 
ATOM     25  H   UNL     1       7.298   7.444  17.249  0.00  0.00    +0.000 HD
BRANCH  24  26
ATOM     26  C   UNL     1       8.568   8.216  18.812  0.00  0.00    +0.000 C 
BRANCH  26  27
ATOM     27  C   UNL     1       8.482   9.625  18.211  0.00  0.00    +0.000 C 
BRANCH  27  28
ATOM     28  C   UNL     1       9.488  10.609  18.765  0.00  0.00    +0.000 A 
ATOM     29  C   UNL     1       9.565  10.870  20.140  0.00  0.00    +0.000 A 
ATOM     30  C   UNL     1      10.498  11.783  20.638  0.00  0.00    +0.000 A 
ATOM     31  C   UNL     1      11.372  12.433  19.770  0.00  0.00    +0.000 A 
ATOM     32  C   UNL     1      11.323  12.162  18.405  0.00  0.00    +0.000 A 
ATOM     33  C   UNL     1      10.389  11.253  17.905  0.00  0.00    +0.000 A 
ENDBRANCH  27  28
ENDBRANCH  26  27
ENDBRANCH  24  26
ENDBRANCH  19  22
ENDBRANCH   1  18
TORSDOF 8
ENDMDL
MODEL 9
REMARK VINA RESULT:      -8.3      1.224      1.504
REMARK  Name = 
REMARK  10 active torsions:
REMARK  status: ('A' for Active; 'I' for Inactive)
REMARK    1  A    between atoms: C_1  and  C_2
REMARK    2  A    between atoms: C_5  and  C_6
REMARK    3  A    between atoms: C_7  and  S_8
REMARK    4  A    between atoms: S_8  and  N_11
REMARK    5  A    between atoms: C_15  and  C_16
REMARK    6  A    between atoms: C_16  and  N_17
REMARK    7  A    between atoms: C_18  and  C_20
REMARK    8  A    between atoms: N_22  and  C_23
REMARK    9  A    between atoms: C_23  and  C_24
REMARK   10  A    between atoms: C_24  and  C_25
REMARK                            x       y       z     vdW  Elec       q    Type
REMARK                         _______ _______ _______ _____ _____    ______ ____
ROOT
ATOM      1  C   UNL     1       2.719   6.406  19.534  0.00  0.00    +0.000 C 
ENDROOT
BRANCH   1   6
ATOM      2  N   UNL     1       3.280   4.010  19.967  0.00  0.00    +0.000 NA
ATOM      3  C   UNL     1       2.616   3.431  21.156  0.00  0.00    +0.000 C 
ATOM      4  C   UNL     1       1.143   3.405  20.790  0.00  0.00    +0.000 C 
ATOM      5  C   UNL     1       0.936   4.603  19.879  0.00  0.00    +0.000 C 
ATOM      6  C   UNL     1       2.310   4.932  19.288  0.00  0.00    +0.000 C 
BRANCH   2   7
ATOM      7  S   UNL     1       4.227   2.974  18.992  0.00  0.00    +0.000 S 
ATOM      8  O   UNL     1       3.330   2.154  18.204  0.00  0.00    +0.000 OA
ATOM      9  O   UNL     1       5.256   2.393  19.830  0.00  0.00    +0.000 OA
BRANCH   7  16
ATOM     10  C   UNL     1       5.328   4.206  14.033  0.00  0.00    +0.000 C 
ATOM     11  C   UNL     1       5.526   4.538  15.481  0.00  0.00    +0.000 A 
ATOM     12  C   UNL     1       6.508   5.445  15.888  0.00  0.00    +0.000 A 
ATOM     13  C   UNL     1       6.724   5.687  17.248  0.00  0.00    +0.000 A 
ATOM     14  C   UNL     1       5.990   5.007  18.234  0.00  0.00    +0.000 A 
ATOM     15  C   UNL     1       6.318   5.273  19.678  0.00  0.00    +0.000 C 
ATOM     16  C   UNL     1       5.019   4.067  17.819  0.00  0.00    +0.000 A 
ATOM     17  C   UNL     1       4.780   3.864  16.452  0.00  0.00    +0.000 A 
ENDBRANCH   7  16
ENDBRANCH   2   7
ENDBRANCH   1   6
BRANCH   1  18
ATOM     18  N   UNL     1       1.806   7.135  20.406  0.00  0.00    +0.000 N 
ATOM     19  C   UNL     1       1.322   8.400  20.141  0.00  0.00    +0.000 C 
ATOM     20  O   UNL     1       1.557   9.070  19.148  0.00  0.00    +0.000 OA
ATOM     21  H   UNL     1       1.512   6.711  21.281  0.00  0.00    +0.000 HD
BRANCH  19  22
ATOM     22  C   UNL     1       0.394   8.953  21.257  0.00  0.00    +0.000 C 
ATOM     23  O   UNL     1      -0.414   8.201  21.792  0.00  0.00    +0.000 OA
ATOM     24  N   UNL     1       0.557  10.291  21.542  0.00  0.00    +0.000 N 
ATOM     25  H   UNL     1       1.176  10.824  20.933  0.00  0.00    +0.000 HD
BRANCH  24  26
ATOM     26  C   UNL     1      -0.306  10.967  22.494  0.00  0.00    +0.000 C 
BRANCH  26  27
ATOM     27  C   UNL     1      -0.759  12.365  22.056  0.00  0.00    +0.000 C 
BRANCH  27  28
ATOM     28  C   UNL     1      -1.889  12.947  22.875  0.00  0.00    +0.000 A 
ATOM     29  C   UNL     1      -1.999  14.330  23.078  0.00  0.00    +0.000 A 
ATOM     30  C   UNL     1      -3.047  14.854  23.839  0.00  0.00    +0.000 A 
ATOM     31  C   UNL     1      -4.003  14.005  24.391  0.00  0.00    +0.000 A 
ATOM     32  C   UNL     1      -3.919  12.632  24.174  0.00  0.00    +0.000 A 
ATOM     33  C   UNL     1      -2.870  12.105  23.417  0.00  0.00    +0.000 A 
ENDBRANCH  27  28
ENDBRANCH  26  27
ENDBRANCH  24  26
ENDBRANCH  19  22
ENDBRANCH   1  18
TORSDOF 8
ENDMDL
