MODEL 1
REMARK VINA RESULT:      -6.9      0.000      0.000
REMARK  Name = 
REMARK  8 active torsions:
REMARK  status: ('A' for Active; 'I' for Inactive)
REMARK    1  A    between atoms: C_1  and  C_2
REMARK    2  A    between atoms: C_5  and  S_6
REMARK    3  A    between atoms: S_6  and  N_9
REMARK    4  A    between atoms: N_9  and  C_10
REMARK    5  A    between atoms: N_9  and  C_20
REMARK    6  A    between atoms: C_10  and  C_11
REMARK    7  A    between atoms: N_13  and  C_14
REMARK    8  A    between atoms: C_23  and  C_24
REMARK                            x       y       z     vdW  Elec       q    Type
REMARK                         _______ _______ _______ _____ _____    ______ ____
ROOT
ATOM      1  N   UNL     1       0.120  11.525  19.358  0.00  0.00    +0.000 N 
ENDROOT
BRANCH   1   2
ATOM      2  C   UNL     1       0.741  10.242  19.365  0.00  0.00    +0.000 A 
ATOM      3  C   UNL     1       1.445   9.808  18.239  0.00  0.00    +0.000 A 
ATOM      4  C   UNL     1       2.117   8.581  18.260  0.00  0.00    +0.000 A 
ATOM      5  C   UNL     1       2.090   7.786  19.410  0.00  0.00    +0.000 A 
ATOM      6  C   UNL     1       1.370   8.217  20.530  0.00  0.00    +0.000 A 
ATOM      7  C   UNL     1       0.693   9.439  20.503  0.00  0.00    +0.000 A 
BRANCH   5   8
ATOM      8  C   UNL     1       2.801   6.540  19.449  0.00  0.00    +0.000 C 
ATOM      9  N   UNL     1       3.373   5.532  19.497  0.00  0.00    +0.000 NA
ENDBRANCH   5   8
ENDBRANCH   1   2
BRANCH   1  10
ATOM     10  S   UNL     1       0.617  12.702  20.459  0.00  0.00    +0.000 S 
ATOM     11  O   UNL     1       0.650  13.976  19.765  0.00  0.00    +0.000 OA
ATOM     12  O   UNL     1       1.812  12.220  21.125  0.00  0.00    +0.000 OA
BRANCH  10  17
ATOM     13  C   UNL     1      -4.324  12.723  23.974  0.00  0.00    +0.000 C 
ATOM     14  C   UNL     1      -3.006  12.798  23.255  0.00  0.00    +0.000 A 
ATOM     15  C   UNL     1      -2.694  13.911  22.462  0.00  0.00    +0.000 A 
ATOM     16  C   UNL     1      -1.530  13.931  21.685  0.00  0.00    +0.000 A 
ATOM     17  C   UNL     1      -0.662  12.834  21.700  0.00  0.00    +0.000 A 
ATOM     18  C   UNL     1      -0.958  11.725  22.501  0.00  0.00    +0.000 A 
ATOM     19  C   UNL     1      -2.123  11.711  23.277  0.00  0.00    +0.000 A 
ENDBRANCH  10  17
ENDBRANCH   1  10
BRANCH   1  20
ATOM     20  C   UNL     1      -0.843  11.862  18.292  0.00  0.00    +0.000 C 
BRANCH  20  21
ATOM     21  C   UNL     1      -2.242  11.304  18.495  0.00  0.00    +0.000 C 
ATOM     22  O   UNL     1      -2.479  10.109  18.330  0.00  0.00    +0.000 OA
ATOM     23  N   UNL     1      -3.180  12.271  18.846  0.00  0.00    +0.000 N 
ATOM     24  H   UNL     1      -2.874  13.238  18.869  0.00  0.00    +0.000 HD
BRANCH  23  25
ATOM     25  C   UNL     1      -4.566  12.062  19.059  0.00  0.00    +0.000 A 
ATOM     26  C   UNL     1      -5.210  12.263  20.276  0.00  0.00    +0.000 A 
ATOM     27  C   UNL     1      -6.564  11.951  20.413  0.00  0.00    +0.000 A 
ATOM     28  C   UNL     1      -7.245  11.460  19.314  0.00  0.00    +0.000 A 
ATOM     29  N   UNL     1      -6.677  11.293  18.103  0.00  0.00    +0.000 NA
ATOM     30  C   UNL     1      -5.359  11.601  18.005  0.00  0.00    +0.000 A 
ENDBRANCH  23  25
ENDBRANCH  20  21
ENDBRANCH   1  20
TORSDOF 7
ENDMDL
MODEL 2
REMARK VINA RESULT:      -6.8      5.881     10.894
REMARK  Name = 
REMARK  8 active torsions:
REMARK  status: ('A' for Active; 'I' for Inactive)
REMARK    1  A    between atoms: C_1  and  C_2
REMARK    2  A    between atoms: C_5  and  S_6
REMARK    3  A    between atoms: S_6  and  N_9
REMARK    4  A    between atoms: N_9  and  C_10
REMARK    5  A    between atoms: N_9  and  C_20
REMARK    6  A    between atoms: C_10  and  C_11
REMARK    7  A    between atoms: N_13  and  C_14
REMARK    8  A    between atoms: C_23  and  C_24
REMARK                            x       y       z     vdW  Elec       q    Type
REMARK                         _______ _______ _______ _____ _____    ______ ____
ROOT
ATOM      1  N   UNL     1       4.527   5.172  18.149  0.00  0.00    +0.000 N 
ENDROOT
BRANCH   1   2
ATOM      2  C   UNL     1       3.706   6.310  18.399  0.00  0.00    +0.000 A 
ATOM      3  C   UNL     1       3.625   7.328  17.445  0.00  0.00    +0.000 A 
ATOM      4  C   UNL     1       2.768   8.416  17.649  0.00  0.00    +0.000 A 
ATOM      5  C   UNL     1       1.985   8.485  18.806  0.00  0.00    +0.000 A 
ATOM      6  C   UNL     1       2.081   7.471  19.765  0.00  0.00    +0.000 A 
ATOM      7  C   UNL     1       2.944   6.391  19.564  0.00  0.00    +0.000 A 
BRANCH   5   8
ATOM      8  C   UNL     1       1.082   9.582  19.007  0.00  0.00    +0.000 C 
ATOM      9  N   UNL     1       0.361  10.477  19.160  0.00  0.00    +0.000 NA
ENDBRANCH   5   8
ENDBRANCH   1   2
BRANCH   1  10
ATOM     10  S   UNL     1       3.825   3.730  17.631  0.00  0.00    +0.000 S 
ATOM     11  O   UNL     1       4.894   2.802  17.313  0.00  0.00    +0.000 OA
ATOM     12  O   UNL     1       2.832   4.048  16.622  0.00  0.00    +0.000 OA
BRANCH  10  17
ATOM     13  C   UNL     1       0.874   2.329  22.740  0.00  0.00    +0.000 C 
ATOM     14  C   UNL     1       1.587   2.486  21.427  0.00  0.00    +0.000 A 
ATOM     15  C   UNL     1       2.984   2.384  21.362  0.00  0.00    +0.000 A 
ATOM     16  C   UNL     1       3.666   2.661  20.171  0.00  0.00    +0.000 A 
ATOM     17  C   UNL     1       2.953   3.038  19.030  0.00  0.00    +0.000 A 
ATOM     18  C   UNL     1       1.556   3.127  19.080  0.00  0.00    +0.000 A 
ATOM     19  C   UNL     1       0.879   2.849  20.274  0.00  0.00    +0.000 A 
ENDBRANCH  10  17
ENDBRANCH   1  10
BRANCH   1  20
ATOM     20  C   UNL     1       5.996   5.310  18.199  0.00  0.00    +0.000 C 
BRANCH  20  21
ATOM     21  C   UNL     1       6.720   4.896  16.929  0.00  0.00    +0.000 C 
ATOM     22  O   UNL     1       7.884   4.502  16.961  0.00  0.00    +0.000 OA
ATOM     23  N   UNL     1       5.949   5.038  15.778  0.00  0.00    +0.000 N 
ATOM     24  H   UNL     1       5.029   5.454  15.876  0.00  0.00    +0.000 HD
BRANCH  23  25
ATOM     25  C   UNL     1       6.364   4.774  14.448  0.00  0.00    +0.000 A 
ATOM     26  C   UNL     1       5.809   3.791  13.635  0.00  0.00    +0.000 A 
ATOM     27  C   UNL     1       6.338   3.547  12.367  0.00  0.00    +0.000 A 
ATOM     28  C   UNL     1       7.406   4.314  11.937  0.00  0.00    +0.000 A 
ATOM     29  N   UNL     1       7.947   5.309  12.668  0.00  0.00    +0.000 NA
ATOM     30  C   UNL     1       7.412   5.517  13.898  0.00  0.00    +0.000 A 
ENDBRANCH  23  25
ENDBRANCH  20  21
ENDBRANCH   1  20
TORSDOF 7
ENDMDL
MODEL 3
REMARK VINA RESULT:      -6.7      5.569     10.716
REMARK  Name = 
REMARK  8 active torsions:
REMARK  status: ('A' for Active; 'I' for Inactive)
REMARK    1  A    between atoms: C_1  and  C_2
REMARK    2  A    between atoms: C_5  and  S_6
REMARK    3  A    between atoms: S_6  and  N_9
REMARK    4  A    between atoms: N_9  and  C_10
REMARK    5  A    between atoms: N_9  and  C_20
REMARK    6  A    between atoms: C_10  and  C_11
REMARK    7  A    between atoms: N_13  and  C_14
REMARK    8  A    between atoms: C_23  and  C_24
REMARK                            x       y       z     vdW  Elec       q    Type
REMARK                         _______ _______ _______ _____ _____    ______ ____
ROOT
ATOM      1  N   UNL     1       3.924   5.500  17.994  0.00  0.00    +0.000 N 
ENDROOT
BRANCH   1   2
ATOM      2  C   UNL     1       3.060   6.478  18.566  0.00  0.00    +0.000 A 
ATOM      3  C   UNL     1       2.648   6.346  19.895  0.00  0.00    +0.000 A 
ATOM      4  C   UNL     1       1.857   7.336  20.488  0.00  0.00    +0.000 A 
ATOM      5  C   UNL     1       1.478   8.465  19.754  0.00  0.00    +0.000 A 
ATOM      6  C   UNL     1       1.880   8.585  18.419  0.00  0.00    +0.000 A 
ATOM      7  C   UNL     1       2.663   7.591  17.826  0.00  0.00    +0.000 A 
BRANCH   5   8
ATOM      8  C   UNL     1       0.692   9.498  20.363  0.00  0.00    +0.000 C 
ATOM      9  N   UNL     1       0.068  10.345  20.853  0.00  0.00    +0.000 NA
ENDBRANCH   5   8
ENDBRANCH   1   2
BRANCH   1  10
ATOM     10  S   UNL     1       3.302   4.003  17.527  0.00  0.00    +0.000 S 
ATOM     11  O   UNL     1       4.414   3.169  17.110  0.00  0.00    +0.000 OA
ATOM     12  O   UNL     1       2.202   4.239  16.611  0.00  0.00    +0.000 OA
BRANCH  10  17
ATOM     13  C   UNL     1       0.937   2.355  22.862  0.00  0.00    +0.000 C 
ATOM     14  C   UNL     1       1.517   2.573  21.493  0.00  0.00    +0.000 A 
ATOM     15  C   UNL     1       2.906   2.586  21.305  0.00  0.00    +0.000 A 
ATOM     16  C   UNL     1       3.456   2.920  20.062  0.00  0.00    +0.000 A 
ATOM     17  C   UNL     1       2.616   3.240  18.991  0.00  0.00    +0.000 A 
ATOM     18  C   UNL     1       1.227   3.214  19.165  0.00  0.00    +0.000 A 
ATOM     19  C   UNL     1       0.683   2.878  20.410  0.00  0.00    +0.000 A 
ENDBRANCH  10  17
ENDBRANCH   1  10
BRANCH   1  20
ATOM     20  C   UNL     1       5.320   5.858  17.677  0.00  0.00    +0.000 C 
BRANCH  20  21
ATOM     21  C   UNL     1       5.629   5.969  16.194  0.00  0.00    +0.000 C 
ATOM     22  O   UNL     1       5.254   6.939  15.537  0.00  0.00    +0.000 OA
ATOM     23  N   UNL     1       6.331   4.878  15.689  0.00  0.00    +0.000 N 
ATOM     24  H   UNL     1       6.509   4.101  16.317  0.00  0.00    +0.000 HD
BRANCH  23  25
ATOM     25  C   UNL     1       6.722   4.678  14.340  0.00  0.00    +0.000 A 
ATOM     26  C   UNL     1       7.693   5.431  13.687  0.00  0.00    +0.000 A 
ATOM     27  C   UNL     1       7.953   5.216  12.332  0.00  0.00    +0.000 A 
ATOM     28  C   UNL     1       7.241   4.234  11.669  0.00  0.00    +0.000 A 
ATOM     29  N   UNL     1       6.325   3.447  12.270  0.00  0.00    +0.000 NA
ATOM     30  C   UNL     1       6.093   3.684  13.586  0.00  0.00    +0.000 A 
ENDBRANCH  23  25
ENDBRANCH  20  21
ENDBRANCH   1  20
TORSDOF 7
ENDMDL
MODEL 4
REMARK VINA RESULT:      -6.6      5.363     10.443
REMARK  Name = 
REMARK  8 active torsions:
REMARK  status: ('A' for Active; 'I' for Inactive)
REMARK    1  A    between atoms: C_1  and  C_2
REMARK    2  A    between atoms: C_5  and  S_6
REMARK    3  A    between atoms: S_6  and  N_9
REMARK    4  A    between atoms: N_9  and  C_10
REMARK    5  A    between atoms: N_9  and  C_20
REMARK    6  A    between atoms: C_10  and  C_11
REMARK    7  A    between atoms: N_13  and  C_14
REMARK    8  A    between atoms: C_23  and  C_24
REMARK                            x       y       z     vdW  Elec       q    Type
REMARK                         _______ _______ _______ _____ _____    ______ ____
ROOT
ATOM      1  N   UNL     1       3.663   6.053  17.976  0.00  0.00    +0.000 N 
ENDROOT
BRANCH   1   2
ATOM      2  C   UNL     1       2.868   7.146  18.429  0.00  0.00    +0.000 A 
ATOM      3  C   UNL     1       2.501   8.153  17.532  0.00  0.00    +0.000 A 
ATOM      4  C   UNL     1       1.663   9.193  17.948  0.00  0.00    +0.000 A 
ATOM      5  C   UNL     1       1.186   9.227  19.263  0.00  0.00    +0.000 A 
ATOM      6  C   UNL     1       1.570   8.226  20.161  0.00  0.00    +0.000 A 
ATOM      7  C   UNL     1       2.413   7.192  19.746  0.00  0.00    +0.000 A 
BRANCH   5   8
ATOM      8  C   UNL     1       0.303  10.275  19.689  0.00  0.00    +0.000 C 
ATOM      9  N   UNL     1      -0.424  11.113  20.028  0.00  0.00    +0.000 NA
ENDBRANCH   5   8
ENDBRANCH   1   2
BRANCH   1  10
ATOM     10  S   UNL     1       2.957   4.537  17.759  0.00  0.00    +0.000 S 
ATOM     11  O   UNL     1       3.989   3.626  17.301  0.00  0.00    +0.000 OA
ATOM     12  O   UNL     1       1.753   4.710  16.968  0.00  0.00    +0.000 OA
BRANCH  10  17
ATOM     13  C   UNL     1       1.118   1.674  22.779  0.00  0.00    +0.000 C 
ATOM     14  C   UNL     1       1.590   2.543  21.647  0.00  0.00    +0.000 A 
ATOM     15  C   UNL     1       0.665   3.201  20.825  0.00  0.00    +0.000 A 
ATOM     16  C   UNL     1       1.089   3.904  19.691  0.00  0.00    +0.000 A 
ATOM     17  C   UNL     1       2.449   3.958  19.372  0.00  0.00    +0.000 A 
ATOM     18  C   UNL     1       3.382   3.316  20.196  0.00  0.00    +0.000 A 
ATOM     19  C   UNL     1       2.952   2.616  21.330  0.00  0.00    +0.000 A 
ENDBRANCH  10  17
ENDBRANCH   1  10
BRANCH   1  20
ATOM     20  C   UNL     1       5.058   6.292  17.558  0.00  0.00    +0.000 C 
BRANCH  20  21
ATOM     21  C   UNL     1       5.301   6.195  16.060  0.00  0.00    +0.000 C 
ATOM     22  O   UNL     1       4.950   7.096  15.301  0.00  0.00    +0.000 OA
ATOM     23  N   UNL     1       5.913   5.007  15.672  0.00  0.00    +0.000 N 
ATOM     24  H   UNL     1       6.077   4.306  16.387  0.00  0.00    +0.000 HD
BRANCH  23  25
ATOM     25  C   UNL     1       6.225   4.614  14.346  0.00  0.00    +0.000 A 
ATOM     26  C   UNL     1       5.479   3.705  13.602  0.00  0.00    +0.000 A 
ATOM     27  C   UNL     1       5.910   3.316  12.332  0.00  0.00    +0.000 A 
ATOM     28  C   UNL     1       7.076   3.866  11.831  0.00  0.00    +0.000 A 
ATOM     29  N   UNL     1       7.807   4.786  12.494  0.00  0.00    +0.000 NA
ATOM     30  C   UNL     1       7.363   5.139  13.727  0.00  0.00    +0.000 A 
ENDBRANCH  23  25
ENDBRANCH  20  21
ENDBRANCH   1  20
TORSDOF 7
ENDMDL
MODEL 5
REMARK VINA RESULT:      -6.4      2.340      3.667
REMARK  Name = 
REMARK  8 active torsions:
REMARK  status: ('A' for Active; 'I' for Inactive)
REMARK    1  A    between atoms: C_1  and  C_2
REMARK    2  A    between atoms: C_5  and  S_6
REMARK    3  A    between atoms: S_6  and  N_9
REMARK    4  A    between atoms: N_9  and  C_10
REMARK    5  A    between atoms: N_9  and  C_20
REMARK    6  A    between atoms: C_10  and  C_11
REMARK    7  A    between atoms: N_13  and  C_14
REMARK    8  A    between atoms: C_23  and  C_24
REMARK                            x       y       z     vdW  Elec       q    Type
REMARK                         _______ _______ _______ _____ _____    ______ ____
ROOT
ATOM      1  N   UNL     1       0.005  10.978  19.102  0.00  0.00    +0.000 N 
ENDROOT
BRANCH   1   2
ATOM      2  C   UNL     1       0.791   9.798  19.245  0.00  0.00    +0.000 A 
ATOM      3  C   UNL     1       0.749   9.080  20.443  0.00  0.00    +0.000 A 
ATOM      4  C   UNL     1       1.461   7.882  20.570  0.00  0.00    +0.000 A 
ATOM      5  C   UNL     1       2.214   7.396  19.496  0.00  0.00    +0.000 A 
ATOM      6  C   UNL     1       2.266   8.127  18.304  0.00  0.00    +0.000 A 
ATOM      7  C   UNL     1       1.560   9.327  18.183  0.00  0.00    +0.000 A 
BRANCH   5   8
ATOM      8  C   UNL     1       2.923   6.154  19.609  0.00  0.00    +0.000 C 
ATOM      9  N   UNL     1       3.508   5.156  19.692  0.00  0.00    +0.000 NA
ENDBRANCH   5   8
ENDBRANCH   1   2
BRANCH   1  10
ATOM     10  S   UNL     1       0.234  12.270  20.161  0.00  0.00    +0.000 S 
ATOM     11  O   UNL     1       1.187  11.854  21.173  0.00  0.00    +0.000 OA
ATOM     12  O   UNL     1      -1.070  12.759  20.565  0.00  0.00    +0.000 OA
BRANCH  10  17
ATOM     13  C   UNL     1       3.501  16.813  17.821  0.00  0.00    +0.000 C 
ATOM     14  C   UNL     1       2.594  15.686  18.231  0.00  0.00    +0.000 A 
ATOM     15  C   UNL     1       1.406  15.951  18.926  0.00  0.00    +0.000 A 
ATOM     16  C   UNL     1       0.623  14.903  19.427  0.00  0.00    +0.000 A 
ATOM     17  C   UNL     1       1.022  13.578  19.231  0.00  0.00    +0.000 A 
ATOM     18  C   UNL     1       2.200  13.304  18.524  0.00  0.00    +0.000 A 
ATOM     19  C   UNL     1       2.978  14.355  18.024  0.00  0.00    +0.000 A 
ENDBRANCH  10  17
ENDBRANCH   1  10
BRANCH   1  20
ATOM     20  C   UNL     1      -0.893  11.119  17.939  0.00  0.00    +0.000 C 
BRANCH  20  21
ATOM     21  C   UNL     1      -2.346  10.766  18.208  0.00  0.00    +0.000 C 
ATOM     22  O   UNL     1      -2.734   9.600  18.169  0.00  0.00    +0.000 OA
ATOM     23  N   UNL     1      -3.149  11.874  18.462  0.00  0.00    +0.000 N 
ATOM     24  H   UNL     1      -2.724  12.792  18.382  0.00  0.00    +0.000 HD
BRANCH  23  25
ATOM     25  C   UNL     1      -4.547  11.864  18.703  0.00  0.00    +0.000 A 
ATOM     26  C   UNL     1      -5.497  11.427  17.785  0.00  0.00    +0.000 A 
ATOM     27  C   UNL     1      -6.857  11.532  18.080  0.00  0.00    +0.000 A 
ATOM     28  C   UNL     1      -7.232  12.058  19.303  0.00  0.00    +0.000 A 
ATOM     29  N   UNL     1      -6.348  12.450  20.243  0.00  0.00    +0.000 NA
ATOM     30  C   UNL     1      -5.034  12.339  19.924  0.00  0.00    +0.000 A 
ENDBRANCH  23  25
ENDBRANCH  20  21
ENDBRANCH   1  20
TORSDOF 7
ENDMDL
MODEL 6
REMARK VINA RESULT:      -6.4      2.290      3.456
REMARK  Name = 
REMARK  8 active torsions:
REMARK  status: ('A' for Active; 'I' for Inactive)
REMARK    1  A    between atoms: C_1  and  C_2
REMARK    2  A    between atoms: C_5  and  S_6
REMARK    3  A    between atoms: S_6  and  N_9
REMARK    4  A    between atoms: N_9  and  C_10
REMARK    5  A    between atoms: N_9  and  C_20
REMARK    6  A    between atoms: C_10  and  C_11
REMARK    7  A    between atoms: N_13  and  C_14
REMARK    8  A    between atoms: C_23  and  C_24
REMARK                            x       y       z     vdW  Elec       q    Type
REMARK                         _______ _______ _______ _____ _____    ______ ____
ROOT
ATOM      1  N   UNL     1      -0.036  10.949  19.069  0.00  0.00    +0.000 N 
ENDROOT
BRANCH   1   2
ATOM      2  C   UNL     1       0.698   9.732  19.177  0.00  0.00    +0.000 A 
ATOM      3  C   UNL     1       1.448   9.277  18.089  0.00  0.00    +0.000 A 
ATOM      4  C   UNL     1       2.229   8.121  18.207  0.00  0.00    +0.000 A 
ATOM      5  C   UNL     1       2.263   7.419  19.416  0.00  0.00    +0.000 A 
ATOM      6  C   UNL     1       1.498   7.868  20.497  0.00  0.00    +0.000 A 
ATOM      7  C   UNL     1       0.713   9.018  20.375  0.00  0.00    +0.000 A 
BRANCH   5   8
ATOM      8  C   UNL     1       3.084   6.250  19.553  0.00  0.00    +0.000 C 
ATOM      9  N   UNL     1       3.737   5.299  19.676  0.00  0.00    +0.000 NA
ENDBRANCH   5   8
ENDBRANCH   1   2
BRANCH   1  10
ATOM     10  S   UNL     1       0.273  12.211  20.144  0.00  0.00    +0.000 S 
ATOM     11  O   UNL     1       1.238  11.740  21.119  0.00  0.00    +0.000 OA
ATOM     12  O   UNL     1      -1.000  12.740  20.596  0.00  0.00    +0.000 OA
BRANCH  10  17
ATOM     13  C   UNL     1       3.585  16.728  17.820  0.00  0.00    +0.000 C 
ATOM     14  C   UNL     1       2.672  15.604  18.223  0.00  0.00    +0.000 A 
ATOM     15  C   UNL     1       1.462  15.875  18.877  0.00  0.00    +0.000 A 
ATOM     16  C   UNL     1       0.670  14.833  19.374  0.00  0.00    +0.000 A 
ATOM     17  C   UNL     1       1.082  13.506  19.214  0.00  0.00    +0.000 A 
ATOM     18  C   UNL     1       2.282  13.226  18.548  0.00  0.00    +0.000 A 
ATOM     19  C   UNL     1       3.069  14.272  18.053  0.00  0.00    +0.000 A 
ENDBRANCH  10  17
ENDBRANCH   1  10
BRANCH   1  20
ATOM     20  C   UNL     1      -0.949  11.149  17.927  0.00  0.00    +0.000 C 
BRANCH  20  21
ATOM     21  C   UNL     1      -2.408  10.836  18.214  0.00  0.00    +0.000 C 
ATOM     22  O   UNL     1      -2.834   9.684  18.155  0.00  0.00    +0.000 OA
ATOM     23  N   UNL     1      -3.171  11.962  18.509  0.00  0.00    +0.000 N 
ATOM     24  H   UNL     1      -2.718  12.868  18.443  0.00  0.00    +0.000 HD
BRANCH  23  25
ATOM     25  C   UNL     1      -4.564  11.991  18.775  0.00  0.00    +0.000 A 
ATOM     26  C   UNL     1      -5.115  12.177  20.040  0.00  0.00    +0.000 A 
ATOM     27  C   UNL     1      -6.498  12.107  20.219  0.00  0.00    +0.000 A 
ATOM     28  C   UNL     1      -7.298  11.870  19.116  0.00  0.00    +0.000 A 
ATOM     29  N   UNL     1      -6.814  11.730  17.865  0.00  0.00    +0.000 NA
ATOM     30  C   UNL     1      -5.465  11.799  17.725  0.00  0.00    +0.000 A 
ENDBRANCH  23  25
ENDBRANCH  20  21
ENDBRANCH   1  20
TORSDOF 7
ENDMDL
MODEL 7
REMARK VINA RESULT:      -6.4      2.224      3.594
REMARK  Name = 
REMARK  8 active torsions:
REMARK  status: ('A' for Active; 'I' for Inactive)
REMARK    1  A    between atoms: C_1  and  C_2
REMARK    2  A    between atoms: C_5  and  S_6
REMARK    3  A    between atoms: S_6  and  N_9
REMARK    4  A    between atoms: N_9  and  C_10
REMARK    5  A    between atoms: N_9  and  C_20
REMARK    6  A    between atoms: C_10  and  C_11
REMARK    7  A    between atoms: N_13  and  C_14
REMARK    8  A    between atoms: C_23  and  C_24
REMARK                            x       y       z     vdW  Elec       q    Type
REMARK                         _______ _______ _______ _____ _____    ______ ____
ROOT
ATOM      1  N   UNL     1       0.051  11.123  19.269  0.00  0.00    +0.000 N 
ENDROOT
BRANCH   1   2
ATOM      2  C   UNL     1       0.825   9.928  19.326  0.00  0.00    +0.000 A 
ATOM      3  C   UNL     1       0.800   9.141  20.481  0.00  0.00    +0.000 A 
ATOM      4  C   UNL     1       1.499   7.930  20.523  0.00  0.00    +0.000 A 
ATOM      5  C   UNL     1       2.224   7.500  19.406  0.00  0.00    +0.000 A 
ATOM      6  C   UNL     1       2.260   8.299  18.258  0.00  0.00    +0.000 A 
ATOM      7  C   UNL     1       1.567   9.511  18.222  0.00  0.00    +0.000 A 
BRANCH   5   8
ATOM      8  C   UNL     1       2.919   6.246  19.431  0.00  0.00    +0.000 C 
ATOM      9  N   UNL     1       3.475   5.227  19.437  0.00  0.00    +0.000 NA
ENDBRANCH   5   8
ENDBRANCH   1   2
BRANCH   1  10
ATOM     10  S   UNL     1       0.247  12.305  20.457  0.00  0.00    +0.000 S 
ATOM     11  O   UNL     1       1.001  11.719  21.549  0.00  0.00    +0.000 OA
ATOM     12  O   UNL     1      -1.050  12.898  20.721  0.00  0.00    +0.000 OA
BRANCH  10  17
ATOM     13  C   UNL     1       3.160  16.562  17.268  0.00  0.00    +0.000 C 
ATOM     14  C   UNL     1       2.565  15.546  18.202  0.00  0.00    +0.000 A 
ATOM     15  C   UNL     1       2.997  14.213  18.168  0.00  0.00    +0.000 A 
ATOM     16  C   UNL     1       2.358  13.235  18.939  0.00  0.00    +0.000 A 
ATOM     17  C   UNL     1       1.280  13.586  19.758  0.00  0.00    +0.000 A 
ATOM     18  C   UNL     1       0.852  14.918  19.810  0.00  0.00    +0.000 A 
ATOM     19  C   UNL     1       1.496  15.892  19.038  0.00  0.00    +0.000 A 
ENDBRANCH  10  17
ENDBRANCH   1  10
BRANCH   1  20
ATOM     20  C   UNL     1      -0.801  11.383  18.093  0.00  0.00    +0.000 C 
BRANCH  20  21
ATOM     21  C   UNL     1      -2.261  10.998  18.264  0.00  0.00    +0.000 C 
ATOM     22  O   UNL     1      -2.642   9.847  18.060  0.00  0.00    +0.000 OA
ATOM     23  N   UNL     1      -3.077  12.063  18.634  0.00  0.00    +0.000 N 
ATOM     24  H   UNL     1      -2.654  12.984  18.690  0.00  0.00    +0.000 HD
BRANCH  23  25
ATOM     25  C   UNL     1      -4.482  12.021  18.825  0.00  0.00    +0.000 A 
ATOM     26  C   UNL     1      -5.107  12.152  20.061  0.00  0.00    +0.000 A 
ATOM     27  C   UNL     1      -6.493  12.015  20.164  0.00  0.00    +0.000 A 
ATOM     28  C   UNL     1      -7.221  11.767  19.014  0.00  0.00    +0.000 A 
ATOM     29  N   UNL     1      -6.665  11.680  17.789  0.00  0.00    +0.000 NA
ATOM     30  C   UNL     1      -5.316  11.814  17.724  0.00  0.00    +0.000 A 
ENDBRANCH  23  25
ENDBRANCH  20  21
ENDBRANCH   1  20
TORSDOF 7
ENDMDL
MODEL 8
REMARK VINA RESULT:      -6.4      2.567      7.190
REMARK  Name = 
REMARK  8 active torsions:
REMARK  status: ('A' for Active; 'I' for Inactive)
REMARK    1  A    between atoms: C_1  and  C_2
REMARK    2  A    between atoms: C_5  and  S_6
REMARK    3  A    between atoms: S_6  and  N_9
REMARK    4  A    between atoms: N_9  and  C_10
REMARK    5  A    between atoms: N_9  and  C_20
REMARK    6  A    between atoms: C_10  and  C_11
REMARK    7  A    between atoms: N_13  and  C_14
REMARK    8  A    between atoms: C_23  and  C_24
REMARK                            x       y       z     vdW  Elec       q    Type
REMARK                         _______ _______ _______ _____ _____    ______ ____
ROOT
ATOM      1  N   UNL     1       0.686  10.750  20.763  0.00  0.00    +0.000 N 
ENDROOT
BRANCH   1   2
ATOM      2  C   UNL     1      -0.079  11.650  21.562  0.00  0.00    +0.000 A 
ATOM      3  C   UNL     1      -1.140  11.162  22.329  0.00  0.00    +0.000 A 
ATOM      4  C   UNL     1      -1.853  12.023  23.171  0.00  0.00    +0.000 A 
ATOM      5  C   UNL     1      -1.502  13.375  23.251  0.00  0.00    +0.000 A 
ATOM      6  C   UNL     1      -0.449  13.861  22.469  0.00  0.00    +0.000 A 
ATOM      7  C   UNL     1       0.256  13.001  21.623  0.00  0.00    +0.000 A 
BRANCH   5   8
ATOM      8  C   UNL     1      -2.209  14.258  24.134  0.00  0.00    +0.000 C 
ATOM      9  N   UNL     1      -2.794  14.963  24.846  0.00  0.00    +0.000 NA
ENDBRANCH   5   8
ENDBRANCH   1   2
BRANCH   1  10
ATOM     10  S   UNL     1       0.818  11.011  19.102  0.00  0.00    +0.000 S 
ATOM     11  O   UNL     1       1.461   9.849  18.518  0.00  0.00    +0.000 OA
ATOM     12  O   UNL     1       1.396  12.326  18.897  0.00  0.00    +0.000 OA
BRANCH  10  17
ATOM     13  C   UNL     1      -5.091  10.769  17.761  0.00  0.00    +0.000 C 
ATOM     14  C   UNL     1      -3.602  10.907  17.915  0.00  0.00    +0.000 A 
ATOM     15  C   UNL     1      -2.754   9.842  17.581  0.00  0.00    +0.000 A 
ATOM     16  C   UNL     1      -1.381   9.912  17.845  0.00  0.00    +0.000 A 
ATOM     17  C   UNL     1      -0.843  11.056  18.443  0.00  0.00    +0.000 A 
ATOM     18  C   UNL     1      -1.681  12.131  18.766  0.00  0.00    +0.000 A 
ATOM     19  C   UNL     1      -3.053  12.056  18.498  0.00  0.00    +0.000 A 
ENDBRANCH  10  17
ENDBRANCH   1  10
BRANCH   1  20
ATOM     20  C   UNL     1       1.477   9.689  21.415  0.00  0.00    +0.000 C 
BRANCH  20  21
ATOM     21  C   UNL     1       1.091   8.273  21.023  0.00  0.00    +0.000 C 
ATOM     22  O   UNL     1      -0.028   7.828  21.272  0.00  0.00    +0.000 OA
ATOM     23  N   UNL     1       2.120   7.567  20.406  0.00  0.00    +0.000 N 
ATOM     24  H   UNL     1       3.025   8.020  20.334  0.00  0.00    +0.000 HD
BRANCH  23  25
ATOM     25  C   UNL     1       2.073   6.218  19.969  0.00  0.00    +0.000 A 
ATOM     26  C   UNL     1       2.190   5.821  18.640  0.00  0.00    +0.000 A 
ATOM     27  C   UNL     1       2.049   4.476  18.296  0.00  0.00    +0.000 A 
ATOM     28  C   UNL     1       1.811   3.556  19.300  0.00  0.00    +0.000 A 
ATOM     29  N   UNL     1       1.736   3.886  20.606  0.00  0.00    +0.000 NA
ATOM     30  C   UNL     1       1.874   5.202  20.907  0.00  0.00    +0.000 A 
ENDBRANCH  23  25
ENDBRANCH  20  21
ENDBRANCH   1  20
TORSDOF 7
ENDMDL
MODEL 9
REMARK VINA RESULT:      -6.4      2.131      3.213
REMARK  Name = 
REMARK  8 active torsions:
REMARK  status: ('A' for Active; 'I' for Inactive)
REMARK    1  A    between atoms: C_1  and  C_2
REMARK    2  A    between atoms: C_5  and  S_6
REMARK    3  A    between atoms: S_6  and  N_9
REMARK    4  A    between atoms: N_9  and  C_10
REMARK    5  A    between atoms: N_9  and  C_20
REMARK    6  A    between atoms: C_10  and  C_11
REMARK    7  A    between atoms: N_13  and  C_14
REMARK    8  A    between atoms: C_23  and  C_24
REMARK                            x       y       z     vdW  Elec       q    Type
REMARK                         _______ _______ _______ _____ _____    ______ ____
ROOT
ATOM      1  N   UNL     1      -0.054  11.322  19.252  0.00  0.00    +0.000 N 
ENDROOT
BRANCH   1   2
ATOM      2  C   UNL     1       0.711  10.122  19.329  0.00  0.00    +0.000 A 
ATOM      3  C   UNL     1       0.690   9.362  20.502  0.00  0.00    +0.000 A 
ATOM      4  C   UNL     1       1.382   8.147  20.564  0.00  0.00    +0.000 A 
ATOM      5  C   UNL     1       2.093   7.686  19.452  0.00  0.00    +0.000 A 
ATOM      6  C   UNL     1       2.124   8.458  18.285  0.00  0.00    +0.000 A 
ATOM      7  C   UNL     1       1.440   9.675  18.228  0.00  0.00    +0.000 A 
BRANCH   5   8
ATOM      8  C   UNL     1       2.780   6.428  19.498  0.00  0.00    +0.000 C 
ATOM      9  N   UNL     1       3.329   5.407  19.551  0.00  0.00    +0.000 NA
ENDBRANCH   5   8
ENDBRANCH   1   2
BRANCH   1  10
ATOM     10  S   UNL     1       0.189  12.545  20.387  0.00  0.00    +0.000 S 
ATOM     11  O   UNL     1       1.460  12.299  21.042  0.00  0.00    +0.000 OA
ATOM     12  O   UNL     1      -1.016  12.664  21.186  0.00  0.00    +0.000 OA
BRANCH  10  17
ATOM     13  C   UNL     1       1.093  18.128  18.200  0.00  0.00    +0.000 C 
ATOM     14  C   UNL     1       0.823  16.694  18.559  0.00  0.00    +0.000 A 
ATOM     15  C   UNL     1      -0.448  16.303  19.003  0.00  0.00    +0.000 A 
ATOM     16  C   UNL     1      -0.674  15.000  19.464  0.00  0.00    +0.000 A 
ATOM     17  C   UNL     1       0.374  14.074  19.480  0.00  0.00    +0.000 A 
ATOM     18  C   UNL     1       1.643  14.452  19.023  0.00  0.00    +0.000 A 
ATOM     19  C   UNL     1       1.862  15.755  18.562  0.00  0.00    +0.000 A 
ENDBRANCH  10  17
ENDBRANCH   1  10
BRANCH   1  20
ATOM     20  C   UNL     1      -0.942  11.546  18.094  0.00  0.00    +0.000 C 
BRANCH  20  21
ATOM     21  C   UNL     1      -2.386  11.121  18.305  0.00  0.00    +0.000 C 
ATOM     22  O   UNL     1      -2.748   9.968  18.076  0.00  0.00    +0.000 OA
ATOM     23  N   UNL     1      -3.211  12.154  18.739  0.00  0.00    +0.000 N 
ATOM     24  H   UNL     1      -2.807  13.081  18.811  0.00  0.00    +0.000 HD
BRANCH  23  25
ATOM     25  C   UNL     1      -4.607  12.073  18.980  0.00  0.00    +0.000 A 
ATOM     26  C   UNL     1      -5.196  12.223  20.232  0.00  0.00    +0.000 A 
ATOM     27  C   UNL     1      -6.572  12.045  20.385  0.00  0.00    +0.000 A 
ATOM     28  C   UNL     1      -7.328  11.736  19.270  0.00  0.00    +0.000 A 
ATOM     29  N   UNL     1      -6.811  11.627  18.029  0.00  0.00    +0.000 NA
ATOM     30  C   UNL     1      -5.470  11.803  17.915  0.00  0.00    +0.000 A 
ENDBRANCH  23  25
ENDBRANCH  20  21
ENDBRANCH   1  20
TORSDOF 7
ENDMDL
