MODEL 1
REMARK VINA RESULT:      -7.7      0.000      0.000
REMARK  Name = 
REMARK  8 active torsions:
REMARK  status: ('A' for Active; 'I' for Inactive)
REMARK    1  A    between atoms: N_1  and  C_2
REMARK    2  A    between atoms: C_3  and  N_4
REMARK    3  A    between atoms: N_4  and  C_5
REMARK    4  A    between atoms: C_5  and  C_6
REMARK    5  A    between atoms: C_6  and  O_7
REMARK    6  A    between atoms: C_8  and  C_10
REMARK    7  A    between atoms: N_20  and  C_21
REMARK    8  A    between atoms: C_21  and  C_22
REMARK                            x       y       z     vdW  Elec       q    Type
REMARK                         _______ _______ _______ _____ _____    ______ ____
ROOT
ATOM      1  C   UNL     1       4.512   4.184  17.144  0.00  0.00    +0.000 A 
ATOM      2  C   UNL     1       4.641   4.299  18.496  0.00  0.00    +0.000 A 
ATOM      3  C   UNL     1       5.989   4.653  19.034  0.00  0.00    +0.000 A 
ATOM      4  O   UNL     1       6.167   5.105  20.154  0.00  0.00    +0.000 OA
ATOM      5  N   UNL     1       7.022   4.455  18.165  0.00  0.00    +0.000 N 
ATOM      6  C   UNL     1       6.862   4.740  16.841  0.00  0.00    +0.000 A 
ATOM      7  O   UNL     1       7.816   5.205  16.213  0.00  0.00    +0.000 OA
ATOM      8  N   UNL     1       5.588   4.541  16.324  0.00  0.00    +0.000 N 
ATOM      9  H   UNL     1       7.926   4.740  18.527  0.00  0.00    +0.000 HD
ENDROOT
BRANCH   1  10
ATOM     10  N   UNL     1       3.309   3.787  16.593  0.00  0.00    +0.000 N 
ATOM     11  H   UNL     1       2.766   3.145  17.166  0.00  0.00    +0.000 HD
ATOM     12  H   UNL     1       2.776   4.496  16.106  0.00  0.00    +0.000 HD
ENDBRANCH   1  10
BRANCH   2  13
ATOM     13  N   UNL     1       3.584   4.178  19.386  0.00  0.00    +0.000 N 
ATOM     14  C   UNL     1       2.713   5.209  19.747  0.00  0.00    +0.000 C 
ATOM     15  O   UNL     1       1.796   4.960  20.551  0.00  0.00    +0.000 OA
BRANCH  14  16
ATOM     16  C   UNL     1       2.847   6.664  19.276  0.00  0.00    +0.000 C 
ATOM     17  C   UNL     1       2.439   7.115  17.882  0.00  0.00    +0.000 C 
ATOM     18  C   UNL     1       2.206   8.618  18.029  0.00  0.00    +0.000 C 
ATOM     19  C   UNL     1       1.634   8.812  19.422  0.00  0.00    +0.000 C 
ATOM     20  C   UNL     1       1.916   7.519  20.169  0.00  0.00    +0.000 C 
ENDBRANCH  14  16
BRANCH  13  21
ATOM     21  C   UNL     1       3.438   2.988  20.244  0.00  0.00    +0.000 C 
BRANCH  21  22
ATOM     22  C   UNL     1       4.053   1.649  19.853  0.00  0.00    +0.000 C 
BRANCH  22  23
ATOM     23  O   UNL     1       5.348   1.494  20.421  0.00  0.00    +0.000 OA
ATOM     24  H   UNL     1       5.233   1.316  21.369  0.00  0.00    +0.000 HD
ENDBRANCH  22  23
ENDBRANCH  21  22
ENDBRANCH  13  21
ENDBRANCH   2  13
BRANCH   8  25
ATOM     25  C   UNL     1       5.342   5.111  14.986  0.00  0.00    +0.000 C 
BRANCH  25  26
ATOM     26  C   UNL     1       5.813   4.321  13.783  0.00  0.00    +0.000 A 
ATOM     27  C   UNL     1       4.939   3.422  13.145  0.00  0.00    +0.000 A 
ATOM     28  C   UNL     1       5.282   2.834  11.924  0.00  0.00    +0.000 A 
ATOM     29  C   UNL     1       6.500   3.133  11.321  0.00  0.00    +0.000 A 
ATOM     30  C   UNL     1       7.385   4.006  11.948  0.00  0.00    +0.000 A 
ATOM     31  C   UNL     1       7.045   4.595  13.170  0.00  0.00    +0.000 A 
ENDBRANCH  25  26
ENDBRANCH   8  25
TORSDOF 8
ENDMDL
MODEL 2
REMARK VINA RESULT:      -7.6      0.825      1.239
REMARK  Name = 
REMARK  8 active torsions:
REMARK  status: ('A' for Active; 'I' for Inactive)
REMARK    1  A    between atoms: N_1  and  C_2
REMARK    2  A    between atoms: C_3  and  N_4
REMARK    3  A    between atoms: N_4  and  C_5
REMARK    4  A    between atoms: C_5  and  C_6
REMARK    5  A    between atoms: C_6  and  O_7
REMARK    6  A    between atoms: C_8  and  C_10
REMARK    7  A    between atoms: N_20  and  C_21
REMARK    8  A    between atoms: C_21  and  C_22
REMARK                            x       y       z     vdW  Elec       q    Type
REMARK                         _______ _______ _______ _____ _____    ______ ____
ROOT
ATOM      1  C   UNL     1       4.806   4.121  16.910  0.00  0.00    +0.000 A 
ATOM      2  C   UNL     1       4.990   4.244  18.255  0.00  0.00    +0.000 A 
ATOM      3  C   UNL     1       6.275   4.844  18.725  0.00  0.00    +0.000 A 
ATOM      4  O   UNL     1       6.429   5.310  19.842  0.00  0.00    +0.000 OA
ATOM      5  N   UNL     1       7.274   4.856  17.795  0.00  0.00    +0.000 N 
ATOM      6  C   UNL     1       6.986   5.118  16.489  0.00  0.00    +0.000 A 
ATOM      7  O   UNL     1       7.796   5.763  15.819  0.00  0.00    +0.000 OA
ATOM      8  N   UNL     1       5.745   4.685  16.039  0.00  0.00    +0.000 N 
ATOM      9  H   UNL     1       8.127   5.304  18.113  0.00  0.00    +0.000 HD
ENDROOT
BRANCH   1  10
ATOM     10  N   UNL     1       3.670   3.507  16.418  0.00  0.00    +0.000 N 
ATOM     11  H   UNL     1       2.792   3.905  16.743  0.00  0.00    +0.000 HD
ATOM     12  H   UNL     1       3.690   3.226  15.446  0.00  0.00    +0.000 HD
ENDBRANCH   1  10
BRANCH   2  13
ATOM     13  N   UNL     1       4.029   3.915  19.199  0.00  0.00    +0.000 N 
ATOM     14  C   UNL     1       3.093   4.800  19.739  0.00  0.00    +0.000 C 
ATOM     15  O   UNL     1       2.276   4.369  20.573  0.00  0.00    +0.000 OA
BRANCH  14  16
ATOM     16  C   UNL     1       3.041   6.304  19.431  0.00  0.00    +0.000 C 
ATOM     17  C   UNL     1       2.564   6.851  18.094  0.00  0.00    +0.000 C 
ATOM     18  C   UNL     1       2.150   8.288  18.405  0.00  0.00    +0.000 C 
ATOM     19  C   UNL     1       1.575   8.256  19.810  0.00  0.00    +0.000 C 
ATOM     20  C   UNL     1       2.024   6.935  20.411  0.00  0.00    +0.000 C 
ENDBRANCH  14  16
BRANCH  13  21
ATOM     21  C   UNL     1       4.075   2.631  19.922  0.00  0.00    +0.000 C 
BRANCH  21  22
ATOM     22  C   UNL     1       3.805   1.310  19.210  0.00  0.00    +0.000 C 
BRANCH  22  23
ATOM     23  O   UNL     1       2.690   1.419  18.333  0.00  0.00    +0.000 OA
ATOM     24  H   UNL     1       3.006   1.232  17.434  0.00  0.00    +0.000 HD
ENDBRANCH  22  23
ENDBRANCH  21  22
ENDBRANCH  13  21
ENDBRANCH   2  13
BRANCH   8  25
ATOM     25  C   UNL     1       5.317   5.211  14.729  0.00  0.00    +0.000 C 
BRANCH  25  26
ATOM     26  C   UNL     1       5.678   4.413  13.494  0.00  0.00    +0.000 A 
ATOM     27  C   UNL     1       6.999   4.419  13.012  0.00  0.00    +0.000 A 
ATOM     28  C   UNL     1       7.399   3.541  12.000  0.00  0.00    +0.000 A 
ATOM     29  C   UNL     1       6.486   2.643  11.454  0.00  0.00    +0.000 A 
ATOM     30  C   UNL     1       5.169   2.636  11.905  0.00  0.00    +0.000 A 
ATOM     31  C   UNL     1       4.767   3.515  12.917  0.00  0.00    +0.000 A 
ENDBRANCH  25  26
ENDBRANCH   8  25
TORSDOF 8
ENDMDL
MODEL 3
REMARK VINA RESULT:      -7.2      3.334      7.210
REMARK  Name = 
REMARK  8 active torsions:
REMARK  status: ('A' for Active; 'I' for Inactive)
REMARK    1  A    between atoms: N_1  and  C_2
REMARK    2  A    between atoms: C_3  and  N_4
REMARK    3  A    between atoms: N_4  and  C_5
REMARK    4  A    between atoms: C_5  and  C_6
REMARK    5  A    between atoms: C_6  and  O_7
REMARK    6  A    between atoms: C_8  and  C_10
REMARK    7  A    between atoms: N_20  and  C_21
REMARK    8  A    between atoms: C_21  and  C_22
REMARK                            x       y       z     vdW  Elec       q    Type
REMARK                         _______ _______ _______ _____ _____    ______ ____
ROOT
ATOM      1  C   UNL     1       2.357   7.531  18.444  0.00  0.00    +0.000 A 
ATOM      2  C   UNL     1       2.523   6.306  19.018  0.00  0.00    +0.000 A 
ATOM      3  C   UNL     1       2.073   6.140  20.433  0.00  0.00    +0.000 A 
ATOM      4  O   UNL     1       1.855   5.054  20.946  0.00  0.00    +0.000 OA
ATOM      5  N   UNL     1       1.899   7.308  21.118  0.00  0.00    +0.000 N 
ATOM      6  C   UNL     1       1.362   8.392  20.491  0.00  0.00    +0.000 A 
ATOM      7  O   UNL     1       0.617   9.140  21.128  0.00  0.00    +0.000 OA
ATOM      8  N   UNL     1       1.654   8.520  19.139  0.00  0.00    +0.000 N 
ATOM      9  H   UNL     1       1.553   7.183  22.064  0.00  0.00    +0.000 HD
ENDROOT
BRANCH   1  10
ATOM     10  N   UNL     1       2.821   7.764  17.163  0.00  0.00    +0.000 N 
ATOM     11  H   UNL     1       3.829   7.876  17.085  0.00  0.00    +0.000 HD
ATOM     12  H   UNL     1       2.379   7.240  16.418  0.00  0.00    +0.000 HD
ENDBRANCH   1  10
BRANCH   2  13
ATOM     13  N   UNL     1       3.011   5.197  18.345  0.00  0.00    +0.000 N 
ATOM     14  C   UNL     1       4.360   4.927  18.106  0.00  0.00    +0.000 C 
ATOM     15  O   UNL     1       4.662   3.885  17.497  0.00  0.00    +0.000 OA
BRANCH  14  16
ATOM     16  C   UNL     1       5.513   5.870  18.481  0.00  0.00    +0.000 C 
ATOM     17  C   UNL     1       6.803   5.376  19.119  0.00  0.00    +0.000 C 
ATOM     18  C   UNL     1       7.819   6.471  18.803  0.00  0.00    +0.000 C 
ATOM     19  C   UNL     1       7.443   6.999  17.429  0.00  0.00    +0.000 C 
ATOM     20  C   UNL     1       6.033   6.499  17.166  0.00  0.00    +0.000 C 
ENDBRANCH  14  16
BRANCH  13  21
ATOM     21  C   UNL     1       2.114   4.310  17.581  0.00  0.00    +0.000 C 
BRANCH  21  22
ATOM     22  C   UNL     1       1.555   3.030  18.193  0.00  0.00    +0.000 C 
BRANCH  22  23
ATOM     23  O   UNL     1       2.320   1.896  17.799  0.00  0.00    +0.000 OA
ATOM     24  H   UNL     1       2.081   1.685  16.882  0.00  0.00    +0.000 HD
ENDBRANCH  22  23
ENDBRANCH  21  22
ENDBRANCH  13  21
ENDBRANCH   2  13
BRANCH   8  25
ATOM     25  C   UNL     1       0.853   9.517  18.400  0.00  0.00    +0.000 C 
BRANCH  25  26
ATOM     26  C   UNL     1       1.187  10.980  18.599  0.00  0.00    +0.000 A 
ATOM     27  C   UNL     1       2.401  11.498  18.113  0.00  0.00    +0.000 A 
ATOM     28  C   UNL     1       2.643  12.874  18.108  0.00  0.00    +0.000 A 
ATOM     29  C   UNL     1       1.678  13.756  18.588  0.00  0.00    +0.000 A 
ATOM     30  C   UNL     1       0.479  13.259  19.091  0.00  0.00    +0.000 A 
ATOM     31  C   UNL     1       0.235  11.882  19.097  0.00  0.00    +0.000 A 
ENDBRANCH  25  26
ENDBRANCH   8  25
TORSDOF 8
ENDMDL
MODEL 4
REMARK VINA RESULT:      -6.9      4.440      7.447
REMARK  Name = 
REMARK  8 active torsions:
REMARK  status: ('A' for Active; 'I' for Inactive)
REMARK    1  A    between atoms: N_1  and  C_2
REMARK    2  A    between atoms: C_3  and  N_4
REMARK    3  A    between atoms: N_4  and  C_5
REMARK    4  A    between atoms: C_5  and  C_6
REMARK    5  A    between atoms: C_6  and  O_7
REMARK    6  A    between atoms: C_8  and  C_10
REMARK    7  A    between atoms: N_20  and  C_21
REMARK    8  A    between atoms: C_21  and  C_22
REMARK                            x       y       z     vdW  Elec       q    Type
REMARK                         _______ _______ _______ _____ _____    ______ ____
ROOT
ATOM      1  C   UNL     1       1.536   9.140  18.763  0.00  0.00    +0.000 A 
ATOM      2  C   UNL     1       0.951  10.084  19.552  0.00  0.00    +0.000 A 
ATOM      3  C   UNL     1       0.652   9.713  20.968  0.00  0.00    +0.000 A 
ATOM      4  O   UNL     1       0.449  10.534  21.849  0.00  0.00    +0.000 OA
ATOM      5  N   UNL     1       0.644   8.372  21.218  0.00  0.00    +0.000 N 
ATOM      6  C   UNL     1       1.558   7.561  20.615  0.00  0.00    +0.000 A 
ATOM      7  O   UNL     1       2.011   6.602  21.245  0.00  0.00    +0.000 OA
ATOM      8  N   UNL     1       1.959   7.937  19.339  0.00  0.00    +0.000 N 
ATOM      9  H   UNL     1       0.481   8.135  22.191  0.00  0.00    +0.000 HD
ENDROOT
BRANCH   1  10
ATOM     10  N   UNL     1       1.769   9.400  17.426  0.00  0.00    +0.000 N 
ATOM     11  H   UNL     1       1.147   8.918  16.781  0.00  0.00    +0.000 HD
ATOM     12  H   UNL     1       1.997  10.355  17.182  0.00  0.00    +0.000 HD
ENDBRANCH   1  10
BRANCH   2  13
ATOM     13  N   UNL     1       0.688  11.381  19.138  0.00  0.00    +0.000 N 
ATOM     14  C   UNL     1      -0.549  11.851  18.692  0.00  0.00    +0.000 C 
ATOM     15  O   UNL     1      -0.650  13.046  18.360  0.00  0.00    +0.000 OA
BRANCH  14  16
ATOM     16  C   UNL     1      -1.796  10.973  18.509  0.00  0.00    +0.000 C 
ATOM     17  C   UNL     1      -3.205  11.546  18.484  0.00  0.00    +0.000 C 
ATOM     18  C   UNL     1      -4.025  10.486  17.750  0.00  0.00    +0.000 C 
ATOM     19  C   UNL     1      -3.095   9.896  16.704  0.00  0.00    +0.000 C 
ATOM     20  C   UNL     1      -1.694  10.323  17.109  0.00  0.00    +0.000 C 
ENDBRANCH  14  16
BRANCH  13  21
ATOM     21  C   UNL     1       1.780  12.339  18.885  0.00  0.00    +0.000 C 
BRANCH  21  22
ATOM     22  C   UNL     1       2.251  13.308  19.964  0.00  0.00    +0.000 C 
BRANCH  22  23
ATOM     23  O   UNL     1       1.609  13.045  21.206  0.00  0.00    +0.000 OA
ATOM     24  H   UNL     1       0.703  13.389  21.146  0.00  0.00    +0.000 HD
ENDBRANCH  22  23
ENDBRANCH  21  22
ENDBRANCH  13  21
ENDBRANCH   2  13
BRANCH   8  25
ATOM     25  C   UNL     1       3.143   7.236  18.805  0.00  0.00    +0.000 C 
BRANCH  25  26
ATOM     26  C   UNL     1       2.925   5.909  18.110  0.00  0.00    +0.000 A 
ATOM     27  C   UNL     1       4.022   5.199  17.589  0.00  0.00    +0.000 A 
ATOM     28  C   UNL     1       3.873   3.889  17.123  0.00  0.00    +0.000 A 
ATOM     29  C   UNL     1       2.629   3.268  17.170  0.00  0.00    +0.000 A 
ATOM     30  C   UNL     1       1.528   3.963  17.666  0.00  0.00    +0.000 A 
ATOM     31  C   UNL     1       1.675   5.273  18.131  0.00  0.00    +0.000 A 
ENDBRANCH  25  26
ENDBRANCH   8  25
TORSDOF 8
ENDMDL
MODEL 5
REMARK VINA RESULT:      -6.5      9.781     13.292
REMARK  Name = 
REMARK  8 active torsions:
REMARK  status: ('A' for Active; 'I' for Inactive)
REMARK    1  A    between atoms: N_1  and  C_2
REMARK    2  A    between atoms: C_3  and  N_4
REMARK    3  A    between atoms: N_4  and  C_5
REMARK    4  A    between atoms: C_5  and  C_6
REMARK    5  A    between atoms: C_6  and  O_7
REMARK    6  A    between atoms: C_8  and  C_10
REMARK    7  A    between atoms: N_20  and  C_21
REMARK    8  A    between atoms: C_21  and  C_22
REMARK                            x       y       z     vdW  Elec       q    Type
REMARK                         _______ _______ _______ _____ _____    ______ ____
ROOT
ATOM      1  C   UNL     1      -3.673  14.073  21.223  0.00  0.00    +0.000 A 
ATOM      2  C   UNL     1      -2.484  13.407  21.258  0.00  0.00    +0.000 A 
ATOM      3  C   UNL     1      -2.291  12.396  22.340  0.00  0.00    +0.000 A 
ATOM      4  O   UNL     1      -1.445  11.516  22.294  0.00  0.00    +0.000 OA
ATOM      5  N   UNL     1      -3.153  12.510  23.391  0.00  0.00    +0.000 N 
ATOM      6  C   UNL     1      -4.457  12.840  23.170  0.00  0.00    +0.000 A 
ATOM      7  O   UNL     1      -5.328  12.333  23.880  0.00  0.00    +0.000 OA
ATOM      8  N   UNL     1      -4.698  13.685  22.094  0.00  0.00    +0.000 N 
ATOM      9  H   UNL     1      -3.039  11.792  24.099  0.00  0.00    +0.000 HD
ENDROOT
BRANCH   1  10
ATOM     10  N   UNL     1      -3.882  15.071  20.291  0.00  0.00    +0.000 N 
ATOM     11  H   UNL     1      -4.373  15.890  20.642  0.00  0.00    +0.000 HD
ATOM     12  H   UNL     1      -3.123  15.258  19.647  0.00  0.00    +0.000 HD
ENDBRANCH   1  10
BRANCH   2  13
ATOM     13  N   UNL     1      -1.485  13.562  20.310  0.00  0.00    +0.000 N 
ATOM     14  C   UNL     1      -1.321  12.768  19.173  0.00  0.00    +0.000 C 
ATOM     15  O   UNL     1      -0.384  13.024  18.395  0.00  0.00    +0.000 OA
BRANCH  14  16
ATOM     16  C   UNL     1      -2.181  11.539  18.842  0.00  0.00    +0.000 C 
ATOM     17  C   UNL     1      -3.498  11.638  18.087  0.00  0.00    +0.000 C 
ATOM     18  C   UNL     1      -3.703  10.240  17.508  0.00  0.00    +0.000 C 
ATOM     19  C   UNL     1      -2.314   9.728  17.165  0.00  0.00    +0.000 C 
ATOM     20  C   UNL     1      -1.345  10.640  17.900  0.00  0.00    +0.000 C 
ENDBRANCH  14  16
BRANCH  13  21
ATOM     21  C   UNL     1      -0.326  14.440  20.557  0.00  0.00    +0.000 C 
BRANCH  21  22
ATOM     22  C   UNL     1      -0.407  15.944  20.324  0.00  0.00    +0.000 C 
BRANCH  22  23
ATOM     23  O   UNL     1      -1.328  16.254  19.285  0.00  0.00    +0.000 OA
ATOM     24  H   UNL     1      -0.910  16.017  18.441  0.00  0.00    +0.000 HD
ENDBRANCH  22  23
ENDBRANCH  21  22
ENDBRANCH  13  21
ENDBRANCH   2  13
BRANCH   8  25
ATOM     25  C   UNL     1      -6.109  13.812  21.680  0.00  0.00    +0.000 C 
BRANCH  25  26
ATOM     26  C   UNL     1      -6.589  12.950  20.532  0.00  0.00    +0.000 A 
ATOM     27  C   UNL     1      -6.860  13.531  19.280  0.00  0.00    +0.000 A 
ATOM     28  C   UNL     1      -7.112  12.736  18.158  0.00  0.00    +0.000 A 
ATOM     29  C   UNL     1      -7.097  11.348  18.268  0.00  0.00    +0.000 A 
ATOM     30  C   UNL     1      -6.849  10.756  19.504  0.00  0.00    +0.000 A 
ATOM     31  C   UNL     1      -6.598  11.550  20.627  0.00  0.00    +0.000 A 
ENDBRANCH  25  26
ENDBRANCH   8  25
TORSDOF 8
ENDMDL
MODEL 6
REMARK VINA RESULT:      -6.5      3.369      7.314
REMARK  Name = 
REMARK  8 active torsions:
REMARK  status: ('A' for Active; 'I' for Inactive)
REMARK    1  A    between atoms: N_1  and  C_2
REMARK    2  A    between atoms: C_3  and  N_4
REMARK    3  A    between atoms: N_4  and  C_5
REMARK    4  A    between atoms: C_5  and  C_6
REMARK    5  A    between atoms: C_6  and  O_7
REMARK    6  A    between atoms: C_8  and  C_10
REMARK    7  A    between atoms: N_20  and  C_21
REMARK    8  A    between atoms: C_21  and  C_22
REMARK                            x       y       z     vdW  Elec       q    Type
REMARK                         _______ _______ _______ _____ _____    ______ ____
ROOT
ATOM      1  C   UNL     1       2.427   7.922  18.547  0.00  0.00    +0.000 A 
ATOM      2  C   UNL     1       2.348   6.667  19.071  0.00  0.00    +0.000 A 
ATOM      3  C   UNL     1       1.802   6.529  20.455  0.00  0.00    +0.000 A 
ATOM      4  O   UNL     1       1.373   5.479  20.906  0.00  0.00    +0.000 OA
ATOM      5  N   UNL     1       1.794   7.683  21.184  0.00  0.00    +0.000 N 
ATOM      6  C   UNL     1       1.486   8.867  20.583  0.00  0.00    +0.000 A 
ATOM      7  O   UNL     1       0.848   9.708  21.219  0.00  0.00    +0.000 OA
ATOM      8  N   UNL     1       1.868   8.993  19.253  0.00  0.00    +0.000 N 
ATOM      9  H   UNL     1       1.382   7.585  22.106  0.00  0.00    +0.000 HD
ENDROOT
BRANCH   1  10
ATOM     10  N   UNL     1       2.991   8.119  17.301  0.00  0.00    +0.000 N 
ATOM     11  H   UNL     1       4.008   8.091  17.281  0.00  0.00    +0.000 HD
ATOM     12  H   UNL     1       2.526   7.681  16.517  0.00  0.00    +0.000 HD
ENDBRANCH   1  10
BRANCH   2  13
ATOM     13  N   UNL     1       2.674   5.515  18.371  0.00  0.00    +0.000 N 
ATOM     14  C   UNL     1       3.971   5.098  18.064  0.00  0.00    +0.000 C 
ATOM     15  O   UNL     1       4.122   4.034  17.437  0.00  0.00    +0.000 OA
BRANCH  14  16
ATOM     16  C   UNL     1       5.240   5.901  18.384  0.00  0.00    +0.000 C 
ATOM     17  C   UNL     1       6.415   5.307  19.147  0.00  0.00    +0.000 C 
ATOM     18  C   UNL     1       7.598   6.192  18.756  0.00  0.00    +0.000 C 
ATOM     19  C   UNL     1       7.357   6.588  17.310  0.00  0.00    +0.000 C 
ATOM     20  C   UNL     1       5.896   6.272  17.033  0.00  0.00    +0.000 C 
ENDBRANCH  14  16
BRANCH  13  21
ATOM     21  C   UNL     1       1.646   4.743  17.650  0.00  0.00    +0.000 C 
BRANCH  21  22
ATOM     22  C   UNL     1       0.981   3.525  18.281  0.00  0.00    +0.000 C 
BRANCH  22  23
ATOM     23  O   UNL     1       1.826   2.925  19.256  0.00  0.00    +0.000 OA
ATOM     24  H   UNL     1       1.750   1.962  19.157  0.00  0.00    +0.000 HD
ENDBRANCH  22  23
ENDBRANCH  21  22
ENDBRANCH  13  21
ENDBRANCH   2  13
BRANCH   8  25
ATOM     25  C   UNL     1       1.291  10.140  18.525  0.00  0.00    +0.000 C 
BRANCH  25  26
ATOM     26  C   UNL     1      -0.216  10.211  18.399  0.00  0.00    +0.000 A 
ATOM     27  C   UNL     1      -0.940  11.165  19.136  0.00  0.00    +0.000 A 
ATOM     28  C   UNL     1      -2.299  11.382  18.890  0.00  0.00    +0.000 A 
ATOM     29  C   UNL     1      -2.956  10.652  17.904  0.00  0.00    +0.000 A 
ATOM     30  C   UNL     1      -2.259   9.690  17.178  0.00  0.00    +0.000 A 
ATOM     31  C   UNL     1      -0.900   9.470  17.424  0.00  0.00    +0.000 A 
ENDBRANCH  25  26
ENDBRANCH   8  25
TORSDOF 8
ENDMDL
MODEL 7
REMARK VINA RESULT:      -6.5      4.555      7.553
REMARK  Name = 
REMARK  8 active torsions:
REMARK  status: ('A' for Active; 'I' for Inactive)
REMARK    1  A    between atoms: N_1  and  C_2
REMARK    2  A    between atoms: C_3  and  N_4
REMARK    3  A    between atoms: N_4  and  C_5
REMARK    4  A    between atoms: C_5  and  C_6
REMARK    5  A    between atoms: C_6  and  O_7
REMARK    6  A    between atoms: C_8  and  C_10
REMARK    7  A    between atoms: N_20  and  C_21
REMARK    8  A    between atoms: C_21  and  C_22
REMARK                            x       y       z     vdW  Elec       q    Type
REMARK                         _______ _______ _______ _____ _____    ______ ____
ROOT
ATOM      1  C   UNL     1       1.287   9.379  18.915  0.00  0.00    +0.000 A 
ATOM      2  C   UNL     1       0.783  10.263  19.822  0.00  0.00    +0.000 A 
ATOM      3  C   UNL     1       0.627   9.793  21.231  0.00  0.00    +0.000 A 
ATOM      4  O   UNL     1       0.514  10.549  22.183  0.00  0.00    +0.000 OA
ATOM      5  N   UNL     1       0.644   8.437  21.387  0.00  0.00    +0.000 N 
ATOM      6  C   UNL     1       1.493   7.676  20.641  0.00  0.00    +0.000 A 
ATOM      7  O   UNL     1       2.006   6.679  21.155  0.00  0.00    +0.000 OA
ATOM      8  N   UNL     1       1.765   8.142  19.361  0.00  0.00    +0.000 N 
ATOM      9  H   UNL     1       0.580   8.132  22.353  0.00  0.00    +0.000 HD
ENDROOT
BRANCH   1  10
ATOM     10  N   UNL     1       1.385   9.733  17.583  0.00  0.00    +0.000 N 
ATOM     11  H   UNL     1       2.330   9.735  17.208  0.00  0.00    +0.000 HD
ATOM     12  H   UNL     1       0.669   9.374  16.964  0.00  0.00    +0.000 HD
ENDBRANCH   1  10
BRANCH   2  13
ATOM     13  N   UNL     1       0.481  11.584  19.528  0.00  0.00    +0.000 N 
ATOM     14  C   UNL     1      -0.739  12.039  19.023  0.00  0.00    +0.000 C 
ATOM     15  O   UNL     1      -0.881  13.257  18.814  0.00  0.00    +0.000 OA
BRANCH  14  16
ATOM     16  C   UNL     1      -1.912  11.127  18.634  0.00  0.00    +0.000 C 
ATOM     17  C   UNL     1      -3.364  11.568  18.743  0.00  0.00    +0.000 C 
ATOM     18  C   UNL     1      -4.106  10.647  17.776  0.00  0.00    +0.000 C 
ATOM     19  C   UNL     1      -3.150  10.403  16.622  0.00  0.00    +0.000 C 
ATOM     20  C   UNL     1      -1.782  10.840  17.120  0.00  0.00    +0.000 C 
ENDBRANCH  14  16
BRANCH  13  21
ATOM     21  C   UNL     1       1.532  12.616  19.480  0.00  0.00    +0.000 C 
BRANCH  21  22
ATOM     22  C   UNL     1       2.013  13.199  18.156  0.00  0.00    +0.000 C 
BRANCH  22  23
ATOM     23  O   UNL     1       2.682  12.216  17.375  0.00  0.00    +0.000 OA
ATOM     24  H   UNL     1       2.102  11.439  17.322  0.00  0.00    +0.000 HD
ENDBRANCH  22  23
ENDBRANCH  21  22
ENDBRANCH  13  21
ENDBRANCH   2  13
BRANCH   8  25
ATOM     25  C   UNL     1       2.889   7.488  18.664  0.00  0.00    +0.000 C 
BRANCH  25  26
ATOM     26  C   UNL     1       2.804   5.994  18.432  0.00  0.00    +0.000 A 
ATOM     27  C   UNL     1       1.626   5.428  17.913  0.00  0.00    +0.000 A 
ATOM     28  C   UNL     1       1.591   4.091  17.507  0.00  0.00    +0.000 A 
ATOM     29  C   UNL     1       2.730   3.298  17.612  0.00  0.00    +0.000 A 
ATOM     30  C   UNL     1       3.900   3.837  18.141  0.00  0.00    +0.000 A 
ATOM     31  C   UNL     1       3.937   5.174  18.549  0.00  0.00    +0.000 A 
ENDBRANCH  25  26
ENDBRANCH   8  25
TORSDOF 8
ENDMDL
MODEL 8
REMARK VINA RESULT:      -6.5      9.733     13.036
REMARK  Name = 
REMARK  8 active torsions:
REMARK  status: ('A' for Active; 'I' for Inactive)
REMARK    1  A    between atoms: N_1  and  C_2
REMARK    2  A    between atoms: C_3  and  N_4
REMARK    3  A    between atoms: N_4  and  C_5
REMARK    4  A    between atoms: C_5  and  C_6
REMARK    5  A    between atoms: C_6  and  O_7
REMARK    6  A    between atoms: C_8  and  C_10
REMARK    7  A    between atoms: N_20  and  C_21
REMARK    8  A    between atoms: C_21  and  C_22
REMARK                            x       y       z     vdW  Elec       q    Type
REMARK                         _______ _______ _______ _____ _____    ______ ____
ROOT
ATOM      1  C   UNL     1      -3.631  14.058  21.278  0.00  0.00    +0.000 A 
ATOM      2  C   UNL     1      -2.447  13.385  21.306  0.00  0.00    +0.000 A 
ATOM      3  C   UNL     1      -2.260  12.359  22.375  0.00  0.00    +0.000 A 
ATOM      4  O   UNL     1      -1.420  11.475  22.319  0.00  0.00    +0.000 OA
ATOM      5  N   UNL     1      -3.123  12.466  23.427  0.00  0.00    +0.000 N 
ATOM      6  C   UNL     1      -4.425  12.807  23.208  0.00  0.00    +0.000 A 
ATOM      7  O   UNL     1      -5.300  12.295  23.911  0.00  0.00    +0.000 OA
ATOM      8  N   UNL     1      -4.659  13.666  22.143  0.00  0.00    +0.000 N 
ATOM      9  H   UNL     1      -3.014  11.738  24.126  0.00  0.00    +0.000 HD
ENDROOT
BRANCH   1  10
ATOM     10  N   UNL     1      -3.833  15.070  20.358  0.00  0.00    +0.000 N 
ATOM     11  H   UNL     1      -3.075  15.745  20.290  0.00  0.00    +0.000 HD
ATOM     12  H   UNL     1      -4.266  14.807  19.482  0.00  0.00    +0.000 HD
ENDBRANCH   1  10
BRANCH   2  13
ATOM     13  N   UNL     1      -1.445  13.546  20.361  0.00  0.00    +0.000 N 
ATOM     14  C   UNL     1      -1.271  12.750  19.226  0.00  0.00    +0.000 C 
ATOM     15  O   UNL     1      -0.334  13.012  18.451  0.00  0.00    +0.000 OA
BRANCH  14  16
ATOM     16  C   UNL     1      -2.120  11.514  18.895  0.00  0.00    +0.000 C 
ATOM     17  C   UNL     1      -3.479  11.609  18.220  0.00  0.00    +0.000 C 
ATOM     18  C   UNL     1      -3.685  10.229  17.598  0.00  0.00    +0.000 C 
ATOM     19  C   UNL     1      -2.307   9.766  17.158  0.00  0.00    +0.000 C 
ATOM     20  C   UNL     1      -1.319  10.673  17.873  0.00  0.00    +0.000 C 
ENDBRANCH  14  16
BRANCH  13  21
ATOM     21  C   UNL     1      -0.294  14.434  20.610  0.00  0.00    +0.000 C 
BRANCH  21  22
ATOM     22  C   UNL     1       0.729  14.120  21.695  0.00  0.00    +0.000 C 
BRANCH  22  23
ATOM     23  O   UNL     1       1.220  12.790  21.569  0.00  0.00    +0.000 OA
ATOM     24  H   UNL     1       1.086  12.514  20.648  0.00  0.00    +0.000 HD
ENDBRANCH  22  23
ENDBRANCH  21  22
ENDBRANCH  13  21
ENDBRANCH   2  13
BRANCH   8  25
ATOM     25  C   UNL     1      -6.069  13.807  21.729  0.00  0.00    +0.000 C 
BRANCH  25  26
ATOM     26  C   UNL     1      -6.556  12.953  20.577  0.00  0.00    +0.000 A 
ATOM     27  C   UNL     1      -6.769  13.532  19.313  0.00  0.00    +0.000 A 
ATOM     28  C   UNL     1      -7.025  12.735  18.193  0.00  0.00    +0.000 A 
ATOM     29  C   UNL     1      -7.074  11.350  18.317  0.00  0.00    +0.000 A 
ATOM     30  C   UNL     1      -6.886  10.761  19.565  0.00  0.00    +0.000 A 
ATOM     31  C   UNL     1      -6.630  11.557  20.687  0.00  0.00    +0.000 A 
ENDBRANCH  25  26
ENDBRANCH   8  25
TORSDOF 8
ENDMDL
MODEL 9
REMARK VINA RESULT:      -6.5      9.301     12.730
REMARK  Name = 
REMARK  8 active torsions:
REMARK  status: ('A' for Active; 'I' for Inactive)
REMARK    1  A    between atoms: N_1  and  C_2
REMARK    2  A    between atoms: C_3  and  N_4
REMARK    3  A    between atoms: N_4  and  C_5
REMARK    4  A    between atoms: C_5  and  C_6
REMARK    5  A    between atoms: C_6  and  O_7
REMARK    6  A    between atoms: C_8  and  C_10
REMARK    7  A    between atoms: N_20  and  C_21
REMARK    8  A    between atoms: C_21  and  C_22
REMARK                            x       y       z     vdW  Elec       q    Type
REMARK                         _______ _______ _______ _____ _____    ______ ____
ROOT
ATOM      1  C   UNL     1      -2.941  13.701  21.392  0.00  0.00    +0.000 A 
ATOM      2  C   UNL     1      -1.896  12.858  21.627  0.00  0.00    +0.000 A 
ATOM      3  C   UNL     1      -2.032  11.889  22.756  0.00  0.00    +0.000 A 
ATOM      4  O   UNL     1      -1.346  10.885  22.865  0.00  0.00    +0.000 OA
ATOM      5  N   UNL     1      -3.006  12.197  23.660  0.00  0.00    +0.000 N 
ATOM      6  C   UNL     1      -4.192  12.718  23.233  0.00  0.00    +0.000 A 
ATOM      7  O   UNL     1      -5.228  12.395  23.818  0.00  0.00    +0.000 OA
ATOM      8  N   UNL     1      -4.131  13.530  22.108  0.00  0.00    +0.000 N 
ATOM      9  H   UNL     1      -3.116  11.509  24.398  0.00  0.00    +0.000 HD
ENDROOT
BRANCH   1  10
ATOM     10  N   UNL     1      -2.844  14.668  20.409  0.00  0.00    +0.000 N 
ATOM     11  H   UNL     1      -3.586  15.364  20.417  0.00  0.00    +0.000 HD
ATOM     12  H   UNL     1      -1.917  15.019  20.207  0.00  0.00    +0.000 HD
ENDBRANCH   1  10
BRANCH   2  13
ATOM     13  N   UNL     1      -0.758  12.800  20.838  0.00  0.00    +0.000 N 
ATOM     14  C   UNL     1      -0.635  12.072  19.652  0.00  0.00    +0.000 C 
ATOM     15  O   UNL     1       0.443  12.117  19.033  0.00  0.00    +0.000 OA
BRANCH  14  16
ATOM     16  C   UNL     1      -1.723  11.150  19.082  0.00  0.00    +0.000 C 
ATOM     17  C   UNL     1      -2.957  11.682  18.368  0.00  0.00    +0.000 C 
ATOM     18  C   UNL     1      -3.432  10.504  17.519  0.00  0.00    +0.000 C 
ATOM     19  C   UNL     1      -2.173   9.780  17.075  0.00  0.00    +0.000 C 
ATOM     20  C   UNL     1      -1.062  10.295  17.976  0.00  0.00    +0.000 C 
ENDBRANCH  14  16
BRANCH  13  21
ATOM     21  C   UNL     1       0.537  13.309  21.325  0.00  0.00    +0.000 C 
BRANCH  21  22
ATOM     22  C   UNL     1       0.949  14.761  21.112  0.00  0.00    +0.000 C 
BRANCH  22  23
ATOM     23  O   UNL     1       1.468  14.961  19.802  0.00  0.00    +0.000 OA
ATOM     24  H   UNL     1       1.690  15.902  19.716  0.00  0.00    +0.000 HD
ENDBRANCH  22  23
ENDBRANCH  21  22
ENDBRANCH  13  21
ENDBRANCH   2  13
BRANCH   8  25
ATOM     25  C   UNL     1      -5.426  13.857  21.481  0.00  0.00    +0.000 C 
BRANCH  25  26
ATOM     26  C   UNL     1      -5.855  13.044  20.278  0.00  0.00    +0.000 A 
ATOM     27  C   UNL     1      -6.233  11.698  20.436  0.00  0.00    +0.000 A 
ATOM     28  C   UNL     1      -6.817  10.989  19.383  0.00  0.00    +0.000 A 
ATOM     29  C   UNL     1      -7.034  11.610  18.156  0.00  0.00    +0.000 A 
ATOM     30  C   UNL     1      -6.648  12.936  17.977  0.00  0.00    +0.000 A 
ATOM     31  C   UNL     1      -6.062  13.647  19.029  0.00  0.00    +0.000 A 
ENDBRANCH  25  26
ENDBRANCH   8  25
TORSDOF 8
ENDMDL
