MODEL 1
REMARK VINA RESULT:      -8.5      0.000      0.000
REMARK  Name = 
REMARK  4 active torsions:
REMARK  status: ('A' for Active; 'I' for Inactive)
REMARK    1  A    between atoms: C_1  and  N_2
REMARK    2  A    between atoms: N_2  and  C_3
REMARK    3  A    between atoms: C_6  and  C_7
REMARK    4  A    between atoms: C_10  and  N_11
REMARK                            x       y       z     vdW  Elec       q    Type
REMARK                         _______ _______ _______ _____ _____    ______ ____
ROOT
ATOM      1  C   UNL     1       7.085   6.425  17.517  0.00  0.00    +0.000 C 
ATOM      2  N   UNL     1       6.261   5.268  17.185  0.00  0.00    +0.000 N 
ATOM      3  C   UNL     1       6.696   4.449  16.064  0.00  0.00    +0.000 C 
ATOM      4  C   UNL     1       5.054   5.061  17.855  0.00  0.00    +0.000 C 
ATOM      5  N   UNL     1       4.676   5.902  18.757  0.00  0.00    +0.000 NA
ATOM      6  C   UNL     1       3.381   5.793  19.450  0.00  0.00    +0.000 C 
ATOM      7  C   UNL     1       2.577   4.531  19.210  0.00  0.00    +0.000 A 
ATOM      8  C   UNL     1       1.412   4.266  19.953  0.00  0.00    +0.000 A 
ATOM      9  C   UNL     1       0.671   3.104  19.733  0.00  0.00    +0.000 A 
ATOM     10  C   UNL     1       1.085   2.188  18.772  0.00  0.00    +0.000 A 
ATOM     11  C   UNL     1       2.242   2.433  18.037  0.00  0.00    +0.000 A 
ATOM     12  C   UNL     1       2.993   3.599  18.259  0.00  0.00    +0.000 A 
ATOM     13  C   UNL     1       4.234   3.837  17.465  0.00  0.00    +0.000 C 
ENDROOT
BRANCH   6  14
ATOM     14  C   UNL     1       2.579   7.066  19.184  0.00  0.00    +0.000 A 
ATOM     15  C   UNL     1       2.544   7.634  17.902  0.00  0.00    +0.000 A 
ATOM     16  C   UNL     1       1.892   8.850  17.678  0.00  0.00    +0.000 A 
ATOM     17  C   UNL     1       1.296   9.541  18.733  0.00  0.00    +0.000 A 
ATOM     18  C   UNL     1       1.227   8.923  19.983  0.00  0.00    +0.000 A 
ATOM     19  C   UNL     1       1.885   7.710  20.216  0.00  0.00    +0.000 A 
BRANCH  17  20
ATOM     20  N   UNL     1       0.595  10.732  18.492  0.00  0.00    +0.000 N 
ATOM     21  H   UNL     1       0.327  11.207  19.350  0.00  0.00    +0.000 HD
ATOM     22  H   UNL     1      -0.197  10.604  17.870  0.00  0.00    +0.000 HD
ENDBRANCH  17  20
ENDBRANCH   6  14
TORSDOF 2
ENDMDL
MODEL 2
REMARK VINA RESULT:      -8.4      0.164      1.087
REMARK  Name = 
REMARK  4 active torsions:
REMARK  status: ('A' for Active; 'I' for Inactive)
REMARK    1  A    between atoms: C_1  and  N_2
REMARK    2  A    between atoms: N_2  and  C_3
REMARK    3  A    between atoms: C_6  and  C_7
REMARK    4  A    between atoms: C_10  and  N_11
REMARK                            x       y       z     vdW  Elec       q    Type
REMARK                         _______ _______ _______ _____ _____    ______ ____
ROOT
ATOM      1  C   UNL     1       7.238   6.302  17.733  0.00  0.00    +0.000 C 
ATOM      2  N   UNL     1       6.389   5.177  17.358  0.00  0.00    +0.000 N 
ATOM      3  C   UNL     1       6.839   4.354  16.246  0.00  0.00    +0.000 C 
ATOM      4  C   UNL     1       5.150   5.006  17.979  0.00  0.00    +0.000 C 
ATOM      5  N   UNL     1       4.766   5.851  18.874  0.00  0.00    +0.000 NA
ATOM      6  C   UNL     1       3.443   5.781  19.516  0.00  0.00    +0.000 C 
ATOM      7  C   UNL     1       2.606   4.550  19.233  0.00  0.00    +0.000 A 
ATOM      8  C   UNL     1       1.405   4.319  19.927  0.00  0.00    +0.000 A 
ATOM      9  C   UNL     1       0.634   3.185  19.667  0.00  0.00    +0.000 A 
ATOM     10  C   UNL     1       1.053   2.264  18.714  0.00  0.00    +0.000 A 
ATOM     11  C   UNL     1       2.246   2.476  18.027  0.00  0.00    +0.000 A 
ATOM     12  C   UNL     1       3.027   3.612  18.289  0.00  0.00    +0.000 A 
ATOM     13  C   UNL     1       4.305   3.815  17.545  0.00  0.00    +0.000 C 
ENDROOT
BRANCH   6  14
ATOM     14  C   UNL     1       2.695   7.084  19.231  0.00  0.00    +0.000 A 
ATOM     15  C   UNL     1       1.940   7.708  20.234  0.00  0.00    +0.000 A 
ATOM     16  C   UNL     1       1.176   8.845  19.950  0.00  0.00    +0.000 A 
ATOM     17  C   UNL     1       1.122   9.357  18.654  0.00  0.00    +0.000 A 
ATOM     18  C   UNL     1       1.963   8.809  17.682  0.00  0.00    +0.000 A 
ATOM     19  C   UNL     1       2.723   7.668  17.958  0.00  0.00    +0.000 A 
BRANCH  17  20
ATOM     20  N   UNL     1       0.400  10.530  18.386  0.00  0.00    +0.000 N 
ATOM     21  H   UNL     1       0.638  11.287  19.020  0.00  0.00    +0.000 HD
ATOM     22  H   UNL     1      -0.602  10.375  18.345  0.00  0.00    +0.000 HD
ENDBRANCH  17  20
ENDBRANCH   6  14
TORSDOF 2
ENDMDL
MODEL 3
REMARK VINA RESULT:      -7.7      1.670      4.267
REMARK  Name = 
REMARK  4 active torsions:
REMARK  status: ('A' for Active; 'I' for Inactive)
REMARK    1  A    between atoms: C_1  and  N_2
REMARK    2  A    between atoms: N_2  and  C_3
REMARK    3  A    between atoms: C_6  and  C_7
REMARK    4  A    between atoms: C_10  and  N_11
REMARK                            x       y       z     vdW  Elec       q    Type
REMARK                         _______ _______ _______ _____ _____    ______ ____
ROOT
ATOM      1  C   UNL     1       0.955   3.080  20.112  0.00  0.00    +0.000 C 
ATOM      2  N   UNL     1       2.405   3.182  20.224  0.00  0.00    +0.000 N 
ATOM      3  C   UNL     1       3.054   2.312  21.193  0.00  0.00    +0.000 C 
ATOM      4  C   UNL     1       3.088   4.169  19.510  0.00  0.00    +0.000 C 
ATOM      5  N   UNL     1       2.427   4.985  18.762  0.00  0.00    +0.000 NA
ATOM      6  C   UNL     1       3.067   6.097  18.041  0.00  0.00    +0.000 C 
ATOM      7  C   UNL     1       4.582   6.137  18.045  0.00  0.00    +0.000 A 
ATOM      8  C   UNL     1       5.282   7.063  17.249  0.00  0.00    +0.000 A 
ATOM      9  C   UNL     1       6.676   7.100  17.252  0.00  0.00    +0.000 A 
ATOM     10  C   UNL     1       7.393   6.210  18.045  0.00  0.00    +0.000 A 
ATOM     11  C   UNL     1       6.713   5.282  18.829  0.00  0.00    +0.000 A 
ATOM     12  C   UNL     1       5.310   5.238  18.826  0.00  0.00    +0.000 A 
ATOM     13  C   UNL     1       4.603   4.230  19.668  0.00  0.00    +0.000 C 
ENDROOT
BRANCH   6  14
ATOM     14  C   UNL     1       2.439   7.408  18.512  0.00  0.00    +0.000 A 
ATOM     15  C   UNL     1       2.050   7.574  19.849  0.00  0.00    +0.000 A 
ATOM     16  C   UNL     1       1.386   8.734  20.261  0.00  0.00    +0.000 A 
ATOM     17  C   UNL     1       1.066   9.733  19.341  0.00  0.00    +0.000 A 
ATOM     18  C   UNL     1       1.554   9.623  18.037  0.00  0.00    +0.000 A 
ATOM     19  C   UNL     1       2.212   8.462  17.617  0.00  0.00    +0.000 A 
BRANCH  17  20
ATOM     20  N   UNL     1       0.451  10.918  19.769  0.00  0.00    +0.000 N 
ATOM     21  H   UNL     1       0.185  11.522  18.996  0.00  0.00    +0.000 HD
ATOM     22  H   UNL     1       0.998  11.417  20.463  0.00  0.00    +0.000 HD
ENDBRANCH  17  20
ENDBRANCH   6  14
TORSDOF 2
ENDMDL
MODEL 4
REMARK VINA RESULT:      -7.6      1.582      4.208
REMARK  Name = 
REMARK  4 active torsions:
REMARK  status: ('A' for Active; 'I' for Inactive)
REMARK    1  A    between atoms: C_1  and  N_2
REMARK    2  A    between atoms: N_2  and  C_3
REMARK    3  A    between atoms: C_6  and  C_7
REMARK    4  A    between atoms: C_10  and  N_11
REMARK                            x       y       z     vdW  Elec       q    Type
REMARK                         _______ _______ _______ _____ _____    ______ ____
ROOT
ATOM      1  C   UNL     1       2.208   2.294  19.289  0.00  0.00    +0.000 C 
ATOM      2  N   UNL     1       3.596   2.672  19.529  0.00  0.00    +0.000 N 
ATOM      3  C   UNL     1       4.359   1.836  20.442  0.00  0.00    +0.000 C 
ATOM      4  C   UNL     1       4.094   3.860  18.989  0.00  0.00    +0.000 C 
ATOM      5  N   UNL     1       3.318   4.614  18.287  0.00  0.00    +0.000 NA
ATOM      6  C   UNL     1       3.749   5.915  17.751  0.00  0.00    +0.000 C 
ATOM      7  C   UNL     1       5.219   6.261  17.882  0.00  0.00    +0.000 A 
ATOM      8  C   UNL     1       5.750   7.403  17.256  0.00  0.00    +0.000 A 
ATOM      9  C   UNL     1       7.103   7.721  17.377  0.00  0.00    +0.000 A 
ATOM     10  C   UNL     1       7.946   6.902  18.120  0.00  0.00    +0.000 A 
ATOM     11  C   UNL     1       7.434   5.763  18.736  0.00  0.00    +0.000 A 
ATOM     12  C   UNL     1       6.075   5.436  18.613  0.00  0.00    +0.000 A 
ATOM     13  C   UNL     1       5.550   4.206  19.276  0.00  0.00    +0.000 C 
ENDROOT
BRANCH   6  14
ATOM     14  C   UNL     1       2.833   7.001  18.315  0.00  0.00    +0.000 A 
ATOM     15  C   UNL     1       2.399   8.061  17.507  0.00  0.00    +0.000 A 
ATOM     16  C   UNL     1       1.642   9.107  18.046  0.00  0.00    +0.000 A 
ATOM     17  C   UNL     1       1.337   9.133  19.407  0.00  0.00    +0.000 A 
ATOM     18  C   UNL     1       1.667   8.024  20.189  0.00  0.00    +0.000 A 
ATOM     19  C   UNL     1       2.430   6.979  19.657  0.00  0.00    +0.000 A 
BRANCH  17  20
ATOM     20  N   UNL     1       0.530  10.154  19.931  0.00  0.00    +0.000 N 
ATOM     21  H   UNL     1      -0.456   9.911  19.932  0.00  0.00    +0.000 HD
ATOM     22  H   UNL     1       0.695  11.053  19.490  0.00  0.00    +0.000 HD
ENDBRANCH  17  20
ENDBRANCH   6  14
TORSDOF 2
ENDMDL
MODEL 5
REMARK VINA RESULT:      -7.6      1.531      4.971
REMARK  Name = 
REMARK  4 active torsions:
REMARK  status: ('A' for Active; 'I' for Inactive)
REMARK    1  A    between atoms: C_1  and  N_2
REMARK    2  A    between atoms: N_2  and  C_3
REMARK    3  A    between atoms: C_6  and  C_7
REMARK    4  A    between atoms: C_10  and  N_11
REMARK                            x       y       z     vdW  Elec       q    Type
REMARK                         _______ _______ _______ _____ _____    ______ ____
ROOT
ATOM      1  C   UNL     1       1.633   9.501  18.814  0.00  0.00    +0.000 C 
ATOM      2  N   UNL     1       1.560   8.495  19.867  0.00  0.00    +0.000 N 
ATOM      3  C   UNL     1       1.376   8.978  21.227  0.00  0.00    +0.000 C 
ATOM      4  C   UNL     1       1.788   7.152  19.561  0.00  0.00    +0.000 C 
ATOM      5  N   UNL     1       2.067   6.816  18.348  0.00  0.00    +0.000 NA
ATOM      6  C   UNL     1       2.394   5.433  17.964  0.00  0.00    +0.000 C 
ATOM      7  C   UNL     1       2.197   4.361  19.017  0.00  0.00    +0.000 A 
ATOM      8  C   UNL     1       2.326   2.998  18.693  0.00  0.00    +0.000 A 
ATOM      9  C   UNL     1       2.145   2.012  19.663  0.00  0.00    +0.000 A 
ATOM     10  C   UNL     1       1.828   2.370  20.969  0.00  0.00    +0.000 A 
ATOM     11  C   UNL     1       1.688   3.716  21.300  0.00  0.00    +0.000 A 
ATOM     12  C   UNL     1       1.865   4.712  20.326  0.00  0.00    +0.000 A 
ATOM     13  C   UNL     1       1.702   6.147  20.703  0.00  0.00    +0.000 C 
ENDROOT
BRANCH   6  14
ATOM     14  C   UNL     1       3.797   5.416  17.357  0.00  0.00    +0.000 A 
ATOM     15  C   UNL     1       4.639   6.530  17.474  0.00  0.00    +0.000 A 
ATOM     16  C   UNL     1       5.884   6.555  16.836  0.00  0.00    +0.000 A 
ATOM     17  C   UNL     1       6.295   5.485  16.041  0.00  0.00    +0.000 A 
ATOM     18  C   UNL     1       5.512   4.329  16.018  0.00  0.00    +0.000 A 
ATOM     19  C   UNL     1       4.262   4.301  16.647  0.00  0.00    +0.000 A 
BRANCH  17  20
ATOM     20  N   UNL     1       7.567   5.490  15.450  0.00  0.00    +0.000 N 
ATOM     21  H   UNL     1       7.644   6.164  14.694  0.00  0.00    +0.000 HD
ATOM     22  H   UNL     1       7.872   4.566  15.162  0.00  0.00    +0.000 HD
ENDBRANCH  17  20
ENDBRANCH   6  14
TORSDOF 2
ENDMDL
MODEL 6
REMARK VINA RESULT:      -7.5      1.428      5.027
REMARK  Name = 
REMARK  4 active torsions:
REMARK  status: ('A' for Active; 'I' for Inactive)
REMARK    1  A    between atoms: C_1  and  N_2
REMARK    2  A    between atoms: N_2  and  C_3
REMARK    3  A    between atoms: C_6  and  C_7
REMARK    4  A    between atoms: C_10  and  N_11
REMARK                            x       y       z     vdW  Elec       q    Type
REMARK                         _______ _______ _______ _____ _____    ______ ____
ROOT
ATOM      1  C   UNL     1       1.839   9.394  18.391  0.00  0.00    +0.000 C 
ATOM      2  N   UNL     1       1.676   8.486  19.520  0.00  0.00    +0.000 N 
ATOM      3  C   UNL     1       1.449   9.089  20.824  0.00  0.00    +0.000 C 
ATOM      4  C   UNL     1       1.862   7.114  19.338  0.00  0.00    +0.000 C 
ATOM      5  N   UNL     1       2.182   6.665  18.173  0.00  0.00    +0.000 NA
ATOM      6  C   UNL     1       2.469   5.243  17.922  0.00  0.00    +0.000 C 
ATOM      7  C   UNL     1       2.180   4.273  19.050  0.00  0.00    +0.000 A 
ATOM      8  C   UNL     1       2.267   2.884  18.848  0.00  0.00    +0.000 A 
ATOM      9  C   UNL     1       2.001   1.991  19.886  0.00  0.00    +0.000 A 
ATOM     10  C   UNL     1       1.640   2.471  21.140  0.00  0.00    +0.000 A 
ATOM     11  C   UNL     1       1.540   3.844  21.351  0.00  0.00    +0.000 A 
ATOM     12  C   UNL     1       1.802   4.746  20.307  0.00  0.00    +0.000 A 
ATOM     13  C   UNL     1       1.682   6.213  20.555  0.00  0.00    +0.000 C 
ENDROOT
BRANCH   6  14
ATOM     14  C   UNL     1       3.897   5.122  17.389  0.00  0.00    +0.000 A 
ATOM     15  C   UNL     1       4.227   4.136  16.449  0.00  0.00    +0.000 A 
ATOM     16  C   UNL     1       5.552   3.960  16.034  0.00  0.00    +0.000 A 
ATOM     17  C   UNL     1       6.574   4.738  16.576  0.00  0.00    +0.000 A 
ATOM     18  C   UNL     1       6.233   5.795  17.422  0.00  0.00    +0.000 A 
ATOM     19  C   UNL     1       4.912   5.972  17.847  0.00  0.00    +0.000 A 
BRANCH  17  20
ATOM     20  N   UNL     1       7.891   4.596  16.115  0.00  0.00    +0.000 N 
ATOM     21  H   UNL     1       8.545   5.196  16.611  0.00  0.00    +0.000 HD
ATOM     22  H   UNL     1       7.971   4.705  15.109  0.00  0.00    +0.000 HD
ENDBRANCH  17  20
ENDBRANCH   6  14
TORSDOF 2
ENDMDL
MODEL 7
REMARK VINA RESULT:      -6.9      1.660      4.934
REMARK  Name = 
REMARK  4 active torsions:
REMARK  status: ('A' for Active; 'I' for Inactive)
REMARK    1  A    between atoms: C_1  and  N_2
REMARK    2  A    between atoms: N_2  and  C_3
REMARK    3  A    between atoms: C_6  and  C_7
REMARK    4  A    between atoms: C_10  and  N_11
REMARK                            x       y       z     vdW  Elec       q    Type
REMARK                         _______ _______ _______ _____ _____    ______ ____
ROOT
ATOM      1  C   UNL     1       1.454   9.797  19.674  0.00  0.00    +0.000 C 
ATOM      2  N   UNL     1       1.327   8.636  20.548  0.00  0.00    +0.000 N 
ATOM      3  C   UNL     1       1.008   8.894  21.944  0.00  0.00    +0.000 C 
ATOM      4  C   UNL     1       1.629   7.364  20.059  0.00  0.00    +0.000 C 
ATOM      5  N   UNL     1       2.024   7.229  18.839  0.00  0.00    +0.000 NA
ATOM      6  C   UNL     1       2.434   5.931  18.277  0.00  0.00    +0.000 C 
ATOM      7  C   UNL     1       2.186   4.703  19.130  0.00  0.00    +0.000 A 
ATOM      8  C   UNL     1       2.391   3.411  18.612  0.00  0.00    +0.000 A 
ATOM      9  C   UNL     1       2.163   2.281  19.396  0.00  0.00    +0.000 A 
ATOM     10  C   UNL     1       1.721   2.422  20.707  0.00  0.00    +0.000 A 
ATOM     11  C   UNL     1       1.504   3.695  21.229  0.00  0.00    +0.000 A 
ATOM     12  C   UNL     1       1.728   4.836  20.441  0.00  0.00    +0.000 A 
ATOM     13  C   UNL     1       1.481   6.189  21.019  0.00  0.00    +0.000 C 
ENDROOT
BRANCH   6  14
ATOM     14  C   UNL     1       3.884   6.041  17.806  0.00  0.00    +0.000 A 
ATOM     15  C   UNL     1       4.938   5.639  18.638  0.00  0.00    +0.000 A 
ATOM     16  C   UNL     1       6.268   5.830  18.249  0.00  0.00    +0.000 A 
ATOM     17  C   UNL     1       6.570   6.460  17.041  0.00  0.00    +0.000 A 
ATOM     18  C   UNL     1       5.527   6.754  16.160  0.00  0.00    +0.000 A 
ATOM     19  C   UNL     1       4.195   6.573  16.547  0.00  0.00    +0.000 A 
BRANCH  17  20
ATOM     20  N   UNL     1       7.904   6.597  16.629  0.00  0.00    +0.000 N 
ATOM     21  H   UNL     1       7.990   6.745  15.628  0.00  0.00    +0.000 HD
ATOM     22  H   UNL     1       8.495   5.837  16.949  0.00  0.00    +0.000 HD
ENDBRANCH  17  20
ENDBRANCH   6  14
TORSDOF 2
ENDMDL
MODEL 8
REMARK VINA RESULT:      -6.8      1.677      4.892
REMARK  Name = 
REMARK  4 active torsions:
REMARK  status: ('A' for Active; 'I' for Inactive)
REMARK    1  A    between atoms: C_1  and  N_2
REMARK    2  A    between atoms: N_2  and  C_3
REMARK    3  A    between atoms: C_6  and  C_7
REMARK    4  A    between atoms: C_10  and  N_11
REMARK                            x       y       z     vdW  Elec       q    Type
REMARK                         _______ _______ _______ _____ _____    ______ ____
ROOT
ATOM      1  C   UNL     1       1.409   9.895  19.827  0.00  0.00    +0.000 C 
ATOM      2  N   UNL     1       1.285   8.708  20.664  0.00  0.00    +0.000 N 
ATOM      3  C   UNL     1       0.975   8.922  22.070  0.00  0.00    +0.000 C 
ATOM      4  C   UNL     1       1.581   7.451  20.134  0.00  0.00    +0.000 C 
ATOM      5  N   UNL     1       1.968   7.353  18.908  0.00  0.00    +0.000 NA
ATOM      6  C   UNL     1       2.371   6.074  18.302  0.00  0.00    +0.000 C 
ATOM      7  C   UNL     1       2.126   4.820  19.117  0.00  0.00    +0.000 A 
ATOM      8  C   UNL     1       2.326   3.545  18.557  0.00  0.00    +0.000 A 
ATOM      9  C   UNL     1       2.099   2.390  19.307  0.00  0.00    +0.000 A 
ATOM     10  C   UNL     1       1.666   2.491  20.625  0.00  0.00    +0.000 A 
ATOM     11  C   UNL     1       1.455   3.747  21.187  0.00  0.00    +0.000 A 
ATOM     12  C   UNL     1       1.677   4.911  20.435  0.00  0.00    +0.000 A 
ATOM     13  C   UNL     1       1.436   6.246  21.057  0.00  0.00    +0.000 C 
ENDROOT
BRANCH   6  14
ATOM     14  C   UNL     1       3.819   6.196  17.826  0.00  0.00    +0.000 A 
ATOM     15  C   UNL     1       4.116   6.782  16.587  0.00  0.00    +0.000 A 
ATOM     16  C   UNL     1       5.429   6.807  16.106  0.00  0.00    +0.000 A 
ATOM     17  C   UNL     1       6.462   6.214  16.832  0.00  0.00    +0.000 A 
ATOM     18  C   UNL     1       6.189   5.734  18.115  0.00  0.00    +0.000 A 
ATOM     19  C   UNL     1       4.877   5.700  18.599  0.00  0.00    +0.000 A 
BRANCH  17  20
ATOM     20  N   UNL     1       7.785   6.291  16.372  0.00  0.00    +0.000 N 
ATOM     21  H   UNL     1       7.918   7.030  15.687  0.00  0.00    +0.000 HD
ATOM     22  H   UNL     1       8.138   5.400  16.036  0.00  0.00    +0.000 HD
ENDBRANCH  17  20
ENDBRANCH   6  14
TORSDOF 2
ENDMDL
MODEL 9
REMARK VINA RESULT:      -6.7      3.494      7.943
REMARK  Name = 
REMARK  4 active torsions:
REMARK  status: ('A' for Active; 'I' for Inactive)
REMARK    1  A    between atoms: C_1  and  N_2
REMARK    2  A    between atoms: N_2  and  C_3
REMARK    3  A    between atoms: C_6  and  C_7
REMARK    4  A    between atoms: C_10  and  N_11
REMARK                            x       y       z     vdW  Elec       q    Type
REMARK                         _______ _______ _______ _____ _____    ______ ____
ROOT
ATOM      1  C   UNL     1       1.736  13.865  21.195  0.00  0.00    +0.000 C 
ATOM      2  N   UNL     1       0.301  13.663  21.034  0.00  0.00    +0.000 N 
ATOM      3  C   UNL     1      -0.571  14.367  21.962  0.00  0.00    +0.000 C 
ATOM      4  C   UNL     1      -0.169  12.734  20.104  0.00  0.00    +0.000 C 
ATOM      5  N   UNL     1       0.674  12.057  19.400  0.00  0.00    +0.000 NA
ATOM      6  C   UNL     1       0.257  11.007  18.457  0.00  0.00    +0.000 C 
ATOM      7  C   UNL     1      -1.229  10.876  18.186  0.00  0.00    +0.000 A 
ATOM      8  C   UNL     1      -1.705  10.016  17.180  0.00  0.00    +0.000 A 
ATOM      9  C   UNL     1      -3.073   9.895  16.930  0.00  0.00    +0.000 A 
ATOM     10  C   UNL     1      -3.984  10.635  17.677  0.00  0.00    +0.000 A 
ATOM     11  C   UNL     1      -3.523  11.498  18.668  0.00  0.00    +0.000 A 
ATOM     12  C   UNL     1      -2.148  11.626  18.920  0.00  0.00    +0.000 A 
ATOM     13  C   UNL     1      -1.678  12.563  19.982  0.00  0.00    +0.000 C 
ENDROOT
BRANCH   6  14
ATOM     14  C   UNL     1       0.899   9.687  18.884  0.00  0.00    +0.000 A 
ATOM     15  C   UNL     1       0.784   9.231  20.205  0.00  0.00    +0.000 A 
ATOM     16  C   UNL     1       1.452   8.075  20.622  0.00  0.00    +0.000 A 
ATOM     17  C   UNL     1       2.276   7.375  19.741  0.00  0.00    +0.000 A 
ATOM     18  C   UNL     1       2.300   7.759  18.398  0.00  0.00    +0.000 A 
ATOM     19  C   UNL     1       1.640   8.919  17.977  0.00  0.00    +0.000 A 
BRANCH  17  20
ATOM     20  N   UNL     1       2.898   6.186  20.148  0.00  0.00    +0.000 N 
ATOM     21  H   UNL     1       2.461   5.360  19.749  0.00  0.00    +0.000 HD
ATOM     22  H   UNL     1       2.988   6.113  21.156  0.00  0.00    +0.000 HD
ENDBRANCH  17  20
ENDBRANCH   6  14
TORSDOF 2
ENDMDL
