MODEL 1
REMARK VINA RESULT:      -7.0      0.000      0.000
REMARK  Name = 
REMARK  12 active torsions:
REMARK  status: ('A' for Active; 'I' for Inactive)
REMARK    1  A    between atoms: C_1  and  C_2
REMARK    2  A    between atoms: C_6  and  C_8
REMARK    3  A    between atoms: C_8  and  C_9
REMARK    4  A    between atoms: C_9  and  C_10
REMARK    5  A    between atoms: C_9  and  C_11
REMARK    6  A    between atoms: C_11  and  C_12
REMARK    7  A    between atoms: C_12  and  C_13
REMARK    8  A    between atoms: C_12  and  C_14
REMARK    9  A    between atoms: C_12  and  C_15
REMARK   10  A    between atoms: C_16  and  C_17
REMARK   11  A    between atoms: C_18  and  C_19
REMARK   12  A    between atoms: C_20  and  O_21
REMARK                            x       y       z     vdW  Elec       q    Type
REMARK                         _______ _______ _______ _____ _____    ______ ____
ROOT
ATOM      1  C   UNL     1      -0.071   8.998  22.624  0.00  0.00    +0.000 C 
ATOM      2  C   UNL     1       0.645   8.784  21.327  0.00  0.00    +0.000 A 
ATOM      3  N   UNL     1       1.469   7.706  21.250  0.00  0.00    +0.000 NA
ATOM      4  C   UNL     1       2.063   7.451  20.073  0.00  0.00    +0.000 A 
ATOM      5  N   UNL     1       2.827   6.270  20.097  0.00  0.00    +0.000 N 
ATOM      6  C   UNL     1       2.653   5.265  19.164  0.00  0.00    +0.000 C 
ATOM      7  O   UNL     1       1.805   5.282  18.276  0.00  0.00    +0.000 OA
ATOM      8  C   UNL     1       1.982   8.317  18.963  0.00  0.00    +0.000 A 
ATOM      9  C   UNL     1       2.827   8.107  17.734  0.00  0.00    +0.000 C 
ATOM     10  C   UNL     1       1.115   9.437  19.046  0.00  0.00    +0.000 A 
ATOM     11  C   UNL     1       0.931  10.396  17.896  0.00  0.00    +0.000 C 
ATOM     12  C   UNL     1       0.445   9.661  20.258  0.00  0.00    +0.000 A 
ATOM     13  H   UNL     1       2.988   5.952  21.043  0.00  0.00    +0.000 HD
ENDROOT
BRANCH  12  14
ATOM     14  O   UNL     1      -0.392  10.723  20.450  0.00  0.00    +0.000 OA
ATOM     15  H   UNL     1      -1.258  10.419  20.759  0.00  0.00    +0.000 HD
ENDBRANCH  12  14
BRANCH   6  16
ATOM     16  C   UNL     1       3.628   4.089  19.333  0.00  0.00    +0.000 C 
BRANCH  16  17
ATOM     17  C   UNL     1       4.814   4.193  18.332  0.00  0.00    +0.000 C 
ATOM     18  C   UNL     1       4.346   3.712  16.953  0.00  0.00    +0.000 C 
BRANCH  17  19
ATOM     19  C   UNL     1       5.431   5.623  18.272  0.00  0.00    +0.000 C 
BRANCH  19  20
ATOM     20  C   UNL     1       6.991   5.761  18.121  0.00  0.00    +0.000 C 
ATOM     21  C   UNL     1       7.434   7.078  17.458  0.00  0.00    +0.000 C 
ATOM     22  C   UNL     1       7.639   5.761  19.530  0.00  0.00    +0.000 C 
ATOM     23  C   UNL     1       7.569   4.575  17.331  0.00  0.00    +0.000 C 
ENDBRANCH  19  20
ENDBRANCH  17  19
ENDBRANCH  16  17
ENDBRANCH   6  16
TORSDOF 5
ENDMDL
MODEL 2
REMARK VINA RESULT:      -6.8      1.219      1.735
REMARK  Name = 
REMARK  12 active torsions:
REMARK  status: ('A' for Active; 'I' for Inactive)
REMARK    1  A    between atoms: C_1  and  C_2
REMARK    2  A    between atoms: C_6  and  C_8
REMARK    3  A    between atoms: C_8  and  C_9
REMARK    4  A    between atoms: C_9  and  C_10
REMARK    5  A    between atoms: C_9  and  C_11
REMARK    6  A    between atoms: C_11  and  C_12
REMARK    7  A    between atoms: C_12  and  C_13
REMARK    8  A    between atoms: C_12  and  C_14
REMARK    9  A    between atoms: C_12  and  C_15
REMARK   10  A    between atoms: C_16  and  C_17
REMARK   11  A    between atoms: C_18  and  C_19
REMARK   12  A    between atoms: C_20  and  O_21
REMARK                            x       y       z     vdW  Elec       q    Type
REMARK                         _______ _______ _______ _____ _____    ______ ____
ROOT
ATOM      1  C   UNL     1      -0.364   9.164  22.868  0.00  0.00    +0.000 C 
ATOM      2  C   UNL     1       0.301   9.063  21.530  0.00  0.00    +0.000 A 
ATOM      3  N   UNL     1       1.252   8.103  21.386  0.00  0.00    +0.000 NA
ATOM      4  C   UNL     1       1.806   7.944  20.174  0.00  0.00    +0.000 A 
ATOM      5  N   UNL     1       2.717   6.872  20.132  0.00  0.00    +0.000 N 
ATOM      6  C   UNL     1       2.622   5.866  19.189  0.00  0.00    +0.000 C 
ATOM      7  O   UNL     1       1.731   5.785  18.348  0.00  0.00    +0.000 OA
ATOM      8  C   UNL     1       1.551   8.807  19.088  0.00  0.00    +0.000 A 
ATOM      9  C   UNL     1       2.346   8.726  17.811  0.00  0.00    +0.000 C 
ATOM     10  C   UNL     1       0.554   9.803  19.241  0.00  0.00    +0.000 A 
ATOM     11  C   UNL     1       0.183  10.746  18.123  0.00  0.00    +0.000 C 
ATOM     12  C   UNL     1      -0.071   9.922  20.491  0.00  0.00    +0.000 A 
ATOM     13  H   UNL     1       2.970   6.565  21.061  0.00  0.00    +0.000 HD
ENDROOT
BRANCH  12  14
ATOM     14  O   UNL     1      -1.027  10.863  20.751  0.00  0.00    +0.000 OA
ATOM     15  H   UNL     1      -1.345  11.256  19.926  0.00  0.00    +0.000 HD
ENDBRANCH  12  14
BRANCH   6  16
ATOM     16  C   UNL     1       3.749   4.825  19.280  0.00  0.00    +0.000 C 
BRANCH  16  17
ATOM     17  C   UNL     1       4.979   5.249  18.427  0.00  0.00    +0.000 C 
ATOM     18  C   UNL     1       6.234   5.210  19.306  0.00  0.00    +0.000 C 
BRANCH  17  19
ATOM     19  C   UNL     1       5.143   4.391  17.137  0.00  0.00    +0.000 C 
BRANCH  19  20
ATOM     20  C   UNL     1       5.685   5.088  15.835  0.00  0.00    +0.000 C 
ATOM     21  C   UNL     1       5.164   6.525  15.640  0.00  0.00    +0.000 C 
ATOM     22  C   UNL     1       7.228   5.210  15.930  0.00  0.00    +0.000 C 
ATOM     23  C   UNL     1       5.348   4.254  14.588  0.00  0.00    +0.000 C 
ENDBRANCH  19  20
ENDBRANCH  17  19
ENDBRANCH  16  17
ENDBRANCH   6  16
TORSDOF 5
ENDMDL
MODEL 3
REMARK VINA RESULT:      -6.5      1.931      3.453
REMARK  Name = 
REMARK  12 active torsions:
REMARK  status: ('A' for Active; 'I' for Inactive)
REMARK    1  A    between atoms: C_1  and  C_2
REMARK    2  A    between atoms: C_6  and  C_8
REMARK    3  A    between atoms: C_8  and  C_9
REMARK    4  A    between atoms: C_9  and  C_10
REMARK    5  A    between atoms: C_9  and  C_11
REMARK    6  A    between atoms: C_11  and  C_12
REMARK    7  A    between atoms: C_12  and  C_13
REMARK    8  A    between atoms: C_12  and  C_14
REMARK    9  A    between atoms: C_12  and  C_15
REMARK   10  A    between atoms: C_16  and  C_17
REMARK   11  A    between atoms: C_18  and  C_19
REMARK   12  A    between atoms: C_20  and  O_21
REMARK                            x       y       z     vdW  Elec       q    Type
REMARK                         _______ _______ _______ _____ _____    ______ ____
ROOT
ATOM      1  C   UNL     1      -0.440   9.089  22.927  0.00  0.00    +0.000 C 
ATOM      2  C   UNL     1       0.165   9.273  21.570  0.00  0.00    +0.000 A 
ATOM      3  N   UNL     1       1.163   8.420  21.221  0.00  0.00    +0.000 NA
ATOM      4  C   UNL     1       1.667   8.517  19.980  0.00  0.00    +0.000 A 
ATOM      5  N   UNL     1       2.637   7.534  19.712  0.00  0.00    +0.000 N 
ATOM      6  C   UNL     1       2.558   6.708  18.606  0.00  0.00    +0.000 C 
ATOM      7  O   UNL     1       1.633   6.718  17.797  0.00  0.00    +0.000 OA
ATOM      8  C   UNL     1       1.311   9.541  19.079  0.00  0.00    +0.000 A 
ATOM      9  C   UNL     1       2.047   9.743  17.780  0.00  0.00    +0.000 C 
ATOM     10  C   UNL     1       0.264  10.425  19.445  0.00  0.00    +0.000 A 
ATOM     11  C   UNL     1      -0.215  11.525  18.531  0.00  0.00    +0.000 C 
ATOM     12  C   UNL     1      -0.306  10.276  20.718  0.00  0.00    +0.000 A 
ATOM     13  H   UNL     1       2.952   7.083  20.560  0.00  0.00    +0.000 HD
ENDROOT
BRANCH  12  14
ATOM     14  O   UNL     1      -1.303  11.090  21.178  0.00  0.00    +0.000 OA
ATOM     15  H   UNL     1      -2.071  11.048  20.591  0.00  0.00    +0.000 HD
ENDBRANCH  12  14
BRANCH   6  16
ATOM     16  C   UNL     1       3.747   5.745  18.467  0.00  0.00    +0.000 C 
BRANCH  16  17
ATOM     17  C   UNL     1       3.268   4.271  18.340  0.00  0.00    +0.000 C 
ATOM     18  C   UNL     1       4.203   3.523  17.384  0.00  0.00    +0.000 C 
BRANCH  17  19
ATOM     19  C   UNL     1       3.149   3.555  19.720  0.00  0.00    +0.000 C 
BRANCH  19  20
ATOM     20  C   UNL     1       1.719   3.147  20.233  0.00  0.00    +0.000 C 
ATOM     21  C   UNL     1       1.734   2.407  21.583  0.00  0.00    +0.000 C 
ATOM     22  C   UNL     1       0.879   4.431  20.466  0.00  0.00    +0.000 C 
ATOM     23  C   UNL     1       0.991   2.284  19.189  0.00  0.00    +0.000 C 
ENDBRANCH  19  20
ENDBRANCH  17  19
ENDBRANCH  16  17
ENDBRANCH   6  16
TORSDOF 5
ENDMDL
MODEL 4
REMARK VINA RESULT:      -6.4      1.924      6.734
REMARK  Name = 
REMARK  12 active torsions:
REMARK  status: ('A' for Active; 'I' for Inactive)
REMARK    1  A    between atoms: C_1  and  C_2
REMARK    2  A    between atoms: C_6  and  C_8
REMARK    3  A    between atoms: C_8  and  C_9
REMARK    4  A    between atoms: C_9  and  C_10
REMARK    5  A    between atoms: C_9  and  C_11
REMARK    6  A    between atoms: C_11  and  C_12
REMARK    7  A    between atoms: C_12  and  C_13
REMARK    8  A    between atoms: C_12  and  C_14
REMARK    9  A    between atoms: C_12  and  C_15
REMARK   10  A    between atoms: C_16  and  C_17
REMARK   11  A    between atoms: C_18  and  C_19
REMARK   12  A    between atoms: C_20  and  O_21
REMARK                            x       y       z     vdW  Elec       q    Type
REMARK                         _______ _______ _______ _____ _____    ______ ____
ROOT
ATOM      1  C   UNL     1       8.052   5.714  19.335  0.00  0.00    +0.000 C 
ATOM      2  C   UNL     1       6.685   5.390  18.815  0.00  0.00    +0.000 A 
ATOM      3  N   UNL     1       5.636   5.663  19.634  0.00  0.00    +0.000 NA
ATOM      4  C   UNL     1       4.398   5.453  19.160  0.00  0.00    +0.000 A 
ATOM      5  N   UNL     1       3.397   5.845  20.068  0.00  0.00    +0.000 N 
ATOM      6  C   UNL     1       2.378   6.706  19.708  0.00  0.00    +0.000 C 
ATOM      7  O   UNL     1       2.275   7.238  18.606  0.00  0.00    +0.000 OA
ATOM      8  C   UNL     1       4.140   4.838  17.917  0.00  0.00    +0.000 A 
ATOM      9  C   UNL     1       2.748   4.428  17.512  0.00  0.00    +0.000 C 
ATOM     10  C   UNL     1       5.238   4.561  17.064  0.00  0.00    +0.000 A 
ATOM     11  C   UNL     1       5.059   3.943  15.699  0.00  0.00    +0.000 C 
ATOM     12  C   UNL     1       6.528   4.846  17.538  0.00  0.00    +0.000 A 
ATOM     13  H   UNL     1       3.774   5.992  20.994  0.00  0.00    +0.000 HD
ENDROOT
BRANCH  12  14
ATOM     14  O   UNL     1       7.653   4.594  16.806  0.00  0.00    +0.000 OA
ATOM     15  H   UNL     1       8.421   4.499  17.388  0.00  0.00    +0.000 HD
ENDBRANCH  12  14
BRANCH   6  16
ATOM     16  C   UNL     1       1.357   6.958  20.829  0.00  0.00    +0.000 C 
BRANCH  16  17
ATOM     17  C   UNL     1       0.542   8.257  20.569  0.00  0.00    +0.000 C 
ATOM     18  C   UNL     1      -0.405   8.497  21.750  0.00  0.00    +0.000 C 
BRANCH  17  19
ATOM     19  C   UNL     1       1.450   9.492  20.288  0.00  0.00    +0.000 C 
BRANCH  19  20
ATOM     20  C   UNL     1       0.964  10.558  19.238  0.00  0.00    +0.000 C 
ATOM     21  C   UNL     1       0.817  11.977  19.818  0.00  0.00    +0.000 C 
ATOM     22  C   UNL     1       2.019  10.674  18.107  0.00  0.00    +0.000 C 
ATOM     23  C   UNL     1      -0.370  10.129  18.604  0.00  0.00    +0.000 C 
ENDBRANCH  19  20
ENDBRANCH  17  19
ENDBRANCH  16  17
ENDBRANCH   6  16
TORSDOF 5
ENDMDL
MODEL 5
REMARK VINA RESULT:      -6.4      2.763      4.612
REMARK  Name = 
REMARK  12 active torsions:
REMARK  status: ('A' for Active; 'I' for Inactive)
REMARK    1  A    between atoms: C_1  and  C_2
REMARK    2  A    between atoms: C_6  and  C_8
REMARK    3  A    between atoms: C_8  and  C_9
REMARK    4  A    between atoms: C_9  and  C_10
REMARK    5  A    between atoms: C_9  and  C_11
REMARK    6  A    between atoms: C_11  and  C_12
REMARK    7  A    between atoms: C_12  and  C_13
REMARK    8  A    between atoms: C_12  and  C_14
REMARK    9  A    between atoms: C_12  and  C_15
REMARK   10  A    between atoms: C_16  and  C_17
REMARK   11  A    between atoms: C_18  and  C_19
REMARK   12  A    between atoms: C_20  and  O_21
REMARK                            x       y       z     vdW  Elec       q    Type
REMARK                         _______ _______ _______ _____ _____    ______ ____
ROOT
ATOM      1  C   UNL     1       1.064   6.526  21.103  0.00  0.00    +0.000 C 
ATOM      2  C   UNL     1       1.829   5.583  20.225  0.00  0.00    +0.000 A 
ATOM      3  N   UNL     1       3.038   6.008  19.774  0.00  0.00    +0.000 NA
ATOM      4  C   UNL     1       3.775   5.151  19.049  0.00  0.00    +0.000 A 
ATOM      5  N   UNL     1       5.034   5.676  18.707  0.00  0.00    +0.000 N 
ATOM      6  C   UNL     1       6.209   4.999  18.975  0.00  0.00    +0.000 C 
ATOM      7  O   UNL     1       6.271   3.924  19.567  0.00  0.00    +0.000 OA
ATOM      8  C   UNL     1       3.301   3.893  18.623  0.00  0.00    +0.000 A 
ATOM      9  C   UNL     1       4.071   3.051  17.640  0.00  0.00    +0.000 C 
ATOM     10  C   UNL     1       2.041   3.452  19.102  0.00  0.00    +0.000 A 
ATOM     11  C   UNL     1       1.469   2.106  18.733  0.00  0.00    +0.000 C 
ATOM     12  C   UNL     1       1.304   4.326  19.914  0.00  0.00    +0.000 A 
ATOM     13  H   UNL     1       5.073   6.675  18.857  0.00  0.00    +0.000 HD
ENDROOT
BRANCH  12  14
ATOM     14  O   UNL     1       0.070   4.008  20.408  0.00  0.00    +0.000 OA
ATOM     15  H   UNL     1      -0.214   3.144  20.076  0.00  0.00    +0.000 HD
ENDBRANCH  12  14
BRANCH   6  16
ATOM     16  C   UNL     1       7.468   5.718  18.466  0.00  0.00    +0.000 C 
BRANCH  16  17
ATOM     17  C   UNL     1       7.151   6.597  17.222  0.00  0.00    +0.000 C 
ATOM     18  C   UNL     1       7.740   7.996  17.437  0.00  0.00    +0.000 C 
BRANCH  17  19
ATOM     19  C   UNL     1       7.642   5.955  15.889  0.00  0.00    +0.000 C 
BRANCH  19  20
ATOM     20  C   UNL     1       6.612   5.136  15.027  0.00  0.00    +0.000 C 
ATOM     21  C   UNL     1       7.030   4.972  13.554  0.00  0.00    +0.000 C 
ATOM     22  C   UNL     1       6.504   3.697  15.597  0.00  0.00    +0.000 C 
ATOM     23  C   UNL     1       5.216   5.779  15.089  0.00  0.00    +0.000 C 
ENDBRANCH  19  20
ENDBRANCH  17  19
ENDBRANCH  16  17
ENDBRANCH   6  16
TORSDOF 5
ENDMDL
MODEL 6
REMARK VINA RESULT:      -6.4      1.096      1.698
REMARK  Name = 
REMARK  12 active torsions:
REMARK  status: ('A' for Active; 'I' for Inactive)
REMARK    1  A    between atoms: C_1  and  C_2
REMARK    2  A    between atoms: C_6  and  C_8
REMARK    3  A    between atoms: C_8  and  C_9
REMARK    4  A    between atoms: C_9  and  C_10
REMARK    5  A    between atoms: C_9  and  C_11
REMARK    6  A    between atoms: C_11  and  C_12
REMARK    7  A    between atoms: C_12  and  C_13
REMARK    8  A    between atoms: C_12  and  C_14
REMARK    9  A    between atoms: C_12  and  C_15
REMARK   10  A    between atoms: C_16  and  C_17
REMARK   11  A    between atoms: C_18  and  C_19
REMARK   12  A    between atoms: C_20  and  O_21
REMARK                            x       y       z     vdW  Elec       q    Type
REMARK                         _______ _______ _______ _____ _____    ______ ____
ROOT
ATOM      1  C   UNL     1      -0.242   9.260  22.864  0.00  0.00    +0.000 C 
ATOM      2  C   UNL     1       0.398   9.078  21.523  0.00  0.00    +0.000 A 
ATOM      3  N   UNL     1       1.337   8.102  21.417  0.00  0.00    +0.000 NA
ATOM      4  C   UNL     1       1.869   7.871  20.206  0.00  0.00    +0.000 A 
ATOM      5  N   UNL     1       2.769   6.789  20.208  0.00  0.00    +0.000 N 
ATOM      6  C   UNL     1       2.649   5.733  19.324  0.00  0.00    +0.000 C 
ATOM      7  O   UNL     1       1.742   5.615  18.504  0.00  0.00    +0.000 OA
ATOM      8  C   UNL     1       1.604   8.675  19.078  0.00  0.00    +0.000 A 
ATOM      9  C   UNL     1       2.375   8.515  17.794  0.00  0.00    +0.000 C 
ATOM     10  C   UNL     1       0.618   9.688  19.193  0.00  0.00    +0.000 A 
ATOM     11  C   UNL     1       0.237  10.571  18.031  0.00  0.00    +0.000 C 
ATOM     12  C   UNL     1       0.016   9.882  20.445  0.00  0.00    +0.000 A 
ATOM     13  H   UNL     1       3.036   6.530  21.148  0.00  0.00    +0.000 HD
ENDROOT
BRANCH  12  14
ATOM     14  O   UNL     1      -0.925  10.846  20.668  0.00  0.00    +0.000 OA
ATOM     15  H   UNL     1      -1.249  10.797  21.579  0.00  0.00    +0.000 HD
ENDBRANCH  12  14
BRANCH   6  16
ATOM     16  C   UNL     1       3.767   4.687  19.453  0.00  0.00    +0.000 C 
BRANCH  16  17
ATOM     17  C   UNL     1       3.899   3.840  18.156  0.00  0.00    +0.000 C 
ATOM     18  C   UNL     1       2.708   2.880  18.064  0.00  0.00    +0.000 C 
BRANCH  17  19
ATOM     19  C   UNL     1       4.042   4.716  16.875  0.00  0.00    +0.000 C 
BRANCH  19  20
ATOM     20  C   UNL     1       5.461   5.290  16.514  0.00  0.00    +0.000 C 
ATOM     21  C   UNL     1       6.623   4.549  17.202  0.00  0.00    +0.000 C 
ATOM     22  C   UNL     1       5.703   5.126  14.990  0.00  0.00    +0.000 C 
ATOM     23  C   UNL     1       5.545   6.788  16.850  0.00  0.00    +0.000 C 
ENDBRANCH  19  20
ENDBRANCH  17  19
ENDBRANCH  16  17
ENDBRANCH   6  16
TORSDOF 5
ENDMDL
MODEL 7
REMARK VINA RESULT:      -6.3      1.670      6.891
REMARK  Name = 
REMARK  12 active torsions:
REMARK  status: ('A' for Active; 'I' for Inactive)
REMARK    1  A    between atoms: C_1  and  C_2
REMARK    2  A    between atoms: C_6  and  C_8
REMARK    3  A    between atoms: C_8  and  C_9
REMARK    4  A    between atoms: C_9  and  C_10
REMARK    5  A    between atoms: C_9  and  C_11
REMARK    6  A    between atoms: C_11  and  C_12
REMARK    7  A    between atoms: C_12  and  C_13
REMARK    8  A    between atoms: C_12  and  C_14
REMARK    9  A    between atoms: C_12  and  C_15
REMARK   10  A    between atoms: C_16  and  C_17
REMARK   11  A    between atoms: C_18  and  C_19
REMARK   12  A    between atoms: C_20  and  O_21
REMARK                            x       y       z     vdW  Elec       q    Type
REMARK                         _______ _______ _______ _____ _____    ______ ____
ROOT
ATOM      1  C   UNL     1       7.134   5.064  17.837  0.00  0.00    +0.000 C 
ATOM      2  C   UNL     1       5.668   4.851  18.054  0.00  0.00    +0.000 A 
ATOM      3  N   UNL     1       5.071   5.611  19.009  0.00  0.00    +0.000 NA
ATOM      4  C   UNL     1       3.744   5.491  19.168  0.00  0.00    +0.000 A 
ATOM      5  N   UNL     1       3.232   6.382  20.129  0.00  0.00    +0.000 N 
ATOM      6  C   UNL     1       2.179   7.234  19.852  0.00  0.00    +0.000 C 
ATOM      7  O   UNL     1       1.634   7.330  18.756  0.00  0.00    +0.000 OA
ATOM      8  C   UNL     1       2.968   4.525  18.494  0.00  0.00    +0.000 A 
ATOM      9  C   UNL     1       1.525   4.281  18.851  0.00  0.00    +0.000 C 
ATOM     10  C   UNL     1       3.595   3.739  17.494  0.00  0.00    +0.000 A 
ATOM     11  C   UNL     1       2.838   2.710  16.691  0.00  0.00    +0.000 C 
ATOM     12  C   UNL     1       4.970   3.916  17.285  0.00  0.00    +0.000 A 
ATOM     13  H   UNL     1       3.969   6.783  20.693  0.00  0.00    +0.000 HD
ENDROOT
BRANCH  12  14
ATOM     14  O   UNL     1       5.673   3.192  16.364  0.00  0.00    +0.000 OA
ATOM     15  H   UNL     1       5.185   2.393  16.118  0.00  0.00    +0.000 HD
ENDBRANCH  12  14
BRANCH   6  16
ATOM     16  C   UNL     1       1.735   8.081  21.056  0.00  0.00    +0.000 C 
BRANCH  16  17
ATOM     17  C   UNL     1       0.448   8.890  20.731  0.00  0.00    +0.000 C 
ATOM     18  C   UNL     1      -0.555   8.713  21.878  0.00  0.00    +0.000 C 
BRANCH  17  19
ATOM     19  C   UNL     1       0.737  10.393  20.437  0.00  0.00    +0.000 C 
BRANCH  19  20
ATOM     20  C   UNL     1       0.655  10.895  18.948  0.00  0.00    +0.000 C 
ATOM     21  C   UNL     1       1.925  10.605  18.127  0.00  0.00    +0.000 C 
ATOM     22  C   UNL     1      -0.494  10.147  18.223  0.00  0.00    +0.000 C 
ATOM     23  C   UNL     1       0.351  12.401  18.897  0.00  0.00    +0.000 C 
ENDBRANCH  19  20
ENDBRANCH  17  19
ENDBRANCH  16  17
ENDBRANCH   6  16
TORSDOF 5
ENDMDL
MODEL 8
REMARK VINA RESULT:      -6.2      0.982      1.569
REMARK  Name = 
REMARK  12 active torsions:
REMARK  status: ('A' for Active; 'I' for Inactive)
REMARK    1  A    between atoms: C_1  and  C_2
REMARK    2  A    between atoms: C_6  and  C_8
REMARK    3  A    between atoms: C_8  and  C_9
REMARK    4  A    between atoms: C_9  and  C_10
REMARK    5  A    between atoms: C_9  and  C_11
REMARK    6  A    between atoms: C_11  and  C_12
REMARK    7  A    between atoms: C_12  and  C_13
REMARK    8  A    between atoms: C_12  and  C_14
REMARK    9  A    between atoms: C_12  and  C_15
REMARK   10  A    between atoms: C_16  and  C_17
REMARK   11  A    between atoms: C_18  and  C_19
REMARK   12  A    between atoms: C_20  and  O_21
REMARK                            x       y       z     vdW  Elec       q    Type
REMARK                         _______ _______ _______ _____ _____    ______ ____
ROOT
ATOM      1  C   UNL     1       0.327   8.788  22.357  0.00  0.00    +0.000 C 
ATOM      2  C   UNL     1       1.007   8.551  21.043  0.00  0.00    +0.000 A 
ATOM      3  N   UNL     1       1.535   7.317  20.838  0.00  0.00    +0.000 NA
ATOM      4  C   UNL     1       2.081   7.058  19.640  0.00  0.00    +0.000 A 
ATOM      5  N   UNL     1       2.522   5.727  19.522  0.00  0.00    +0.000 N 
ATOM      6  C   UNL     1       2.130   4.914  18.475  0.00  0.00    +0.000 C 
ATOM      7  O   UNL     1       1.341   5.248  17.595  0.00  0.00    +0.000 OA
ATOM      8  C   UNL     1       2.254   8.039  18.641  0.00  0.00    +0.000 A 
ATOM      9  C   UNL     1       3.056   7.765  17.396  0.00  0.00    +0.000 C 
ATOM     10  C   UNL     1       1.695   9.324  18.857  0.00  0.00    +0.000 A 
ATOM     11  C   UNL     1       1.793  10.425  17.831  0.00  0.00    +0.000 C 
ATOM     12  C   UNL     1       1.066   9.569  20.087  0.00  0.00    +0.000 A 
ATOM     13  H   UNL     1       2.569   5.271  20.423  0.00  0.00    +0.000 HD
ENDROOT
BRANCH  12  14
ATOM     14  O   UNL     1       0.517  10.779  20.405  0.00  0.00    +0.000 OA
ATOM     15  H   UNL     1       1.035  11.498  20.015  0.00  0.00    +0.000 HD
ENDBRANCH  12  14
BRANCH   6  16
ATOM     16  C   UNL     1       2.773   3.518  18.502  0.00  0.00    +0.000 C 
BRANCH  16  17
ATOM     17  C   UNL     1       4.204   3.569  19.108  0.00  0.00    +0.000 C 
ATOM     18  C   UNL     1       4.362   2.419  20.109  0.00  0.00    +0.000 C 
BRANCH  17  19
ATOM     19  C   UNL     1       5.321   3.552  18.021  0.00  0.00    +0.000 C 
BRANCH  19  20
ATOM     20  C   UNL     1       6.273   4.799  17.904  0.00  0.00    +0.000 C 
ATOM     21  C   UNL     1       7.733   4.435  17.577  0.00  0.00    +0.000 C 
ATOM     22  C   UNL     1       5.791   5.698  16.735  0.00  0.00    +0.000 C 
ATOM     23  C   UNL     1       6.236   5.636  19.194  0.00  0.00    +0.000 C 
ENDBRANCH  19  20
ENDBRANCH  17  19
ENDBRANCH  16  17
ENDBRANCH   6  16
TORSDOF 5
ENDMDL
MODEL 9
REMARK VINA RESULT:      -6.2      3.677      6.149
REMARK  Name = 
REMARK  12 active torsions:
REMARK  status: ('A' for Active; 'I' for Inactive)
REMARK    1  A    between atoms: C_1  and  C_2
REMARK    2  A    between atoms: C_6  and  C_8
REMARK    3  A    between atoms: C_8  and  C_9
REMARK    4  A    between atoms: C_9  and  C_10
REMARK    5  A    between atoms: C_9  and  C_11
REMARK    6  A    between atoms: C_11  and  C_12
REMARK    7  A    between atoms: C_12  and  C_13
REMARK    8  A    between atoms: C_12  and  C_14
REMARK    9  A    between atoms: C_12  and  C_15
REMARK   10  A    between atoms: C_16  and  C_17
REMARK   11  A    between atoms: C_18  and  C_19
REMARK   12  A    between atoms: C_20  and  O_21
REMARK                            x       y       z     vdW  Elec       q    Type
REMARK                         _______ _______ _______ _____ _____    ______ ____
ROOT
ATOM      1  C   UNL     1       8.632   5.253  20.468  0.00  0.00    +0.000 C 
ATOM      2  C   UNL     1       7.768   5.632  19.305  0.00  0.00    +0.000 A 
ATOM      3  N   UNL     1       6.855   4.714  18.894  0.00  0.00    +0.000 NA
ATOM      4  C   UNL     1       6.018   5.060  17.903  0.00  0.00    +0.000 A 
ATOM      5  N   UNL     1       5.071   4.060  17.619  0.00  0.00    +0.000 N 
ATOM      6  C   UNL     1       3.713   4.320  17.593  0.00  0.00    +0.000 C 
ATOM      7  O   UNL     1       3.211   5.410  17.856  0.00  0.00    +0.000 OA
ATOM      8  C   UNL     1       6.131   6.268  17.182  0.00  0.00    +0.000 A 
ATOM      9  C   UNL     1       5.312   6.529  15.945  0.00  0.00    +0.000 C 
ATOM     10  C   UNL     1       7.082   7.225  17.619  0.00  0.00    +0.000 A 
ATOM     11  C   UNL     1       7.247   8.561  16.938  0.00  0.00    +0.000 C 
ATOM     12  C   UNL     1       7.909   6.884  18.700  0.00  0.00    +0.000 A 
ATOM     13  H   UNL     1       5.328   3.176  18.038  0.00  0.00    +0.000 HD
ENDROOT
BRANCH  12  14
ATOM     14  O   UNL     1       8.872   7.723  19.183  0.00  0.00    +0.000 OA
ATOM     15  H   UNL     1       9.610   7.785  18.559  0.00  0.00    +0.000 HD
ENDBRANCH  12  14
BRANCH   6  16
ATOM     16  C   UNL     1       2.857   3.105  17.205  0.00  0.00    +0.000 C 
BRANCH  16  17
ATOM     17  C   UNL     1       2.756   2.088  18.378  0.00  0.00    +0.000 C 
ATOM     18  C   UNL     1       3.813   0.995  18.182  0.00  0.00    +0.000 C 
BRANCH  17  19
ATOM     19  C   UNL     1       2.872   2.767  19.776  0.00  0.00    +0.000 C 
BRANCH  19  20
ATOM     20  C   UNL     1       1.556   3.271  20.476  0.00  0.00    +0.000 C 
ATOM     21  C   UNL     1       1.509   4.796  20.682  0.00  0.00    +0.000 C 
ATOM     22  C   UNL     1       0.340   2.931  19.575  0.00  0.00    +0.000 C 
ATOM     23  C   UNL     1       1.356   2.570  21.830  0.00  0.00    +0.000 C 
ENDBRANCH  19  20
ENDBRANCH  17  19
ENDBRANCH  16  17
ENDBRANCH   6  16
TORSDOF 5
ENDMDL
