MODEL 1
REMARK VINA RESULT:      -8.2      0.000      0.000
REMARK  Name = 
REMARK  8 active torsions:
REMARK  status: ('A' for Active; 'I' for Inactive)
REMARK    1  A    between atoms: C_1  and  C_2
REMARK    2  A    between atoms: C_3  and  O_4
REMARK    3  A    between atoms: O_4  and  C_5
REMARK    4  A    between atoms: C_5  and  C_6
REMARK    5  A    between atoms: C_22  and  S_23
REMARK    6  A    between atoms: S_23  and  C_24
REMARK    7  A    between atoms: C_24  and  C_25
REMARK    8  A    between atoms: C_25  and  N_26
REMARK                            x       y       z     vdW  Elec       q    Type
REMARK                         _______ _______ _______ _____ _____    ______ ____
ROOT
ATOM      1  C   UNL     1       3.130   7.118  17.357  0.00  0.00    +0.000 C 
ATOM      2  C   UNL     1       2.482   6.830  18.687  0.00  0.00    +0.000 A 
ATOM      3  C   UNL     1       2.406   5.527  19.215  0.00  0.00    +0.000 A 
ATOM      4  C   UNL     1       1.815   5.324  20.466  0.00  0.00    +0.000 A 
ATOM      5  C   UNL     1       1.313   6.408  21.201  0.00  0.00    +0.000 A 
ATOM      6  C   UNL     1       1.382   7.699  20.675  0.00  0.00    +0.000 A 
ATOM      7  C   UNL     1       0.833   8.864  21.396  0.00  0.00    +0.000 A 
ATOM      8  O   UNL     1       0.381   8.772  22.526  0.00  0.00    +0.000 OA
ATOM      9  C   UNL     1       0.816  10.154  20.665  0.00  0.00    +0.000 A 
ATOM     10  C   UNL     1       1.373  10.219  19.451  0.00  0.00    +0.000 A 
ATOM     11  O   UNL     1       2.038   9.153  18.865  0.00  0.00    +0.000 OA
ATOM     12  C   UNL     1       1.956   7.905  19.429  0.00  0.00    +0.000 A 
ENDROOT
BRANCH   3  13
ATOM     13  O   UNL     1       2.890   4.522  18.421  0.00  0.00    +0.000 OA
BRANCH  13  14
ATOM     14  C   UNL     1       4.047   3.807  18.869  0.00  0.00    +0.000 C 
BRANCH  14  15
ATOM     15  C   UNL     1       5.298   4.553  18.432  0.00  0.00    +0.000 A 
ATOM     16  C   UNL     1       6.072   5.199  19.414  0.00  0.00    +0.000 A 
ATOM     17  C   UNL     1       7.246   5.871  19.076  0.00  0.00    +0.000 A 
ATOM     18  C   UNL     1       7.685   5.879  17.753  0.00  0.00    +0.000 A 
ATOM     19  C   UNL     1       6.945   5.239  16.750  0.00  0.00    +0.000 A 
ATOM     20  C   UNL     1       7.425   5.215  15.432  0.00  0.00    +0.000 A 
ATOM     21  C   UNL     1       6.701   4.597  14.412  0.00  0.00    +0.000 A 
ATOM     22  C   UNL     1       5.461   4.043  14.692  0.00  0.00    +0.000 A 
ATOM     23  C   UNL     1       4.970   4.060  16.001  0.00  0.00    +0.000 A 
ATOM     24  C   UNL     1       5.714   4.612  17.065  0.00  0.00    +0.000 A 
ENDBRANCH  14  15
ENDBRANCH  13  14
ENDBRANCH   3  13
BRANCH  10  25
ATOM     25  S   UNL     1       1.278  11.688  18.484  0.00  0.00    +0.000 S 
BRANCH  25  26
ATOM     26  C   UNL     1      -0.340  12.290  19.092  0.00  0.00    +0.000 C 
BRANCH  26  27
ATOM     27  C   UNL     1      -1.553  12.296  18.143  0.00  0.00    +0.000 C 
BRANCH  27  28
ATOM     28  N   UNL     1      -2.363  11.061  18.331  0.00  0.00    +0.000 NA
ATOM     29  C   UNL     1      -2.081   9.998  17.338  0.00  0.00    +0.000 C 
ATOM     30  C   UNL     1      -2.546  10.383  15.929  0.00  0.00    +0.000 C 
ATOM     31  O   UNL     1      -3.969  10.543  15.918  0.00  0.00    +0.000 OA
ATOM     32  C   UNL     1      -4.392  11.535  16.865  0.00  0.00    +0.000 C 
ATOM     33  C   UNL     1      -3.822  11.308  18.282  0.00  0.00    +0.000 C 
ENDBRANCH  27  28
ENDBRANCH  26  27
ENDBRANCH  25  26
ENDBRANCH  10  25
TORSDOF 7
ENDMDL
MODEL 2
REMARK VINA RESULT:      -8.2      3.662     10.710
REMARK  Name = 
REMARK  8 active torsions:
REMARK  status: ('A' for Active; 'I' for Inactive)
REMARK    1  A    between atoms: C_1  and  C_2
REMARK    2  A    between atoms: C_3  and  O_4
REMARK    3  A    between atoms: O_4  and  C_5
REMARK    4  A    between atoms: C_5  and  C_6
REMARK    5  A    between atoms: C_22  and  S_23
REMARK    6  A    between atoms: S_23  and  C_24
REMARK    7  A    between atoms: C_24  and  C_25
REMARK    8  A    between atoms: C_25  and  N_26
REMARK                            x       y       z     vdW  Elec       q    Type
REMARK                         _______ _______ _______ _____ _____    ______ ____
ROOT
ATOM      1  C   UNL     1      -0.232   9.124  22.765  0.00  0.00    +0.000 C 
ATOM      2  C   UNL     1      -0.022   9.776  21.423  0.00  0.00    +0.000 A 
ATOM      3  C   UNL     1      -0.605  11.015  21.094  0.00  0.00    +0.000 A 
ATOM      4  C   UNL     1      -0.354  11.584  19.840  0.00  0.00    +0.000 A 
ATOM      5  C   UNL     1       0.484  10.937  18.920  0.00  0.00    +0.000 A 
ATOM      6  C   UNL     1       1.057   9.705  19.243  0.00  0.00    +0.000 A 
ATOM      7  C   UNL     1       1.914   8.972  18.292  0.00  0.00    +0.000 A 
ATOM      8  O   UNL     1       2.243   9.447  17.217  0.00  0.00    +0.000 OA
ATOM      9  C   UNL     1       2.327   7.603  18.684  0.00  0.00    +0.000 A 
ATOM     10  C   UNL     1       1.990   7.146  19.896  0.00  0.00    +0.000 A 
ATOM     11  O   UNL     1       1.332   7.919  20.840  0.00  0.00    +0.000 OA
ATOM     12  C   UNL     1       0.802   9.131  20.480  0.00  0.00    +0.000 A 
ENDROOT
BRANCH   3  13
ATOM     13  O   UNL     1      -1.434  11.564  22.035  0.00  0.00    +0.000 OA
BRANCH  13  14
ATOM     14  C   UNL     1      -2.190  12.725  21.673  0.00  0.00    +0.000 C 
BRANCH  14  15
ATOM     15  C   UNL     1      -3.522  12.707  22.406  0.00  0.00    +0.000 A 
ATOM     16  C   UNL     1      -3.514  12.655  23.812  0.00  0.00    +0.000 A 
ATOM     17  C   UNL     1      -4.703  12.668  24.538  0.00  0.00    +0.000 A 
ATOM     18  C   UNL     1      -5.924  12.768  23.871  0.00  0.00    +0.000 A 
ATOM     19  C   UNL     1      -5.969  12.829  22.472  0.00  0.00    +0.000 A 
ATOM     20  C   UNL     1      -7.202  12.977  21.818  0.00  0.00    +0.000 A 
ATOM     21  C   UNL     1      -7.277  13.028  20.425  0.00  0.00    +0.000 A 
ATOM     22  C   UNL     1      -6.123  12.875  19.672  0.00  0.00    +0.000 A 
ATOM     23  C   UNL     1      -4.889  12.725  20.311  0.00  0.00    +0.000 A 
ATOM     24  C   UNL     1      -4.774  12.746  21.717  0.00  0.00    +0.000 A 
ENDBRANCH  14  15
ENDBRANCH  13  14
ENDBRANCH   3  13
BRANCH  10  25
ATOM     25  S   UNL     1       2.345   5.488  20.373  0.00  0.00    +0.000 S 
BRANCH  25  26
ATOM     26  C   UNL     1       3.278   4.986  18.881  0.00  0.00    +0.000 C 
BRANCH  26  27
ATOM     27  C   UNL     1       4.796   4.744  18.983  0.00  0.00    +0.000 C 
BRANCH  27  28
ATOM     28  N   UNL     1       5.538   5.773  18.203  0.00  0.00    +0.000 NA
ATOM     29  C   UNL     1       5.418   5.618  16.734  0.00  0.00    +0.000 C 
ATOM     30  C   UNL     1       6.132   4.363  16.223  0.00  0.00    +0.000 C 
ATOM     31  O   UNL     1       7.537   4.470  16.478  0.00  0.00    +0.000 OA
ATOM     32  C   UNL     1       7.803   4.654  17.877  0.00  0.00    +0.000 C 
ATOM     33  C   UNL     1       6.986   5.803  18.507  0.00  0.00    +0.000 C 
ENDBRANCH  27  28
ENDBRANCH  26  27
ENDBRANCH  25  26
ENDBRANCH  10  25
TORSDOF 7
ENDMDL
MODEL 3
REMARK VINA RESULT:      -8.1      2.210      3.439
REMARK  Name = 
REMARK  8 active torsions:
REMARK  status: ('A' for Active; 'I' for Inactive)
REMARK    1  A    between atoms: C_1  and  C_2
REMARK    2  A    between atoms: C_3  and  O_4
REMARK    3  A    between atoms: O_4  and  C_5
REMARK    4  A    between atoms: C_5  and  C_6
REMARK    5  A    between atoms: C_22  and  S_23
REMARK    6  A    between atoms: S_23  and  C_24
REMARK    7  A    between atoms: C_24  and  C_25
REMARK    8  A    between atoms: C_25  and  N_26
REMARK                            x       y       z     vdW  Elec       q    Type
REMARK                         _______ _______ _______ _____ _____    ______ ____
ROOT
ATOM      1  C   UNL     1       0.508  10.532  17.921  0.00  0.00    +0.000 C 
ATOM      2  C   UNL     1       0.704   9.793  19.220  0.00  0.00    +0.000 A 
ATOM      3  C   UNL     1       1.423   8.584  19.290  0.00  0.00    +0.000 A 
ATOM      4  C   UNL     1       1.594   7.956  20.528  0.00  0.00    +0.000 A 
ATOM      5  C   UNL     1       1.070   8.530  21.697  0.00  0.00    +0.000 A 
ATOM      6  C   UNL     1       0.353   9.725  21.626  0.00  0.00    +0.000 A 
ATOM      7  C   UNL     1      -0.248  10.344  22.823  0.00  0.00    +0.000 A 
ATOM      8  O   UNL     1      -0.066   9.897  23.944  0.00  0.00    +0.000 OA
ATOM      9  C   UNL     1      -1.124  11.519  22.598  0.00  0.00    +0.000 A 
ATOM     10  C   UNL     1      -1.249  12.008  21.359  0.00  0.00    +0.000 A 
ATOM     11  O   UNL     1      -0.537  11.515  20.277  0.00  0.00    +0.000 OA
ATOM     12  C   UNL     1       0.169  10.346  20.399  0.00  0.00    +0.000 A 
ENDROOT
BRANCH   3  13
ATOM     13  O   UNL     1       1.873   8.076  18.101  0.00  0.00    +0.000 OA
BRANCH  13  14
ATOM     14  C   UNL     1       3.251   7.700  18.008  0.00  0.00    +0.000 C 
BRANCH  14  15
ATOM     15  C   UNL     1       3.347   6.213  17.702  0.00  0.00    +0.000 A 
ATOM     16  C   UNL     1       2.248   5.392  18.012  0.00  0.00    +0.000 A 
ATOM     17  C   UNL     1       2.267   4.028  17.724  0.00  0.00    +0.000 A 
ATOM     18  C   UNL     1       3.374   3.467  17.089  0.00  0.00    +0.000 A 
ATOM     19  C   UNL     1       4.483   4.257  16.758  0.00  0.00    +0.000 A 
ATOM     20  C   UNL     1       5.570   3.687  16.077  0.00  0.00    +0.000 A 
ATOM     21  C   UNL     1       6.693   4.448  15.747  0.00  0.00    +0.000 A 
ATOM     22  C   UNL     1       6.761   5.774  16.146  0.00  0.00    +0.000 A 
ATOM     23  C   UNL     1       5.687   6.353  16.826  0.00  0.00    +0.000 A 
ATOM     24  C   UNL     1       4.509   5.629  17.107  0.00  0.00    +0.000 A 
ENDBRANCH  14  15
ENDBRANCH  13  14
ENDBRANCH   3  13
BRANCH  10  25
ATOM     25  S   UNL     1      -2.367  13.323  21.009  0.00  0.00    +0.000 S 
BRANCH  25  26
ATOM     26  C   UNL     1      -3.566  12.377  20.001  0.00  0.00    +0.000 C 
BRANCH  26  27
ATOM     27  C   UNL     1      -5.075  12.625  20.187  0.00  0.00    +0.000 C 
BRANCH  27  28
ATOM     28  N   UNL     1      -5.863  11.564  19.501  0.00  0.00    +0.000 NA
ATOM     29  C   UNL     1      -5.383  11.245  18.136  0.00  0.00    +0.000 C 
ATOM     30  C   UNL     1      -5.619  12.397  17.154  0.00  0.00    +0.000 C 
ATOM     31  O   UNL     1      -7.024  12.632  17.015  0.00  0.00    +0.000 OA
ATOM     32  C   UNL     1      -7.633  12.930  18.280  0.00  0.00    +0.000 C 
ATOM     33  C   UNL     1      -7.301  11.895  19.376  0.00  0.00    +0.000 C 
ENDBRANCH  27  28
ENDBRANCH  26  27
ENDBRANCH  25  26
ENDBRANCH  10  25
TORSDOF 7
ENDMDL
MODEL 4
REMARK VINA RESULT:      -7.9      2.472      4.129
REMARK  Name = 
REMARK  8 active torsions:
REMARK  status: ('A' for Active; 'I' for Inactive)
REMARK    1  A    between atoms: C_1  and  C_2
REMARK    2  A    between atoms: C_3  and  O_4
REMARK    3  A    between atoms: O_4  and  C_5
REMARK    4  A    between atoms: C_5  and  C_6
REMARK    5  A    between atoms: C_22  and  S_23
REMARK    6  A    between atoms: S_23  and  C_24
REMARK    7  A    between atoms: C_24  and  C_25
REMARK    8  A    between atoms: C_25  and  N_26
REMARK                            x       y       z     vdW  Elec       q    Type
REMARK                         _______ _______ _______ _____ _____    ______ ____
ROOT
ATOM      1  C   UNL     1       1.300  10.469  18.030  0.00  0.00    +0.000 C 
ATOM      2  C   UNL     1       1.221   9.680  19.311  0.00  0.00    +0.000 A 
ATOM      3  C   UNL     1       1.811   8.408  19.442  0.00  0.00    +0.000 A 
ATOM      4  C   UNL     1       1.728   7.733  20.665  0.00  0.00    +0.000 A 
ATOM      5  C   UNL     1       1.076   8.320  21.760  0.00  0.00    +0.000 A 
ATOM      6  C   UNL     1       0.485   9.578  21.627  0.00  0.00    +0.000 A 
ATOM      7  C   UNL     1      -0.243  10.217  22.741  0.00  0.00    +0.000 A 
ATOM      8  O   UNL     1      -0.282   9.724  23.856  0.00  0.00    +0.000 OA
ATOM      9  C   UNL     1      -0.966  11.473  22.430  0.00  0.00    +0.000 A 
ATOM     10  C   UNL     1      -0.848  12.006  21.209  0.00  0.00    +0.000 A 
ATOM     11  O   UNL     1      -0.018  11.479  20.231  0.00  0.00    +0.000 OA
ATOM     12  C   UNL     1       0.555  10.247  20.414  0.00  0.00    +0.000 A 
ENDROOT
BRANCH   3  13
ATOM     13  O   UNL     1       2.400   7.893  18.318  0.00  0.00    +0.000 OA
BRANCH  13  14
ATOM     14  C   UNL     1       1.980   6.599  17.870  0.00  0.00    +0.000 C 
BRANCH  14  15
ATOM     15  C   UNL     1       2.972   5.554  18.355  0.00  0.00    +0.000 A 
ATOM     16  C   UNL     1       4.307   5.642  17.919  0.00  0.00    +0.000 A 
ATOM     17  C   UNL     1       5.267   4.730  18.357  0.00  0.00    +0.000 A 
ATOM     18  C   UNL     1       4.915   3.732  19.265  0.00  0.00    +0.000 A 
ATOM     19  C   UNL     1       3.596   3.620  19.726  0.00  0.00    +0.000 A 
ATOM     20  C   UNL     1       3.268   2.641  20.677  0.00  0.00    +0.000 A 
ATOM     21  C   UNL     1       1.961   2.498  21.143  0.00  0.00    +0.000 A 
ATOM     22  C   UNL     1       0.957   3.299  20.619  0.00  0.00    +0.000 A 
ATOM     23  C   UNL     1       1.270   4.278  19.672  0.00  0.00    +0.000 A 
ATOM     24  C   UNL     1       2.595   4.494  19.238  0.00  0.00    +0.000 A 
ENDBRANCH  14  15
ENDBRANCH  13  14
ENDBRANCH   3  13
BRANCH  10  25
ATOM     25  S   UNL     1      -1.778  13.428  20.743  0.00  0.00    +0.000 S 
BRANCH  25  26
ATOM     26  C   UNL     1      -3.216  12.565  20.011  0.00  0.00    +0.000 C 
BRANCH  26  27
ATOM     27  C   UNL     1      -4.579  12.624  20.726  0.00  0.00    +0.000 C 
BRANCH  27  28
ATOM     28  N   UNL     1      -5.650  13.015  19.767  0.00  0.00    +0.000 NA
ATOM     29  C   UNL     1      -7.014  12.627  20.196  0.00  0.00    +0.000 C 
ATOM     30  C   UNL     1      -7.216  11.108  20.182  0.00  0.00    +0.000 C 
ATOM     31  O   UNL     1      -7.087  10.617  18.844  0.00  0.00    +0.000 OA
ATOM     32  C   UNL     1      -5.807  10.948  18.285  0.00  0.00    +0.000 C 
ATOM     33  C   UNL     1      -5.455  12.447  18.414  0.00  0.00    +0.000 C 
ENDBRANCH  27  28
ENDBRANCH  26  27
ENDBRANCH  25  26
ENDBRANCH  10  25
TORSDOF 7
ENDMDL
MODEL 5
REMARK VINA RESULT:      -7.9      3.674     10.626
REMARK  Name = 
REMARK  8 active torsions:
REMARK  status: ('A' for Active; 'I' for Inactive)
REMARK    1  A    between atoms: C_1  and  C_2
REMARK    2  A    between atoms: C_3  and  O_4
REMARK    3  A    between atoms: O_4  and  C_5
REMARK    4  A    between atoms: C_5  and  C_6
REMARK    5  A    between atoms: C_22  and  S_23
REMARK    6  A    between atoms: S_23  and  C_24
REMARK    7  A    between atoms: C_24  and  C_25
REMARK    8  A    between atoms: C_25  and  N_26
REMARK                            x       y       z     vdW  Elec       q    Type
REMARK                         _______ _______ _______ _____ _____    ______ ____
ROOT
ATOM      1  C   UNL     1      -0.027   9.042  22.890  0.00  0.00    +0.000 C 
ATOM      2  C   UNL     1       0.036   9.893  21.648  0.00  0.00    +0.000 A 
ATOM      3  C   UNL     1      -0.636  11.127  21.553  0.00  0.00    +0.000 A 
ATOM      4  C   UNL     1      -0.521  11.885  20.383  0.00  0.00    +0.000 A 
ATOM      5  C   UNL     1       0.270  11.433  19.316  0.00  0.00    +0.000 A 
ATOM      6  C   UNL     1       0.931  10.207  19.408  0.00  0.00    +0.000 A 
ATOM      7  C   UNL     1       1.742   9.675  18.296  0.00  0.00    +0.000 A 
ATOM      8  O   UNL     1       1.954  10.320  17.283  0.00  0.00    +0.000 OA
ATOM      9  C   UNL     1       2.257   8.293  18.448  0.00  0.00    +0.000 A 
ATOM     10  C   UNL     1       2.046   7.645  19.599  0.00  0.00    +0.000 A 
ATOM     11  O   UNL     1       1.431   8.230  20.695  0.00  0.00    +0.000 OA
ATOM     12  C   UNL     1       0.810   9.445  20.561  0.00  0.00    +0.000 A 
ENDROOT
BRANCH   3  13
ATOM     13  O   UNL     1      -1.411  11.480  22.625  0.00  0.00    +0.000 OA
BRANCH  13  14
ATOM     14  C   UNL     1      -1.970  12.798  22.648  0.00  0.00    +0.000 C 
BRANCH  14  15
ATOM     15  C   UNL     1      -3.456  12.708  22.960  0.00  0.00    +0.000 A 
ATOM     16  C   UNL     1      -3.853  12.585  24.304  0.00  0.00    +0.000 A 
ATOM     17  C   UNL     1      -5.202  12.531  24.652  0.00  0.00    +0.000 A 
ATOM     18  C   UNL     1      -6.180  12.633  23.663  0.00  0.00    +0.000 A 
ATOM     19  C   UNL     1      -5.820  12.764  22.315  0.00  0.00    +0.000 A 
ATOM     20  C   UNL     1      -6.815  12.914  21.337  0.00  0.00    +0.000 A 
ATOM     21  C   UNL     1      -6.486  13.033  19.986  0.00  0.00    +0.000 A 
ATOM     22  C   UNL     1      -5.158  12.948  19.596  0.00  0.00    +0.000 A 
ATOM     23  C   UNL     1      -4.157  12.798  20.560  0.00  0.00    +0.000 A 
ATOM     24  C   UNL     1      -4.455  12.751  21.938  0.00  0.00    +0.000 A 
ENDBRANCH  14  15
ENDBRANCH  13  14
ENDBRANCH   3  13
BRANCH  10  25
ATOM     25  S   UNL     1       2.526   5.961  19.796  0.00  0.00    +0.000 S 
BRANCH  25  26
ATOM     26  C   UNL     1       2.767   5.555  18.028  0.00  0.00    +0.000 C 
BRANCH  26  27
ATOM     27  C   UNL     1       4.177   5.651  17.414  0.00  0.00    +0.000 C 
BRANCH  27  28
ATOM     28  N   UNL     1       4.879   4.343  17.525  0.00  0.00    +0.000 NA
ATOM     29  C   UNL     1       6.026   4.352  18.463  0.00  0.00    +0.000 C 
ATOM     30  C   UNL     1       7.187   5.211  17.951  0.00  0.00    +0.000 C 
ATOM     31  O   UNL     1       7.699   4.653  16.736  0.00  0.00    +0.000 OA
ATOM     32  C   UNL     1       6.677   4.558  15.733  0.00  0.00    +0.000 C 
ATOM     33  C   UNL     1       5.399   3.848  16.230  0.00  0.00    +0.000 C 
ENDBRANCH  27  28
ENDBRANCH  26  27
ENDBRANCH  25  26
ENDBRANCH  10  25
TORSDOF 7
ENDMDL
MODEL 6
REMARK VINA RESULT:      -7.8      3.134      9.098
REMARK  Name = 
REMARK  8 active torsions:
REMARK  status: ('A' for Active; 'I' for Inactive)
REMARK    1  A    between atoms: C_1  and  C_2
REMARK    2  A    between atoms: C_3  and  O_4
REMARK    3  A    between atoms: O_4  and  C_5
REMARK    4  A    between atoms: C_5  and  C_6
REMARK    5  A    between atoms: C_22  and  S_23
REMARK    6  A    between atoms: S_23  and  C_24
REMARK    7  A    between atoms: C_24  and  C_25
REMARK    8  A    between atoms: C_25  and  N_26
REMARK                            x       y       z     vdW  Elec       q    Type
REMARK                         _______ _______ _______ _____ _____    ______ ____
ROOT
ATOM      1  C   UNL     1       2.923   7.719  17.796  0.00  0.00    +0.000 C 
ATOM      2  C   UNL     1       2.552   6.647  18.788  0.00  0.00    +0.000 A 
ATOM      3  C   UNL     1       1.973   6.951  20.035  0.00  0.00    +0.000 A 
ATOM      4  C   UNL     1       1.627   5.911  20.905  0.00  0.00    +0.000 A 
ATOM      5  C   UNL     1       1.839   4.574  20.537  0.00  0.00    +0.000 A 
ATOM      6  C   UNL     1       2.419   4.273  19.303  0.00  0.00    +0.000 A 
ATOM      7  C   UNL     1       2.695   2.883  18.891  0.00  0.00    +0.000 A 
ATOM      8  O   UNL     1       2.343   1.927  19.561  0.00  0.00    +0.000 OA
ATOM      9  C   UNL     1       3.463   2.700  17.636  0.00  0.00    +0.000 A 
ATOM     10  C   UNL     1       3.778   3.775  16.905  0.00  0.00    +0.000 A 
ATOM     11  O   UNL     1       3.358   5.057  17.224  0.00  0.00    +0.000 OA
ATOM     12  C   UNL     1       2.775   5.300  18.441  0.00  0.00    +0.000 A 
ENDROOT
BRANCH   3  13
ATOM     13  O   UNL     1       1.830   8.280  20.330  0.00  0.00    +0.000 OA
BRANCH  13  14
ATOM     14  C   UNL     1       0.711   8.676  21.131  0.00  0.00    +0.000 C 
BRANCH  14  15
ATOM     15  C   UNL     1       0.010   9.852  20.469  0.00  0.00    +0.000 A 
ATOM     16  C   UNL     1       0.104   9.989  19.072  0.00  0.00    +0.000 A 
ATOM     17  C   UNL     1      -0.545  11.029  18.407  0.00  0.00    +0.000 A 
ATOM     18  C   UNL     1      -1.328  11.931  19.126  0.00  0.00    +0.000 A 
ATOM     19  C   UNL     1      -1.450  11.820  20.518  0.00  0.00    +0.000 A 
ATOM     20  C   UNL     1      -2.280  12.707  21.221  0.00  0.00    +0.000 A 
ATOM     21  C   UNL     1      -2.409  12.627  22.608  0.00  0.00    +0.000 A 
ATOM     22  C   UNL     1      -1.665  11.692  23.311  0.00  0.00    +0.000 A 
ATOM     23  C   UNL     1      -0.834  10.803  22.624  0.00  0.00    +0.000 A 
ATOM     24  C   UNL     1      -0.742  10.812  21.216  0.00  0.00    +0.000 A 
ENDBRANCH  14  15
ENDBRANCH  13  14
ENDBRANCH   3  13
BRANCH  10  25
ATOM     25  S   UNL     1       4.792   3.634  15.471  0.00  0.00    +0.000 S 
BRANCH  25  26
ATOM     26  C   UNL     1       6.394   4.056  16.247  0.00  0.00    +0.000 C 
BRANCH  26  27
ATOM     27  C   UNL     1       6.882   5.517  16.233  0.00  0.00    +0.000 C 
BRANCH  27  28
ATOM     28  N   UNL     1       6.281   6.274  17.366  0.00  0.00    +0.000 NA
ATOM     29  C   UNL     1       6.598   7.721  17.359  0.00  0.00    +0.000 C 
ATOM     30  C   UNL     1       8.080   7.991  17.644  0.00  0.00    +0.000 C 
ATOM     31  O   UNL     1       8.407   7.539  18.963  0.00  0.00    +0.000 OA
ATOM     32  C   UNL     1       8.121   6.141  19.122  0.00  0.00    +0.000 C 
ATOM     33  C   UNL     1       6.688   5.759  18.693  0.00  0.00    +0.000 C 
ENDBRANCH  27  28
ENDBRANCH  26  27
ENDBRANCH  25  26
ENDBRANCH  10  25
TORSDOF 7
ENDMDL
MODEL 7
REMARK VINA RESULT:      -7.8      3.095      4.985
REMARK  Name = 
REMARK  8 active torsions:
REMARK  status: ('A' for Active; 'I' for Inactive)
REMARK    1  A    between atoms: C_1  and  C_2
REMARK    2  A    between atoms: C_3  and  O_4
REMARK    3  A    between atoms: O_4  and  C_5
REMARK    4  A    between atoms: C_5  and  C_6
REMARK    5  A    between atoms: C_22  and  S_23
REMARK    6  A    between atoms: S_23  and  C_24
REMARK    7  A    between atoms: C_24  and  C_25
REMARK    8  A    between atoms: C_25  and  N_26
REMARK                            x       y       z     vdW  Elec       q    Type
REMARK                         _______ _______ _______ _____ _____    ______ ____
ROOT
ATOM      1  C   UNL     1       0.878   9.278  22.500  0.00  0.00    +0.000 C 
ATOM      2  C   UNL     1       0.607   9.616  21.057  0.00  0.00    +0.000 A 
ATOM      3  C   UNL     1       1.240   8.936  19.998  0.00  0.00    +0.000 A 
ATOM      4  C   UNL     1       0.929   9.276  18.677  0.00  0.00    +0.000 A 
ATOM      5  C   UNL     1      -0.017  10.276  18.403  0.00  0.00    +0.000 A 
ATOM      6  C   UNL     1      -0.639  10.954  19.452  0.00  0.00    +0.000 A 
ATOM      7  C   UNL     1      -1.612  12.038  19.210  0.00  0.00    +0.000 A 
ATOM      8  O   UNL     1      -1.992  12.327  18.088  0.00  0.00    +0.000 OA
ATOM      9  C   UNL     1      -2.078  12.792  20.398  0.00  0.00    +0.000 A 
ATOM     10  C   UNL     1      -1.678  12.402  21.613  0.00  0.00    +0.000 A 
ATOM     11  O   UNL     1      -0.903  11.274  21.828  0.00  0.00    +0.000 OA
ATOM     12  C   UNL     1      -0.326  10.629  20.764  0.00  0.00    +0.000 A 
ENDROOT
BRANCH   3  13
ATOM     13  O   UNL     1       2.173   7.998  20.352  0.00  0.00    +0.000 OA
BRANCH  13  14
ATOM     14  C   UNL     1       1.764   6.627  20.402  0.00  0.00    +0.000 C 
BRANCH  14  15
ATOM     15  C   UNL     1       2.431   5.862  19.269  0.00  0.00    +0.000 A 
ATOM     16  C   UNL     1       3.403   6.521  18.495  0.00  0.00    +0.000 A 
ATOM     17  C   UNL     1       4.070   5.860  17.464  0.00  0.00    +0.000 A 
ATOM     18  C   UNL     1       3.799   4.516  17.211  0.00  0.00    +0.000 A 
ATOM     19  C   UNL     1       2.842   3.826  17.967  0.00  0.00    +0.000 A 
ATOM     20  C   UNL     1       2.615   2.461  17.732  0.00  0.00    +0.000 A 
ATOM     21  C   UNL     1       1.659   1.753  18.461  0.00  0.00    +0.000 A 
ATOM     22  C   UNL     1       0.881   2.419  19.396  0.00  0.00    +0.000 A 
ATOM     23  C   UNL     1       1.096   3.778  19.640  0.00  0.00    +0.000 A 
ATOM     24  C   UNL     1       2.106   4.501  18.971  0.00  0.00    +0.000 A 
ENDBRANCH  14  15
ENDBRANCH  13  14
ENDBRANCH   3  13
BRANCH  10  25
ATOM     25  S   UNL     1      -2.100  13.329  23.051  0.00  0.00    +0.000 S 
BRANCH  25  26
ATOM     26  C   UNL     1      -3.795  12.682  23.285  0.00  0.00    +0.000 C 
BRANCH  26  27
ATOM     27  C   UNL     1      -4.964  13.319  22.509  0.00  0.00    +0.000 C 
BRANCH  27  28
ATOM     28  N   UNL     1      -5.780  12.265  21.845  0.00  0.00    +0.000 NA
ATOM     29  C   UNL     1      -5.594  12.194  20.378  0.00  0.00    +0.000 C 
ATOM     30  C   UNL     1      -6.157  13.426  19.661  0.00  0.00    +0.000 C 
ATOM     31  O   UNL     1      -7.573  13.493  19.859  0.00  0.00    +0.000 OA
ATOM     32  C   UNL     1      -7.905  13.541  21.255  0.00  0.00    +0.000 C 
ATOM     33  C   UNL     1      -7.234  12.421  22.079  0.00  0.00    +0.000 C 
ENDBRANCH  27  28
ENDBRANCH  26  27
ENDBRANCH  25  26
ENDBRANCH  10  25
TORSDOF 7
ENDMDL
MODEL 8
REMARK VINA RESULT:      -7.7      3.275      5.174
REMARK  Name = 
REMARK  8 active torsions:
REMARK  status: ('A' for Active; 'I' for Inactive)
REMARK    1  A    between atoms: C_1  and  C_2
REMARK    2  A    between atoms: C_3  and  O_4
REMARK    3  A    between atoms: O_4  and  C_5
REMARK    4  A    between atoms: C_5  and  C_6
REMARK    5  A    between atoms: C_22  and  S_23
REMARK    6  A    between atoms: S_23  and  C_24
REMARK    7  A    between atoms: C_24  and  C_25
REMARK    8  A    between atoms: C_25  and  N_26
REMARK                            x       y       z     vdW  Elec       q    Type
REMARK                         _______ _______ _______ _____ _____    ______ ____
ROOT
ATOM      1  C   UNL     1      -0.276   9.301  22.411  0.00  0.00    +0.000 C 
ATOM      2  C   UNL     1       0.394   9.639  21.105  0.00  0.00    +0.000 A 
ATOM      3  C   UNL     1       0.969   8.652  20.281  0.00  0.00    +0.000 A 
ATOM      4  C   UNL     1       1.556   9.024  19.067  0.00  0.00    +0.000 A 
ATOM      5  C   UNL     1       1.560  10.366  18.659  0.00  0.00    +0.000 A 
ATOM      6  C   UNL     1       0.996  11.346  19.478  0.00  0.00    +0.000 A 
ATOM      7  C   UNL     1       1.012  12.774  19.107  0.00  0.00    +0.000 A 
ATOM      8  O   UNL     1       1.429  13.158  18.027  0.00  0.00    +0.000 OA
ATOM      9  C   UNL     1       0.532  13.734  20.130  0.00  0.00    +0.000 A 
ATOM     10  C   UNL     1       0.031  13.263  21.278  0.00  0.00    +0.000 A 
ATOM     11  O   UNL     1      -0.134  11.911  21.533  0.00  0.00    +0.000 OA
ATOM     12  C   UNL     1       0.424  10.984  20.689  0.00  0.00    +0.000 A 
ENDROOT
BRANCH   3  13
ATOM     13  O   UNL     1       0.952   7.372  20.767  0.00  0.00    +0.000 OA
BRANCH  13  14
ATOM     14  C   UNL     1       2.189   6.654  20.819  0.00  0.00    +0.000 C 
BRANCH  14  15
ATOM     15  C   UNL     1       2.035   5.333  20.080  0.00  0.00    +0.000 A 
ATOM     16  C   UNL     1       1.059   4.424  20.526  0.00  0.00    +0.000 A 
ATOM     17  C   UNL     1       0.851   3.213  19.867  0.00  0.00    +0.000 A 
ATOM     18  C   UNL     1       1.595   2.904  18.729  0.00  0.00    +0.000 A 
ATOM     19  C   UNL     1       2.570   3.790  18.251  0.00  0.00    +0.000 A 
ATOM     20  C   UNL     1       3.276   3.487  17.077  0.00  0.00    +0.000 A 
ATOM     21  C   UNL     1       4.262   4.345  16.587  0.00  0.00    +0.000 A 
ATOM     22  C   UNL     1       4.588   5.489  17.300  0.00  0.00    +0.000 A 
ATOM     23  C   UNL     1       3.893   5.802  18.471  0.00  0.00    +0.000 A 
ATOM     24  C   UNL     1       2.841   4.992  18.949  0.00  0.00    +0.000 A 
ENDBRANCH  14  15
ENDBRANCH  13  14
ENDBRANCH   3  13
BRANCH  10  25
ATOM     25  S   UNL     1      -0.441  14.353  22.579  0.00  0.00    +0.000 S 
BRANCH  25  26
ATOM     26  C   UNL     1      -2.051  14.888  21.894  0.00  0.00    +0.000 C 
BRANCH  26  27
ATOM     27  C   UNL     1      -3.350  14.525  22.637  0.00  0.00    +0.000 C 
BRANCH  27  28
ATOM     28  N   UNL     1      -3.673  13.085  22.441  0.00  0.00    +0.000 NA
ATOM     29  C   UNL     1      -5.084  12.828  22.073  0.00  0.00    +0.000 C 
ATOM     30  C   UNL     1      -6.049  13.140  23.222  0.00  0.00    +0.000 C 
ATOM     31  O   UNL     1      -5.783  12.269  24.325  0.00  0.00    +0.000 OA
ATOM     32  C   UNL     1      -4.425  12.393  24.775  0.00  0.00    +0.000 C 
ATOM     33  C   UNL     1      -3.391  12.257  23.636  0.00  0.00    +0.000 C 
ENDBRANCH  27  28
ENDBRANCH  26  27
ENDBRANCH  25  26
ENDBRANCH  10  25
TORSDOF 7
ENDMDL
MODEL 9
REMARK VINA RESULT:      -7.7      3.062      5.315
REMARK  Name = 
REMARK  8 active torsions:
REMARK  status: ('A' for Active; 'I' for Inactive)
REMARK    1  A    between atoms: C_1  and  C_2
REMARK    2  A    between atoms: C_3  and  O_4
REMARK    3  A    between atoms: O_4  and  C_5
REMARK    4  A    between atoms: C_5  and  C_6
REMARK    5  A    between atoms: C_22  and  S_23
REMARK    6  A    between atoms: S_23  and  C_24
REMARK    7  A    between atoms: C_24  and  C_25
REMARK    8  A    between atoms: C_25  and  N_26
REMARK                            x       y       z     vdW  Elec       q    Type
REMARK                         _______ _______ _______ _____ _____    ______ ____
ROOT
ATOM      1  C   UNL     1       1.702  10.252  17.916  0.00  0.00    +0.000 C 
ATOM      2  C   UNL     1       1.305   9.695  19.258  0.00  0.00    +0.000 A 
ATOM      3  C   UNL     1       1.602   8.371  19.635  0.00  0.00    +0.000 A 
ATOM      4  C   UNL     1       1.231   7.916  20.905  0.00  0.00    +0.000 A 
ATOM      5  C   UNL     1       0.581   8.773  21.807  0.00  0.00    +0.000 A 
ATOM      6  C   UNL     1       0.280  10.083  21.431  0.00  0.00    +0.000 A 
ATOM      7  C   UNL     1      -0.436  11.007  22.332  0.00  0.00    +0.000 A 
ATOM      8  O   UNL     1      -0.713  10.705  23.481  0.00  0.00    +0.000 OA
ATOM      9  C   UNL     1      -0.843  12.313  21.761  0.00  0.00    +0.000 A 
ATOM     10  C   UNL     1      -0.467  12.623  20.515  0.00  0.00    +0.000 A 
ATOM     11  O   UNL     1       0.353  11.810  19.749  0.00  0.00    +0.000 OA
ATOM     12  C   UNL     1       0.636  10.536  20.168  0.00  0.00    +0.000 A 
ENDROOT
BRANCH   3  13
ATOM     13  O   UNL     1       2.209   7.592  18.687  0.00  0.00    +0.000 OA
BRANCH  13  14
ATOM     14  C   UNL     1       3.400   6.887  19.055  0.00  0.00    +0.000 C 
BRANCH  14  15
ATOM     15  C   UNL     1       3.375   5.500  18.430  0.00  0.00    +0.000 A 
ATOM     16  C   UNL     1       4.155   5.266  17.283  0.00  0.00    +0.000 A 
ATOM     17  C   UNL     1       4.196   4.006  16.687  0.00  0.00    +0.000 A 
ATOM     18  C   UNL     1       3.483   2.948  17.249  0.00  0.00    +0.000 A 
ATOM     19  C   UNL     1       2.702   3.143  18.396  0.00  0.00    +0.000 A 
ATOM     20  C   UNL     1       2.029   2.057  18.977  0.00  0.00    +0.000 A 
ATOM     21  C   UNL     1       1.233   2.226  20.112  0.00  0.00    +0.000 A 
ATOM     22  C   UNL     1       1.061   3.495  20.643  0.00  0.00    +0.000 A 
ATOM     23  C   UNL     1       1.725   4.585  20.074  0.00  0.00    +0.000 A 
ATOM     24  C   UNL     1       2.594   4.432  18.973  0.00  0.00    +0.000 A 
ENDBRANCH  14  15
ENDBRANCH  13  14
ENDBRANCH   3  13
BRANCH  10  25
ATOM     25  S   UNL     1      -1.022  14.104  19.740  0.00  0.00    +0.000 S 
BRANCH  25  26
ATOM     26  C   UNL     1       0.585  14.652  19.056  0.00  0.00    +0.000 C 
BRANCH  26  27
ATOM     27  C   UNL     1       1.708  15.088  20.016  0.00  0.00    +0.000 C 
BRANCH  27  28
ATOM     28  N   UNL     1       2.881  14.179  19.887  0.00  0.00    +0.000 NA
ATOM     29  C   UNL     1       4.085  14.641  20.615  0.00  0.00    +0.000 C 
ATOM     30  C   UNL     1       4.687  15.906  19.995  0.00  0.00    +0.000 C 
ATOM     31  O   UNL     1       5.136  15.624  18.665  0.00  0.00    +0.000 OA
ATOM     32  C   UNL     1       4.064  15.135  17.844  0.00  0.00    +0.000 C 
ATOM     33  C   UNL     1       3.295  13.958  18.483  0.00  0.00    +0.000 C 
ENDBRANCH  27  28
ENDBRANCH  26  27
ENDBRANCH  25  26
ENDBRANCH  10  25
TORSDOF 7
ENDMDL
